MODEL 1
REMARK VINA RESULT:     -10.7      0.000      0.000
REMARK  Name = 
REMARK  8 active torsions:
REMARK  status: ('A' for Active; 'I' for Inactive)
REMARK    1  A    between atoms: C_2  and  C_4
REMARK    2  A    between atoms: C_4  and  C_5
REMARK    3  A    between atoms: C_4  and  N_12
REMARK    4  A    between atoms: C_5  and  C_6
REMARK    5  A    between atoms: C_13  and  C_15
REMARK    6  A    between atoms: C_17  and  N_28
REMARK    7  A    between atoms: C_21  and  C_23
REMARK    8  A    between atoms: N_31  and  C_32
REMARK                            x       y       z     vdW  Elec       q    Type
REMARK                         _______ _______ _______ _____ _____    ______ ____
ROOT
ATOM     15  C   UNL     1      -0.628   0.814  24.590  0.00  0.00    +0.155 C 
ATOM     16  C   UNL     1      -0.100   0.441  24.079  0.00  0.00    +0.051 C 
ATOM     17  C   UNL     1       0.344   0.887  23.545  0.00  0.00    +0.101 C 
ATOM     18  C   UNL     1       0.258   1.707  23.522  0.00  0.00    +0.043 C 
ATOM     19  C   UNL     1      -0.270   2.082  24.034  0.00  0.00    +0.096 C 
ATOM     20  N   UNL     1      -0.713   1.635  24.568  0.00  0.00    -0.272 N 
ATOM     21  C   UNL     1      -1.242   2.009  25.079  0.00  0.00    +0.242 C 
ATOM     22  O   UNL     1      -1.685   1.562  25.613  0.00  0.00    -0.273 OA
ENDROOT
BRANCH  21  23
ATOM     23  C   UNL     1      -1.327   2.830  25.057  0.00  0.00    +0.149 C 
ATOM     24  C   UNL     1      -0.885   3.375  25.491  0.00  0.00    +0.028 C 
ATOM     25  C   UNL     1      -1.154   4.130  25.299  0.00  0.00    +0.021 C 
ATOM     26  C   UNL     1      -1.761   4.052  24.747  0.00  0.00    +0.089 C 
ATOM     27  N   UNL     1      -1.869   3.249  24.597  0.00  0.00    -0.210 NA
ENDBRANCH  21  23
BRANCH  17  28
ATOM     28  N   UNL     1       0.872   0.513  23.033  0.00  0.00    -0.189 NA
ATOM     29  C   UNL     1       1.684   0.577  23.161  0.00  0.00    +0.343 C 
ATOM     30  O   UNL     1       1.968   1.014  23.800  0.00  0.00    -0.249 OA
ATOM     31  N   UNL     1       2.212   0.203  22.649  0.00  0.00    -0.161 NA
BRANCH  31  32
ATOM     32  C   UNL     1       3.024   0.266  22.776  0.00  0.00    +0.077 A 
ATOM     33  C   UNL     1       3.429   0.943  22.533  0.00  0.00    +0.017 A 
ATOM     34  C   UNL     1       4.241   1.006  22.661  0.00  0.00    +0.004 A 
ATOM     35  C   UNL     1       4.650   0.393  23.031  0.00  0.00    +0.030 A 
ATOM     36  C   UNL     1       4.246  -0.284  23.275  0.00  0.00    +0.141 A 
ATOM     37  F   UNL     1       4.655  -0.898  23.645  0.00  0.00    -0.204 F 
ATOM     38  C   UNL     1       3.433  -0.347  23.147  0.00  0.00    +0.046 A 
ENDBRANCH  31  32
ENDBRANCH  17  28
BRANCH  15  13
ATOM     12  N   UNL     1      -1.484  -0.296  24.865  0.00  0.00    -0.196 NA
ATOM     13  C   UNL     1      -1.072   0.369  25.124  0.00  0.00    +0.260 C 
ATOM     14  O   UNL     1      -1.103   0.589  25.919  0.00  0.00    -0.272 OA
BRANCH  12   4
ATOM      4  C   UNL     1      -1.928  -0.742  25.399  0.00  0.00    +0.174 C 
BRANCH   4   2
ATOM      1  N   UNL     1      -1.014  -1.824  25.594  0.00  0.00    -0.086 NA
ATOM      2  C   UNL     1      -1.551  -1.278  25.901  0.00  0.00    +0.281 C 
ATOM      3  O   UNL     1      -1.711  -1.267  26.710  0.00  0.00    -0.270 OA
ENDBRANCH   4   2
BRANCH   4   5
ATOM      5  C   UNL     1      -2.747  -0.653  25.431  0.00  0.00    +0.031 C 
BRANCH   5   6
ATOM      6  C   UNL     1      -3.228  -1.058  24.896  0.00  0.00    +0.002 C 
ATOM      7  C   UNL     1      -3.280  -1.880  24.929  0.00  0.00    +0.000 C 
ATOM      8  C   UNL     1      -3.761  -2.285  24.394  0.00  0.00    +0.000 C 
ATOM      9  C   UNL     1      -4.190  -1.866  23.827  0.00  0.00    +0.000 C 
ATOM     10  C   UNL     1      -4.138  -1.043  23.795  0.00  0.00    +0.000 C 
ATOM     11  C   UNL     1      -3.657  -0.639  24.330  0.00  0.00    +0.000 C 
ENDBRANCH   5   6
ENDBRANCH   4   5
ENDBRANCH  12   4
ENDBRANCH  15  13
TORSDOF 8
ENDMDL
MODEL 2
REMARK VINA RESULT:     -10.5      1.999      5.197
REMARK  Name = 
REMARK  8 active torsions:
REMARK  status: ('A' for Active; 'I' for Inactive)
REMARK    1  A    between atoms: C_2  and  C_4
REMARK    2  A    between atoms: C_4  and  C_5
REMARK    3  A    between atoms: C_4  and  N_12
REMARK    4  A    between atoms: C_5  and  C_6
REMARK    5  A    between atoms: C_13  and  C_15
REMARK    6  A    between atoms: C_17  and  N_28
REMARK    7  A    between atoms: C_21  and  C_23
REMARK    8  A    between atoms: N_31  and  C_32
REMARK                            x       y       z     vdW  Elec       q    Type
REMARK                         _______ _______ _______ _____ _____    ______ ____
ROOT
ATOM     15  C   UNL     1      -0.241   0.741  24.458  0.00  0.00    +0.155 C 
ATOM     16  C   UNL     1      -0.783   0.246  24.833  0.00  0.00    +0.051 C 
ATOM     17  C   UNL     1      -0.722  -0.573  24.748  0.00  0.00    +0.101 C 
ATOM     18  C   UNL     1      -0.119  -0.895  24.288  0.00  0.00    +0.043 C 
ATOM     19  C   UNL     1       0.424  -0.400  23.912  0.00  0.00    +0.096 C 
ATOM     20  N   UNL     1       0.362   0.419  23.997  0.00  0.00    -0.272 N 
ATOM     21  C   UNL     1       0.905   0.914  23.621  0.00  0.00    +0.242 C 
ATOM     22  O   UNL     1       0.843   1.732  23.707  0.00  0.00    -0.273 OA
ENDROOT
BRANCH  21  23
ATOM     23  C   UNL     1       1.508   0.592  23.160  0.00  0.00    +0.149 C 
ATOM     24  C   UNL     1       2.317   0.638  23.318  0.00  0.00    +0.028 C 
ATOM     25  C   UNL     1       2.717   0.241  22.717  0.00  0.00    +0.021 C 
ATOM     26  C   UNL     1       2.156  -0.050  22.187  0.00  0.00    +0.089 C 
ATOM     27  N   UNL     1       1.409   0.166  22.461  0.00  0.00    -0.210 NA
ENDBRANCH  21  23
BRANCH  17  28
ATOM     28  N   UNL     1      -1.264  -1.068  25.124  0.00  0.00    -0.189 NA
ATOM     29  C   UNL     1      -1.942  -1.315  24.725  0.00  0.00    +0.343 C 
ATOM     30  O   UNL     1      -2.078  -1.067  23.950  0.00  0.00    -0.249 OA
ATOM     31  N   UNL     1      -2.484  -1.811  25.100  0.00  0.00    -0.161 NA
BRANCH  31  32
ATOM     32  C   UNL     1      -3.162  -2.058  24.702  0.00  0.00    +0.077 A 
ATOM     33  C   UNL     1      -3.240  -2.845  24.466  0.00  0.00    +0.017 A 
ATOM     34  C   UNL     1      -3.917  -3.093  24.068  0.00  0.00    +0.004 A 
ATOM     35  C   UNL     1      -4.519  -2.553  23.904  0.00  0.00    +0.030 A 
ATOM     36  C   UNL     1      -4.444  -1.766  24.139  0.00  0.00    +0.141 A 
ATOM     37  F   UNL     1      -5.046  -1.226  23.975  0.00  0.00    -0.204 F 
ATOM     38  C   UNL     1      -3.764  -1.518  24.538  0.00  0.00    +0.046 A 
ENDBRANCH  31  32
ENDBRANCH  17  28
BRANCH  15  13
ATOM     12  N   UNL     1      -0.982   1.892  24.870  0.00  0.00    -0.196 NA
ATOM     13  C   UNL     1      -0.302   1.560  24.543  0.00  0.00    +0.260 C 
ATOM     14  O   UNL     1       0.318   2.046  24.299  0.00  0.00    -0.272 OA
BRANCH  12   4
ATOM      4  C   UNL     1      -1.042   2.710  24.955  0.00  0.00    +0.174 C 
BRANCH   4   2
ATOM      1  N   UNL     1      -0.277   3.796  25.484  0.00  0.00    -0.086 NA
ATOM      2  C   UNL     1      -0.683   3.086  25.596  0.00  0.00    +0.281 C 
ATOM      3  O   UNL     1      -0.730   2.752  26.349  0.00  0.00    -0.270 OA
ENDBRANCH   4   2
BRANCH   4   5
ATOM      5  C   UNL     1      -1.461   3.153  24.400  0.00  0.00    +0.031 C 
BRANCH   5   6
ATOM      6  C   UNL     1      -2.286   3.126  24.387  0.00  0.00    +0.002 C 
ATOM      7  C   UNL     1      -2.676   2.723  23.782  0.00  0.00    +0.000 C 
ATOM      8  C   UNL     1      -3.501   2.696  23.769  0.00  0.00    +0.000 C 
ATOM      9  C   UNL     1      -3.935   3.072  24.361  0.00  0.00    +0.000 C 
ATOM     10  C   UNL     1      -3.545   3.475  24.967  0.00  0.00    +0.000 C 
ATOM     11  C   UNL     1      -2.720   3.502  24.979  0.00  0.00    +0.000 C 
ENDBRANCH   5   6
ENDBRANCH   4   5
ENDBRANCH  12   4
ENDBRANCH  15  13
TORSDOF 8
ENDMDL
MODEL 3
REMARK VINA RESULT:     -10.3      2.865      6.326
REMARK  Name = 
REMARK  8 active torsions:
REMARK  status: ('A' for Active; 'I' for Inactive)
REMARK    1  A    between atoms: C_2  and  C_4
REMARK    2  A    between atoms: C_4  and  C_5
REMARK    3  A    between atoms: C_4  and  N_12
REMARK    4  A    between atoms: C_5  and  C_6
REMARK    5  A    between atoms: C_13  and  C_15
REMARK    6  A    between atoms: C_17  and  N_28
REMARK    7  A    between atoms: C_21  and  C_23
REMARK    8  A    between atoms: N_31  and  C_32
REMARK                            x       y       z     vdW  Elec       q    Type
REMARK                         _______ _______ _______ _____ _____    ______ ____
ROOT
ATOM     15  C   UNL     1      -1.902   0.621  24.641  0.00  0.00    +0.155 C 
ATOM     16  C   UNL     1      -2.592   1.023  24.437  0.00  0.00    +0.051 C 
ATOM     17  C   UNL     1      -3.258   0.602  24.191  0.00  0.00    +0.101 C 
ATOM     18  C   UNL     1      -3.233  -0.222  24.150  0.00  0.00    +0.043 C 
ATOM     19  C   UNL     1      -2.542  -0.624  24.354  0.00  0.00    +0.096 C 
ATOM     20  N   UNL     1      -1.876  -0.203  24.599  0.00  0.00    -0.272 N 
ATOM     21  C   UNL     1      -1.185  -0.605  24.803  0.00  0.00    +0.242 C 
ATOM     22  O   UNL     1      -0.520  -0.184  25.049  0.00  0.00    -0.273 OA
ENDROOT
BRANCH  21  23
ATOM     23  C   UNL     1      -1.160  -1.429  24.762  0.00  0.00    +0.149 C 
ATOM     24  C   UNL     1      -1.259  -1.950  25.395  0.00  0.00    +0.028 C 
ATOM     25  C   UNL     1      -1.192  -2.718  25.105  0.00  0.00    +0.021 C 
ATOM     26  C   UNL     1      -1.051  -2.673  24.293  0.00  0.00    +0.089 C 
ATOM     27  N   UNL     1      -1.032  -1.877  24.082  0.00  0.00    -0.210 NA
ENDBRANCH  21  23
BRANCH  17  28
ATOM     28  N   UNL     1      -3.948   1.004  23.988  0.00  0.00    -0.189 NA
ATOM     29  C   UNL     1      -4.358   1.435  24.558  0.00  0.00    +0.343 C 
ATOM     30  O   UNL     1      -4.078   1.465  25.333  0.00  0.00    -0.249 OA
ATOM     31  N   UNL     1      -5.049   1.838  24.355  0.00  0.00    -0.161 NA
BRANCH  31  32
ATOM     32  C   UNL     1      -5.459   2.269  24.925  0.00  0.00    +0.077 A 
ATOM     33  C   UNL     1      -6.032   1.900  25.390  0.00  0.00    +0.017 A 
ATOM     34  C   UNL     1      -6.442   2.331  25.960  0.00  0.00    +0.004 A 
ATOM     35  C   UNL     1      -6.280   3.133  26.067  0.00  0.00    +0.030 A 
ATOM     36  C   UNL     1      -5.707   3.503  25.603  0.00  0.00    +0.141 A 
ATOM     37  F   UNL     1      -5.544   4.305  25.710  0.00  0.00    -0.204 F 
ATOM     38  C   UNL     1      -5.297   3.071  25.032  0.00  0.00    +0.046 A 
ENDBRANCH  31  32
ENDBRANCH  17  28
BRANCH  15  13
ATOM     12  N   UNL     1      -1.082   1.790  24.576  0.00  0.00    -0.196 NA
ATOM     13  C   UNL     1      -1.235   1.042  24.886  0.00  0.00    +0.260 C 
ATOM     14  O   UNL     1      -0.722   0.713  25.442  0.00  0.00    -0.272 OA
BRANCH  12   4
ATOM      4  C   UNL     1      -0.416   2.211  24.821  0.00  0.00    +0.174 C 
BRANCH   4   2
ATOM      1  N   UNL     1       0.996   1.985  24.834  0.00  0.00    -0.086 NA
ATOM      2  C   UNL     1       0.298   2.125  24.416  0.00  0.00    +0.281 C 
ATOM      3  O   UNL     1       0.314   2.179  23.593  0.00  0.00    -0.270 OA
ENDBRANCH   4   2
BRANCH   4   5
ATOM      5  C   UNL     1      -0.463   2.716  25.470  0.00  0.00    +0.031 C 
BRANCH   5   6
ATOM      6  C   UNL     1      -0.848   3.443  25.402  0.00  0.00    +0.002 C 
ATOM      7  C   UNL     1      -0.522   4.041  24.937  0.00  0.00    +0.000 C 
ATOM      8  C   UNL     1      -0.907   4.767  24.868  0.00  0.00    +0.000 C 
ATOM      9  C   UNL     1      -1.619   4.895  25.264  0.00  0.00    +0.000 C 
ATOM     10  C   UNL     1      -1.946   4.297  25.730  0.00  0.00    +0.000 C 
ATOM     11  C   UNL     1      -1.560   3.571  25.798  0.00  0.00    +0.000 C 
ENDBRANCH   5   6
ENDBRANCH   4   5
ENDBRANCH  12   4
ENDBRANCH  15  13
TORSDOF 8
ENDMDL
MODEL 4
REMARK VINA RESULT:     -10.3      1.975      4.410
REMARK  Name = 
REMARK  8 active torsions:
REMARK  status: ('A' for Active; 'I' for Inactive)
REMARK    1  A    between atoms: C_2  and  C_4
REMARK    2  A    between atoms: C_4  and  C_5
REMARK    3  A    between atoms: C_4  and  N_12
REMARK    4  A    between atoms: C_5  and  C_6
REMARK    5  A    between atoms: C_13  and  C_15
REMARK    6  A    between atoms: C_17  and  N_28
REMARK    7  A    between atoms: C_21  and  C_23
REMARK    8  A    between atoms: N_31  and  C_32
REMARK                            x       y       z     vdW  Elec       q    Type
REMARK                         _______ _______ _______ _____ _____    ______ ____
ROOT
ATOM     15  C   UNL     1      -0.324   0.323  24.413  0.00  0.00    +0.155 C 
ATOM     16  C   UNL     1      -0.479   0.933  24.945  0.00  0.00    +0.051 C 
ATOM     17  C   UNL     1       0.014   1.595  24.970  0.00  0.00    +0.101 C 
ATOM     18  C   UNL     1       0.661   1.646  24.462  0.00  0.00    +0.043 C 
ATOM     19  C   UNL     1       0.817   1.034  23.929  0.00  0.00    +0.096 C 
ATOM     20  N   UNL     1       0.324   0.373  23.905  0.00  0.00    -0.272 N 
ATOM     21  C   UNL     1       0.480  -0.238  23.372  0.00  0.00    +0.242 C 
ATOM     22  O   UNL     1      -0.013  -0.899  23.348  0.00  0.00    -0.273 OA
ENDROOT
BRANCH  21  23
ATOM     23  C   UNL     1       1.127  -0.187  22.864  0.00  0.00    +0.149 C 
ATOM     24  C   UNL     1       1.095  -0.148  22.040  0.00  0.00    +0.028 C 
ATOM     25  C   UNL     1       1.869  -0.103  21.757  0.00  0.00    +0.021 C 
ATOM     26  C   UNL     1       2.378  -0.116  22.406  0.00  0.00    +0.089 C 
ATOM     27  N   UNL     1       1.920  -0.167  23.089  0.00  0.00    -0.210 NA
ENDBRANCH  21  23
BRANCH  17  28
ATOM     28  N   UNL     1      -0.141   2.205  25.502  0.00  0.00    -0.189 NA
ATOM     29  C   UNL     1      -0.693   2.788  25.312  0.00  0.00    +0.343 C 
ATOM     30  O   UNL     1      -1.089   2.761  24.589  0.00  0.00    -0.249 OA
ATOM     31  N   UNL     1      -0.848   3.399  25.844  0.00  0.00    -0.161 NA
BRANCH  31  32
ATOM     32  C   UNL     1      -1.399   3.982  25.654  0.00  0.00    +0.077 A 
ATOM     33  C   UNL     1      -2.200   3.859  25.808  0.00  0.00    +0.017 A 
ATOM     34  C   UNL     1      -2.752   4.442  25.618  0.00  0.00    +0.004 A 
ATOM     35  C   UNL     1      -2.502   5.149  25.274  0.00  0.00    +0.030 A 
ATOM     36  C   UNL     1      -1.701   5.273  25.119  0.00  0.00    +0.141 A 
ATOM     37  F   UNL     1      -1.452   5.980  24.774  0.00  0.00    -0.204 F 
ATOM     38  C   UNL     1      -1.150   4.689  25.309  0.00  0.00    +0.046 A 
ENDBRANCH  31  32
ENDBRANCH  17  28
BRANCH  15  13
ATOM     12  N   UNL     1      -1.543  -0.328  24.778  0.00  0.00    -0.196 NA
ATOM     13  C   UNL     1      -0.816  -0.339  24.389  0.00  0.00    +0.260 C 
ATOM     14  O   UNL     1      -0.581  -1.012  23.974  0.00  0.00    -0.272 OA
BRANCH  12   4
ATOM      4  C   UNL     1      -2.035  -0.990  24.753  0.00  0.00    +0.174 C 
BRANCH   4   2
ATOM      1  N   UNL     1      -1.908  -2.409  24.865  0.00  0.00    -0.086 NA
ATOM      2  C   UNL     1      -1.850  -1.657  25.202  0.00  0.00    +0.281 C 
ATOM      3  O   UNL     1      -1.608  -1.574  25.986  0.00  0.00    -0.270 OA
ENDBRANCH   4   2
BRANCH   4   5
ATOM      5  C   UNL     1      -2.711  -0.984  24.282  0.00  0.00    +0.031 C 
BRANCH   5   6
ATOM      6  C   UNL     1      -3.334  -0.473  24.458  0.00  0.00    +0.002 C 
ATOM      7  C   UNL     1      -3.798  -0.604  25.128  0.00  0.00    +0.000 C 
ATOM      8  C   UNL     1      -4.421  -0.093  25.305  0.00  0.00    +0.000 C 
ATOM      9  C   UNL     1      -4.581   0.549  24.811  0.00  0.00    +0.000 C 
ATOM     10  C   UNL     1      -4.117   0.679  24.141  0.00  0.00    +0.000 C 
ATOM     11  C   UNL     1      -3.494   0.168  23.965  0.00  0.00    +0.000 C 
ENDBRANCH   5   6
ENDBRANCH   4   5
ENDBRANCH  12   4
ENDBRANCH  15  13
TORSDOF 8
ENDMDL
MODEL 5
REMARK VINA RESULT:     -10.0      1.440      1.955
REMARK  Name = 
REMARK  8 active torsions:
REMARK  status: ('A' for Active; 'I' for Inactive)
REMARK    1  A    between atoms: C_2  and  C_4
REMARK    2  A    between atoms: C_4  and  C_5
REMARK    3  A    between atoms: C_4  and  N_12
REMARK    4  A    between atoms: C_5  and  C_6
REMARK    5  A    between atoms: C_13  and  C_15
REMARK    6  A    between atoms: C_17  and  N_28
REMARK    7  A    between atoms: C_21  and  C_23
REMARK    8  A    between atoms: N_31  and  C_32
REMARK                            x       y       z     vdW  Elec       q    Type
REMARK                         _______ _______ _______ _____ _____    ______ ____
ROOT
ATOM     15  C   UNL     1      -1.991   1.265  24.585  0.00  0.00    +0.155 C 
ATOM     16  C   UNL     1      -1.354   0.749  24.503  0.00  0.00    +0.051 C 
ATOM     17  C   UNL     1      -0.586   1.016  24.644  0.00  0.00    +0.101 C 
ATOM     18  C   UNL     1      -0.456   1.799  24.867  0.00  0.00    +0.043 C 
ATOM     19  C   UNL     1      -1.094   2.316  24.949  0.00  0.00    +0.096 C 
ATOM     20  N   UNL     1      -1.862   2.049  24.808  0.00  0.00    -0.272 N 
ATOM     21  C   UNL     1      -2.500   2.566  24.891  0.00  0.00    +0.242 C 
ATOM     22  O   UNL     1      -3.268   2.298  24.750  0.00  0.00    -0.273 OA
ENDROOT
BRANCH  21  23
ATOM     23  C   UNL     1      -2.371   3.349  25.114  0.00  0.00    +0.149 C 
ATOM     24  C   UNL     1      -2.476   3.662  25.871  0.00  0.00    +0.028 C 
ATOM     25  C   UNL     1      -2.283   4.463  25.844  0.00  0.00    +0.021 C 
ATOM     26  C   UNL     1      -2.059   4.646  25.071  0.00  0.00    +0.089 C 
ATOM     27  N   UNL     1      -2.113   3.958  24.620  0.00  0.00    -0.210 NA
ENDBRANCH  21  23
BRANCH  17  28
ATOM     28  N   UNL     1       0.052   0.500  24.562  0.00  0.00    -0.189 NA
ATOM     29  C   UNL     1       0.494   0.498  23.866  0.00  0.00    +0.343 C 
ATOM     30  O   UNL     1       0.298   1.012  23.251  0.00  0.00    -0.249 OA
ATOM     31  N   UNL     1       1.132  -0.019  23.783  0.00  0.00    -0.161 NA
BRANCH  31  32
ATOM     32  C   UNL     1       1.574  -0.021  23.087  0.00  0.00    +0.077 A 
ATOM     33  C   UNL     1       1.273  -0.380  22.408  0.00  0.00    +0.017 A 
ATOM     34  C   UNL     1       1.715  -0.383  21.712  0.00  0.00    +0.004 A 
ATOM     35  C   UNL     1       2.459  -0.025  21.694  0.00  0.00    +0.030 A 
ATOM     36  C   UNL     1       2.760   0.334  22.372  0.00  0.00    +0.141 A 
ATOM     37  F   UNL     1       3.504   0.692  22.355  0.00  0.00    -0.204 F 
ATOM     38  C   UNL     1       2.317   0.336  23.069  0.00  0.00    +0.046 A 
ENDBRANCH  31  32
ENDBRANCH  17  28
BRANCH  15  13
ATOM     12  N   UNL     1      -3.043   0.330  24.835  0.00  0.00    -0.196 NA
ATOM     13  C   UNL     1      -2.760   0.998  24.445  0.00  0.00    +0.260 C 
ATOM     14  O   UNL     1      -3.245   1.402  23.913  0.00  0.00    -0.272 OA
BRANCH  12   4
ATOM      4  C   UNL     1      -3.811   0.063  24.695  0.00  0.00    +0.174 C 
BRANCH   4   2
ATOM      1  N   UNL     1      -5.095   0.656  24.904  0.00  0.00    -0.086 NA
ATOM      2  C   UNL     1      -4.422   0.282  25.204  0.00  0.00    +0.281 C 
ATOM      3  O   UNL     1      -4.363   0.127  26.011  0.00  0.00    -0.270 OA
ENDBRANCH   4   2
BRANCH   4   5
ATOM      5  C   UNL     1      -3.968  -0.421  24.046  0.00  0.00    +0.031 C 
BRANCH   5   6
ATOM      6  C   UNL     1      -3.905  -1.241  24.118  0.00  0.00    +0.002 C 
ATOM      7  C   UNL     1      -3.306  -1.570  24.579  0.00  0.00    +0.000 C 
ATOM      8  C   UNL     1      -3.243  -2.390  24.650  0.00  0.00    +0.000 C 
ATOM      9  C   UNL     1      -3.780  -2.880  24.260  0.00  0.00    +0.000 C 
ATOM     10  C   UNL     1      -4.379  -2.550  23.798  0.00  0.00    +0.000 C 
ATOM     11  C   UNL     1      -4.441  -1.731  23.727  0.00  0.00    +0.000 C 
ENDBRANCH   5   6
ENDBRANCH   4   5
ENDBRANCH  12   4
ENDBRANCH  15  13
TORSDOF 8
ENDMDL
MODEL 6
REMARK VINA RESULT:      -9.9      3.055      4.862
REMARK  Name = 
REMARK  8 active torsions:
REMARK  status: ('A' for Active; 'I' for Inactive)
REMARK    1  A    between atoms: C_2  and  C_4
REMARK    2  A    between atoms: C_4  and  C_5
REMARK    3  A    between atoms: C_4  and  N_12
REMARK    4  A    between atoms: C_5  and  C_6
REMARK    5  A    between atoms: C_13  and  C_15
REMARK    6  A    between atoms: C_17  and  N_28
REMARK    7  A    between atoms: C_21  and  C_23
REMARK    8  A    between atoms: N_31  and  C_32
REMARK                            x       y       z     vdW  Elec       q    Type
REMARK                         _______ _______ _______ _____ _____    ______ ____
ROOT
ATOM     15  C   UNL     1      -1.751   1.754  24.804  0.00  0.00    +0.155 C 
ATOM     16  C   UNL     1      -1.878   1.053  24.390  0.00  0.00    +0.051 C 
ATOM     17  C   UNL     1      -1.366   0.413  24.495  0.00  0.00    +0.101 C 
ATOM     18  C   UNL     1      -0.728   0.477  25.014  0.00  0.00    +0.043 C 
ATOM     19  C   UNL     1      -0.602   1.179  25.428  0.00  0.00    +0.096 C 
ATOM     20  N   UNL     1      -1.113   1.818  25.323  0.00  0.00    -0.272 N 
ATOM     21  C   UNL     1      -0.986   2.520  25.738  0.00  0.00    +0.242 C 
ATOM     22  O   UNL     1      -1.498   3.159  25.632  0.00  0.00    -0.273 OA
ENDROOT
BRANCH  21  23
ATOM     23  C   UNL     1      -0.348   2.584  26.257  0.00  0.00    +0.149 C 
ATOM     24  C   UNL     1      -0.370   2.449  27.071  0.00  0.00    +0.028 C 
ATOM     25  C   UNL     1       0.388   2.575  27.370  0.00  0.00    +0.021 C 
ATOM     26  C   UNL     1       0.878   2.787  26.741  0.00  0.00    +0.089 C 
ATOM     27  N   UNL     1       0.423   2.792  26.054  0.00  0.00    -0.210 NA
ENDBRANCH  21  23
BRANCH  17  28
ATOM     28  N   UNL     1      -1.493  -0.288  24.081  0.00  0.00    -0.189 NA
ATOM     29  C   UNL     1      -2.088  -0.806  24.319  0.00  0.00    +0.343 C 
ATOM     30  O   UNL     1      -2.558  -0.623  24.972  0.00  0.00    -0.249 OA
ATOM     31  N   UNL     1      -2.215  -1.509  23.905  0.00  0.00    -0.161 NA
BRANCH  31  32
ATOM     32  C   UNL     1      -2.810  -2.027  24.143  0.00  0.00    +0.077 A 
ATOM     33  C   UNL     1      -2.643  -2.628  24.684  0.00  0.00    +0.017 A 
ATOM     34  C   UNL     1      -3.239  -3.146  24.922  0.00  0.00    +0.004 A 
ATOM     35  C   UNL     1      -4.002  -3.064  24.620  0.00  0.00    +0.030 A 
ATOM     36  C   UNL     1      -4.170  -2.464  24.080  0.00  0.00    +0.141 A 
ATOM     37  F   UNL     1      -4.933  -2.382  23.778  0.00  0.00    -0.204 F 
ATOM     38  C   UNL     1      -3.573  -1.945  23.841  0.00  0.00    +0.046 A 
ENDBRANCH  31  32
ENDBRANCH  17  28
BRANCH  15  13
ATOM     12  N   UNL     1      -3.060   2.262  24.536  0.00  0.00    -0.196 NA
ATOM     13  C   UNL     1      -2.263   2.394  24.700  0.00  0.00    +0.260 C 
ATOM     14  O   UNL     1      -1.975   3.165  24.759  0.00  0.00    -0.272 OA
BRANCH  12   4
ATOM      4  C   UNL     1      -3.571   2.902  24.431  0.00  0.00    +0.174 C 
BRANCH   4   2
ATOM      1  N   UNL     1      -3.652   4.108  23.669  0.00  0.00    -0.086 NA
ATOM      2  C   UNL     1      -3.608   3.284  23.701  0.00  0.00    +0.281 C 
ATOM      3  O   UNL     1      -3.602   2.844  23.004  0.00  0.00    -0.270 OA
ENDBRANCH   4   2
BRANCH   4   5
ATOM      5  C   UNL     1      -4.044   3.158  25.055  0.00  0.00    +0.031 C 
BRANCH   5   6
ATOM      6  C   UNL     1      -4.732   2.745  25.250  0.00  0.00    +0.002 C 
ATOM      7  C   UNL     1      -4.948   2.077  24.818  0.00  0.00    +0.000 C 
ATOM      8  C   UNL     1      -5.635   1.664  25.013  0.00  0.00    +0.000 C 
ATOM      9  C   UNL     1      -6.106   1.919  25.640  0.00  0.00    +0.000 C 
ATOM     10  C   UNL     1      -5.889   2.588  26.073  0.00  0.00    +0.000 C 
ATOM     11  C   UNL     1      -5.202   3.000  25.878  0.00  0.00    +0.000 C 
ENDBRANCH   5   6
ENDBRANCH   4   5
ENDBRANCH  12   4
ENDBRANCH  15  13
TORSDOF 8
ENDMDL
MODEL 7
REMARK VINA RESULT:      -9.6      1.173      3.294
REMARK  Name = 
REMARK  8 active torsions:
REMARK  status: ('A' for Active; 'I' for Inactive)
REMARK    1  A    between atoms: C_2  and  C_4
REMARK    2  A    between atoms: C_4  and  C_5
REMARK    3  A    between atoms: C_4  and  N_12
REMARK    4  A    between atoms: C_5  and  C_6
REMARK    5  A    between atoms: C_13  and  C_15
REMARK    6  A    between atoms: C_17  and  N_28
REMARK    7  A    between atoms: C_21  and  C_23
REMARK    8  A    between atoms: N_31  and  C_32
REMARK                            x       y       z     vdW  Elec       q    Type
REMARK                         _______ _______ _______ _____ _____    ______ ____
ROOT
ATOM     15  C   UNL     1      -0.478   0.435  24.247  0.00  0.00    +0.155 C 
ATOM     16  C   UNL     1       0.132   0.613  23.721  0.00  0.00    +0.051 C 
ATOM     17  C   UNL     1       0.452   0.021  23.244  0.00  0.00    +0.101 C 
ATOM     18  C   UNL     1       0.161  -0.750  23.293  0.00  0.00    +0.043 C 
ATOM     19  C   UNL     1      -0.449  -0.928  23.820  0.00  0.00    +0.096 C 
ATOM     20  N   UNL     1      -0.768  -0.335  24.297  0.00  0.00    -0.272 N 
ATOM     21  C   UNL     1      -1.378  -0.514  24.823  0.00  0.00    +0.242 C 
ATOM     22  O   UNL     1      -1.697   0.079  25.300  0.00  0.00    -0.273 OA
ENDROOT
BRANCH  21  23
ATOM     23  C   UNL     1      -1.669  -1.284  24.873  0.00  0.00    +0.149 C 
ATOM     24  C   UNL     1      -2.398  -1.547  24.589  0.00  0.00    +0.028 C 
ATOM     25  C   UNL     1      -2.460  -2.352  24.755  0.00  0.00    +0.021 C 
ATOM     26  C   UNL     1      -1.771  -2.587  25.142  0.00  0.00    +0.089 C 
ATOM     27  N   UNL     1      -1.282  -1.927  25.215  0.00  0.00    -0.210 NA
ENDBRANCH  21  23
BRANCH  17  28
ATOM     28  N   UNL     1       1.061   0.198  22.718  0.00  0.00    -0.189 NA
ATOM     29  C   UNL     1       1.845   0.181  22.973  0.00  0.00    +0.343 C 
ATOM     30  O   UNL     1       2.019  -0.013  23.756  0.00  0.00    -0.249 OA
ATOM     31  N   UNL     1       2.455   0.359  22.447  0.00  0.00    -0.161 NA
BRANCH  31  32
ATOM     32  C   UNL     1       3.239   0.342  22.703  0.00  0.00    +0.077 A 
ATOM     33  C   UNL     1       3.689   1.034  22.700  0.00  0.00    +0.017 A 
ATOM     34  C   UNL     1       4.473   1.017  22.955  0.00  0.00    +0.004 A 
ATOM     35  C   UNL     1       4.807   0.308  23.214  0.00  0.00    +0.030 A 
ATOM     36  C   UNL     1       4.357  -0.383  23.218  0.00  0.00    +0.141 A 
ATOM     37  F   UNL     1       4.691  -1.092  23.477  0.00  0.00    -0.204 F 
ATOM     38  C   UNL     1       3.573  -0.366  22.962  0.00  0.00    +0.046 A 
ENDBRANCH  31  32
ENDBRANCH  17  28
BRANCH  15  13
ATOM     12  N   UNL     1      -1.129   1.700  24.382  0.00  0.00    -0.196 NA
ATOM     13  C   UNL     1      -0.798   1.028  24.724  0.00  0.00    +0.260 C 
ATOM     14  O   UNL     1      -0.786   0.946  25.545  0.00  0.00    -0.272 OA
BRANCH  12   4
ATOM      4  C   UNL     1      -1.449   2.292  24.859  0.00  0.00    +0.174 C 
BRANCH   4   2
ATOM      1  N   UNL     1      -0.940   3.087  25.933  0.00  0.00    -0.086 NA
ATOM      2  C   UNL     1      -0.971   2.909  25.127  0.00  0.00    +0.281 C 
ATOM      3  O   UNL     1      -0.522   3.347  24.591  0.00  0.00    -0.270 OA
ENDBRANCH   4   2
BRANCH   4   5
ATOM      5  C   UNL     1      -2.246   2.269  25.068  0.00  0.00    +0.031 C 
BRANCH   5   6
ATOM      6  C   UNL     1      -2.808   2.649  24.598  0.00  0.00    +0.002 C 
ATOM      7  C   UNL     1      -2.956   2.382  23.833  0.00  0.00    +0.000 C 
ATOM      8  C   UNL     1      -3.517   2.763  23.363  0.00  0.00    +0.000 C 
ATOM      9  C   UNL     1      -3.932   3.411  23.661  0.00  0.00    +0.000 C 
ATOM     10  C   UNL     1      -3.784   3.679  24.428  0.00  0.00    +0.000 C 
ATOM     11  C   UNL     1      -3.222   3.298  24.896  0.00  0.00    +0.000 C 
ENDBRANCH   5   6
ENDBRANCH   4   5
ENDBRANCH  12   4
ENDBRANCH  15  13
TORSDOF 8
ENDMDL
MODEL 8
REMARK VINA RESULT:      -9.5      1.445      4.118
REMARK  Name = 
REMARK  8 active torsions:
REMARK  status: ('A' for Active; 'I' for Inactive)
REMARK    1  A    between atoms: C_2  and  C_4
REMARK    2  A    between atoms: C_4  and  C_5
REMARK    3  A    between atoms: C_4  and  N_12
REMARK    4  A    between atoms: C_5  and  C_6
REMARK    5  A    between atoms: C_13  and  C_15
REMARK    6  A    between atoms: C_17  and  N_28
REMARK    7  A    between atoms: C_21  and  C_23
REMARK    8  A    between atoms: N_31  and  C_32
REMARK                            x       y       z     vdW  Elec       q    Type
REMARK                         _______ _______ _______ _____ _____    ______ ____
ROOT
ATOM     15  C   UNL     1      -2.059   0.464  24.631  0.00  0.00    +0.155 C 
ATOM     16  C   UNL     1      -1.238   0.538  24.622  0.00  0.00    +0.051 C 
ATOM     17  C   UNL     1      -0.764  -0.130  24.519  0.00  0.00    +0.101 C 
ATOM     18  C   UNL     1      -1.112  -0.872  24.424  0.00  0.00    +0.043 C 
ATOM     19  C   UNL     1      -1.935  -0.946  24.433  0.00  0.00    +0.096 C 
ATOM     20  N   UNL     1      -2.407  -0.278  24.537  0.00  0.00    -0.272 N 
ATOM     21  C   UNL     1      -3.230  -0.353  24.546  0.00  0.00    +0.242 C 
ATOM     22  O   UNL     1      -3.702   0.315  24.649  0.00  0.00    -0.273 OA
ENDROOT
BRANCH  21  23
ATOM     23  C   UNL     1      -3.578  -1.094  24.451  0.00  0.00    +0.149 C 
ATOM     24  C   UNL     1      -3.971  -1.364  23.777  0.00  0.00    +0.028 C 
ATOM     25  C   UNL     1      -4.230  -2.133  23.924  0.00  0.00    +0.021 C 
ATOM     26  C   UNL     1      -3.998  -2.339  24.688  0.00  0.00    +0.089 C 
ATOM     27  N   UNL     1      -3.595  -1.697  25.014  0.00  0.00    -0.210 NA
ENDBRANCH  21  23
BRANCH  17  28
ATOM     28  N   UNL     1       0.057  -0.056  24.510  0.00  0.00    -0.189 NA
ATOM     29  C   UNL     1       0.464  -0.063  23.793  0.00  0.00    +0.343 C 
ATOM     30  O   UNL     1       0.049  -0.143  23.084  0.00  0.00    -0.249 OA
ATOM     31  N   UNL     1       1.286   0.011  23.783  0.00  0.00    -0.161 NA
BRANCH  31  32
ATOM     32  C   UNL     1       1.692   0.005  23.066  0.00  0.00    +0.077 A 
ATOM     33  C   UNL     1       1.365  -0.371  22.408  0.00  0.00    +0.017 A 
ATOM     34  C   UNL     1       1.772  -0.377  21.692  0.00  0.00    +0.004 A 
ATOM     35  C   UNL     1       2.507  -0.008  21.631  0.00  0.00    +0.030 A 
ATOM     36  C   UNL     1       2.836   0.367  22.288  0.00  0.00    +0.141 A 
ATOM     37  F   UNL     1       3.571   0.736  22.228  0.00  0.00    -0.204 F 
ATOM     38  C   UNL     1       2.428   0.374  23.006  0.00  0.00    +0.046 A 
ENDBRANCH  31  32
ENDBRANCH  17  28
BRANCH  15  13
ATOM     12  N   UNL     1      -2.338   1.838  24.358  0.00  0.00    -0.196 NA
ATOM     13  C   UNL     1      -2.533   1.131  24.734  0.00  0.00    +0.260 C 
ATOM     14  O   UNL     1      -3.203   1.091  25.214  0.00  0.00    -0.272 OA
BRANCH  12   4
ATOM      4  C   UNL     1      -2.812   2.506  24.462  0.00  0.00    +0.174 C 
BRANCH   4   2
ATOM      1  N   UNL     1      -4.135   2.914  24.105  0.00  0.00    -0.086 NA
ATOM      2  C   UNL     1      -3.365   2.712  23.885  0.00  0.00    +0.281 C 
ATOM      3  O   UNL     1      -3.150   2.715  23.089  0.00  0.00    -0.270 OA
ENDBRANCH   4   2
BRANCH   4   5
ATOM      5  C   UNL     1      -2.733   2.967  25.140  0.00  0.00    +0.031 C 
BRANCH   5   6
ATOM      6  C   UNL     1      -2.222   3.615  25.143  0.00  0.00    +0.002 C 
ATOM      7  C   UNL     1      -2.514   4.371  25.296  0.00  0.00    +0.000 C 
ATOM      8  C   UNL     1      -2.002   5.018  25.298  0.00  0.00    +0.000 C 
ATOM      9  C   UNL     1      -1.198   4.909  25.147  0.00  0.00    +0.000 C 
ATOM     10  C   UNL     1      -0.906   4.152  24.994  0.00  0.00    +0.000 C 
ATOM     11  C   UNL     1      -1.418   3.506  24.992  0.00  0.00    +0.000 C 
ENDBRANCH   5   6
ENDBRANCH   4   5
ENDBRANCH  12   4
ENDBRANCH  15  13
TORSDOF 8
ENDMDL
