MODEL 1
REMARK VINA RESULT:      -9.6      0.000      0.000
REMARK  Name = 
REMARK  7 active torsions:
REMARK  status: ('A' for Active; 'I' for Inactive)
REMARK    1  A    between atoms: O_2  and  C_3
REMARK    2  A    between atoms: C_3  and  C_4
REMARK    3  A    between atoms: C_4  and  N_5
REMARK    4  A    between atoms: N_5  and  C_6
REMARK    5  A    between atoms: C_7  and  C_12
REMARK    6  A    between atoms: C_15  and  C_17
REMARK    7  A    between atoms: N_21  and  C_22
REMARK                            x       y       z     vdW  Elec       q    Type
REMARK                         _______ _______ _______ _____ _____    ______ ____
ROOT
ATOM     12  C   UNL     1      -4.252   1.049  24.502  0.00  0.00    +0.206 A 
ATOM     13  N   UNL     1      -3.768   1.066  23.834  0.00  0.00    -0.056 NA
ATOM     14  O   UNL     1      -3.521   0.295  23.678  0.00  0.00    -0.336 OA
ATOM     15  C   UNL     1      -3.852  -0.199  24.250  0.00  0.00    +0.251 A 
ATOM     16  N   UNL     1      -4.304   0.267  24.759  0.00  0.00    -0.190 NA
ENDROOT
BRANCH  12   7
ATOM      6  C   UNL     1      -4.168   2.344  25.102  0.00  0.00    +0.151 A 
ATOM      7  C   UNL     1      -4.619   1.700  24.852  0.00  0.00    +0.072 A 
ATOM      8  C   UNL     1      -5.438   1.707  24.952  0.00  0.00    +0.008 A 
ATOM      9  C   UNL     1      -5.805   2.357  25.301  0.00  0.00    +0.021 A 
ATOM     10  C   UNL     1      -5.354   3.001  25.551  0.00  0.00    +0.100 A 
ATOM     11  N   UNL     1      -4.534   2.994  25.451  0.00  0.00    -0.228 NA
BRANCH   6   5
ATOM      5  N   UNL     1      -3.349   2.337  25.001  0.00  0.00    -0.218 NA
BRANCH   5   4
ATOM      4  C   UNL     1      -2.894   2.966  25.281  0.00  0.00    +0.146 C 
BRANCH   4   3
ATOM      3  C   UNL     1      -2.073   2.947  25.204  0.00  0.00    +0.166 C 
BRANCH   3   2
ATOM      1  C   UNL     1      -0.823   3.635  25.285  0.00  0.00    +0.174 C 
ATOM      2  O   UNL     1      -1.617   3.566  25.501  0.00  0.00    -0.349 OA
ENDBRANCH   3   2
ENDBRANCH   4   3
ENDBRANCH   5   4
ENDBRANCH   6   5
ENDBRANCH  12   7
BRANCH  15  17
ATOM     17  C   UNL     1      -3.749  -1.016  24.303  0.00  0.00    +0.138 C 
ATOM     18  C   UNL     1      -4.252  -1.590  23.988  0.00  0.00    +0.027 C 
ATOM     19  C   UNL     1      -3.938  -2.331  24.172  0.00  0.00    +0.019 C 
ATOM     20  C   UNL     1      -3.243  -2.216  24.599  0.00  0.00    +0.072 C 
ATOM     21  N   UNL     1      -3.126  -1.403  24.681  0.00  0.00    -0.268 NA
BRANCH  21  22
ATOM     22  C   UNL     1      -2.496  -1.040  25.071  0.00  0.00    +0.058 C 
ATOM     23  C   UNL     1      -1.821  -0.821  24.649  0.00  0.00    +0.017 C 
ATOM     24  C   UNL     1      -2.540  -0.897  25.882  0.00  0.00    +0.017 C 
ENDBRANCH  21  22
ENDBRANCH  15  17
TORSDOF 7
ENDMDL
MODEL 2
REMARK VINA RESULT:      -9.3      1.145      3.684
REMARK  Name = 
REMARK  7 active torsions:
REMARK  status: ('A' for Active; 'I' for Inactive)
REMARK    1  A    between atoms: O_2  and  C_3
REMARK    2  A    between atoms: C_3  and  C_4
REMARK    3  A    between atoms: C_4  and  N_5
REMARK    4  A    between atoms: N_5  and  C_6
REMARK    5  A    between atoms: C_7  and  C_12
REMARK    6  A    between atoms: C_15  and  C_17
REMARK    7  A    between atoms: N_21  and  C_22
REMARK                            x       y       z     vdW  Elec       q    Type
REMARK                         _______ _______ _______ _____ _____    ______ ____
ROOT
ATOM     12  C   UNL     1      -3.730   0.208  24.475  0.00  0.00    +0.206 A 
ATOM     13  N   UNL     1      -3.694   0.643  23.774  0.00  0.00    -0.056 NA
ATOM     14  O   UNL     1      -4.099   1.351  23.893  0.00  0.00    -0.336 OA
ATOM     15  C   UNL     1      -4.385   1.354  24.667  0.00  0.00    +0.251 A 
ATOM     16  N   UNL     1      -4.157   0.648  25.027  0.00  0.00    -0.190 NA
ENDROOT
BRANCH  12   7
ATOM      6  C   UNL     1      -2.583  -0.608  24.728  0.00  0.00    +0.151 A 
ATOM      7  C   UNL     1      -3.396  -0.536  24.602  0.00  0.00    +0.072 A 
ATOM      8  C   UNL     1      -3.874  -1.208  24.603  0.00  0.00    +0.008 A 
ATOM      9  C   UNL     1      -3.541  -1.951  24.730  0.00  0.00    +0.021 A 
ATOM     10  C   UNL     1      -2.729  -2.023  24.856  0.00  0.00    +0.100 A 
ATOM     11  N   UNL     1      -2.250  -1.351  24.855  0.00  0.00    -0.228 NA
BRANCH   6   5
ATOM      5  N   UNL     1      -2.105   0.064  24.727  0.00  0.00    -0.218 NA
BRANCH   5   4
ATOM      4  C   UNL     1      -1.284  -0.014  24.756  0.00  0.00    +0.146 C 
BRANCH   4   3
ATOM      3  C   UNL     1      -0.814   0.639  24.939  0.00  0.00    +0.166 C 
BRANCH   3   2
ATOM      1  C   UNL     1       0.138   1.618  24.518  0.00  0.00    +0.174 C 
ATOM      2  O   UNL     1      -0.230   0.886  24.412  0.00  0.00    -0.349 OA
ENDBRANCH   3   2
ENDBRANCH   4   3
ENDBRANCH   5   4
ENDBRANCH   6   5
ENDBRANCH  12   7
BRANCH  15  17
ATOM     17  C   UNL     1      -4.824   1.959  25.019  0.00  0.00    +0.138 C 
ATOM     18  C   UNL     1      -5.580   1.886  25.341  0.00  0.00    +0.027 C 
ATOM     19  C   UNL     1      -5.805   2.624  25.632  0.00  0.00    +0.019 C 
ATOM     20  C   UNL     1      -5.189   3.153  25.490  0.00  0.00    +0.072 C 
ATOM     21  N   UNL     1      -4.582   2.742  25.111  0.00  0.00    -0.268 NA
BRANCH  21  22
ATOM     22  C   UNL     1      -3.860   3.059  24.867  0.00  0.00    +0.058 C 
ATOM     23  C   UNL     1      -3.240   3.136  25.406  0.00  0.00    +0.017 C 
ATOM     24  C   UNL     1      -3.758   3.298  24.085  0.00  0.00    +0.017 C 
ENDBRANCH  21  22
ENDBRANCH  15  17
TORSDOF 7
ENDMDL
MODEL 3
REMARK VINA RESULT:      -9.1      1.194      3.934
REMARK  Name = 
REMARK  7 active torsions:
REMARK  status: ('A' for Active; 'I' for Inactive)
REMARK    1  A    between atoms: O_2  and  C_3
REMARK    2  A    between atoms: C_3  and  C_4
REMARK    3  A    between atoms: C_4  and  N_5
REMARK    4  A    between atoms: N_5  and  C_6
REMARK    5  A    between atoms: C_7  and  C_12
REMARK    6  A    between atoms: C_15  and  C_17
REMARK    7  A    between atoms: N_21  and  C_22
REMARK                            x       y       z     vdW  Elec       q    Type
REMARK                         _______ _______ _______ _____ _____    ______ ____
ROOT
ATOM     12  C   UNL     1      -3.373   2.279  24.723  0.00  0.00    +0.206 A 
ATOM     13  N   UNL     1      -3.011   2.342  23.983  0.00  0.00    -0.056 NA
ATOM     14  O   UNL     1      -2.199   2.418  24.103  0.00  0.00    -0.336 OA
ATOM     15  C   UNL     1      -2.058   2.402  24.916  0.00  0.00    +0.251 A 
ATOM     16  N   UNL     1      -2.783   2.315  25.298  0.00  0.00    -0.190 NA
ENDROOT
BRANCH  12   7
ATOM      6  C   UNL     1      -4.535   1.450  24.800  0.00  0.00    +0.151 A 
ATOM      7  C   UNL     1      -4.182   2.193  24.861  0.00  0.00    +0.072 A 
ATOM      8  C   UNL     1      -4.638   2.851  25.061  0.00  0.00    +0.008 A 
ATOM      9  C   UNL     1      -5.446   2.766  25.199  0.00  0.00    +0.021 A 
ATOM     10  C   UNL     1      -5.799   2.023  25.138  0.00  0.00    +0.100 A 
ATOM     11  N   UNL     1      -5.343   1.365  24.938  0.00  0.00    -0.228 NA
BRANCH   6   5
ATOM      5  N   UNL     1      -4.079   0.792  24.600  0.00  0.00    -0.218 NA
BRANCH   5   4
ATOM      4  C   UNL     1      -4.430   0.047  24.549  0.00  0.00    +0.146 C 
BRANCH   4   3
ATOM      3  C   UNL     1      -3.974  -0.610  24.345  0.00  0.00    +0.166 C 
BRANCH   3   2
ATOM      1  C   UNL     1      -3.934  -2.017  24.100  0.00  0.00    +0.174 C 
ATOM      2  O   UNL     1      -4.342  -1.300  24.082  0.00  0.00    -0.349 OA
ENDBRANCH   3   2
ENDBRANCH   4   3
ENDBRANCH   5   4
ENDBRANCH   6   5
ENDBRANCH  12   7
BRANCH  15  17
ATOM     17  C   UNL     1      -1.321   2.461  25.281  0.00  0.00    +0.138 C 
ATOM     18  C   UNL     1      -0.900   1.842  25.630  0.00  0.00    +0.027 C 
ATOM     19  C   UNL     1      -0.194   2.149  25.926  0.00  0.00    +0.019 C 
ATOM     20  C   UNL     1      -0.178   2.956  25.761  0.00  0.00    +0.072 C 
ATOM     21  N   UNL     1      -0.874   3.150  25.363  0.00  0.00    -0.268 NA
BRANCH  21  22
ATOM     22  C   UNL     1      -1.086   3.900  25.093  0.00  0.00    +0.058 C 
ATOM     23  C   UNL     1      -0.842   4.154  24.346  0.00  0.00    +0.017 C 
ATOM     24  C   UNL     1      -1.542   4.396  25.568  0.00  0.00    +0.017 C 
ENDBRANCH  21  22
ENDBRANCH  15  17
TORSDOF 7
ENDMDL
MODEL 4
REMARK VINA RESULT:      -8.9      1.573      3.353
REMARK  Name = 
REMARK  7 active torsions:
REMARK  status: ('A' for Active; 'I' for Inactive)
REMARK    1  A    between atoms: O_2  and  C_3
REMARK    2  A    between atoms: C_3  and  C_4
REMARK    3  A    between atoms: C_4  and  N_5
REMARK    4  A    between atoms: N_5  and  C_6
REMARK    5  A    between atoms: C_7  and  C_12
REMARK    6  A    between atoms: C_15  and  C_17
REMARK    7  A    between atoms: N_21  and  C_22
REMARK                            x       y       z     vdW  Elec       q    Type
REMARK                         _______ _______ _______ _____ _____    ______ ____
ROOT
ATOM     12  C   UNL     1      -2.724   2.881  24.477  0.00  0.00    +0.206 A 
ATOM     13  N   UNL     1      -2.914   2.651  23.707  0.00  0.00    -0.056 NA
ATOM     14  O   UNL     1      -3.649   2.278  23.726  0.00  0.00    -0.336 OA
ATOM     15  C   UNL     1      -3.913   2.276  24.508  0.00  0.00    +0.251 A 
ATOM     16  N   UNL     1      -3.342   2.648  24.971  0.00  0.00    -0.190 NA
ENDROOT
BRANCH  12   7
ATOM      6  C   UNL     1      -1.308   2.888  24.672  0.00  0.00    +0.151 A 
ATOM      7  C   UNL     1      -2.037   3.273  24.710  0.00  0.00    +0.072 A 
ATOM      8  C   UNL     1      -2.078   4.051  24.982  0.00  0.00    +0.008 A 
ATOM      9  C   UNL     1      -1.392   4.443  25.215  0.00  0.00    +0.021 A 
ATOM     10  C   UNL     1      -0.664   4.059  25.177  0.00  0.00    +0.100 A 
ATOM     11  N   UNL     1      -0.622   3.280  24.905  0.00  0.00    -0.228 NA
BRANCH   6   5
ATOM      5  N   UNL     1      -1.267   2.110  24.400  0.00  0.00    -0.218 NA
BRANCH   5   4
ATOM      4  C   UNL     1      -0.571   1.677  24.496  0.00  0.00    +0.146 C 
BRANCH   4   3
ATOM      3  C   UNL     1      -0.471   0.965  24.091  0.00  0.00    +0.166 C 
BRANCH   3   2
ATOM      1  C   UNL     1      -0.179  -0.434  24.101  0.00  0.00    +0.174 C 
ATOM      2  O   UNL     1      -0.289   0.277  24.507  0.00  0.00    -0.349 OA
ENDBRANCH   3   2
ENDBRANCH   4   3
ENDBRANCH   5   4
ENDBRANCH   6   5
ENDBRANCH  12   7
BRANCH  15  17
ATOM     17  C   UNL     1      -4.625   1.957  24.778  0.00  0.00    +0.138 C 
ATOM     18  C   UNL     1      -5.304   2.383  24.975  0.00  0.00    +0.027 C 
ATOM     19  C   UNL     1      -5.880   1.844  25.218  0.00  0.00    +0.019 C 
ATOM     20  C   UNL     1      -5.559   1.087  25.171  0.00  0.00    +0.072 C 
ATOM     21  N   UNL     1      -4.782   1.156  24.899  0.00  0.00    -0.268 NA
BRANCH  21  22
ATOM     22  C   UNL     1      -4.256   0.533  24.770  0.00  0.00    +0.058 C 
ATOM     23  C   UNL     1      -3.834   0.213  25.404  0.00  0.00    +0.017 C 
ATOM     24  C   UNL     1      -4.151   0.232  24.010  0.00  0.00    +0.017 C 
ENDBRANCH  21  22
ENDBRANCH  15  17
TORSDOF 7
ENDMDL
MODEL 5
REMARK VINA RESULT:      -8.7      1.342      4.374
REMARK  Name = 
REMARK  7 active torsions:
REMARK  status: ('A' for Active; 'I' for Inactive)
REMARK    1  A    between atoms: O_2  and  C_3
REMARK    2  A    between atoms: C_3  and  C_4
REMARK    3  A    between atoms: C_4  and  N_5
REMARK    4  A    between atoms: N_5  and  C_6
REMARK    5  A    between atoms: C_7  and  C_12
REMARK    6  A    between atoms: C_15  and  C_17
REMARK    7  A    between atoms: N_21  and  C_22
REMARK                            x       y       z     vdW  Elec       q    Type
REMARK                         _______ _______ _______ _____ _____    ______ ____
ROOT
ATOM     12  C   UNL     1      -2.678   1.183  24.415  0.00  0.00    +0.206 A 
ATOM     13  N   UNL     1      -3.005   1.355  23.677  0.00  0.00    -0.056 NA
ATOM     14  O   UNL     1      -3.732   1.724  23.802  0.00  0.00    -0.336 OA
ATOM     15  C   UNL     1      -3.854   1.780  24.616  0.00  0.00    +0.251 A 
ATOM     16  N   UNL     1      -3.203   1.446  24.995  0.00  0.00    -0.190 NA
ENDROOT
BRANCH  12   7
ATOM      6  C   UNL     1      -1.915  -0.008  24.622  0.00  0.00    +0.151 A 
ATOM      7  C   UNL     1      -1.952   0.814  24.549  0.00  0.00    +0.072 A 
ATOM      8  C   UNL     1      -1.264   1.264  24.611  0.00  0.00    +0.008 A 
ATOM      9  C   UNL     1      -0.540   0.895  24.745  0.00  0.00    +0.021 A 
ATOM     10  C   UNL     1      -0.502   0.075  24.818  0.00  0.00    +0.100 A 
ATOM     11  N   UNL     1      -1.190  -0.377  24.756  0.00  0.00    -0.228 NA
BRANCH   6   5
ATOM      5  N   UNL     1      -2.603  -0.459  24.561  0.00  0.00    -0.218 NA
BRANCH   5   4
ATOM      4  C   UNL     1      -2.565  -1.280  24.634  0.00  0.00    +0.146 C 
BRANCH   4   3
ATOM      3  C   UNL     1      -3.258  -1.728  24.613  0.00  0.00    +0.166 C 
BRANCH   3   2
ATOM      1  C   UNL     1      -3.822  -2.992  24.260  0.00  0.00    +0.174 C 
ATOM      2  O   UNL     1      -3.215  -2.551  24.605  0.00  0.00    -0.349 OA
ENDBRANCH   3   2
ENDBRANCH   4   3
ENDBRANCH   5   4
ENDBRANCH   6   5
ENDBRANCH  12   7
BRANCH  15  17
ATOM     17  C   UNL     1      -4.513   2.112  24.986  0.00  0.00    +0.138 C 
ATOM     18  C   UNL     1      -5.189   1.706  25.230  0.00  0.00    +0.027 C 
ATOM     19  C   UNL     1      -5.704   2.252  25.571  0.00  0.00    +0.019 C 
ATOM     20  C   UNL     1      -5.349   2.995  25.538  0.00  0.00    +0.072 C 
ATOM     21  N   UNL     1      -4.612   2.908  25.176  0.00  0.00    -0.268 NA
BRANCH  21  22
ATOM     22  C   UNL     1      -4.069   3.513  25.030  0.00  0.00    +0.058 C 
ATOM     23  C   UNL     1      -3.557   3.760  25.629  0.00  0.00    +0.017 C 
ATOM     24  C   UNL     1      -4.038   3.870  24.288  0.00  0.00    +0.017 C 
ENDBRANCH  21  22
ENDBRANCH  15  17
TORSDOF 7
ENDMDL
MODEL 6
REMARK VINA RESULT:      -8.7      1.276      2.763
REMARK  Name = 
REMARK  7 active torsions:
REMARK  status: ('A' for Active; 'I' for Inactive)
REMARK    1  A    between atoms: O_2  and  C_3
REMARK    2  A    between atoms: C_3  and  C_4
REMARK    3  A    between atoms: C_4  and  N_5
REMARK    4  A    between atoms: N_5  and  C_6
REMARK    5  A    between atoms: C_7  and  C_12
REMARK    6  A    between atoms: C_15  and  C_17
REMARK    7  A    between atoms: N_21  and  C_22
REMARK                            x       y       z     vdW  Elec       q    Type
REMARK                         _______ _______ _______ _____ _____    ______ ____
ROOT
ATOM     12  C   UNL     1      -2.104   1.888  24.599  0.00  0.00    +0.206 A 
ATOM     13  N   UNL     1      -2.317   1.656  23.836  0.00  0.00    -0.056 NA
ATOM     14  O   UNL     1      -2.210   0.841  23.778  0.00  0.00    -0.336 OA
ATOM     15  C   UNL     1      -1.930   0.569  24.505  0.00  0.00    +0.251 A 
ATOM     16  N   UNL     1      -1.865   1.216  25.012  0.00  0.00    -0.190 NA
ENDROOT
BRANCH  12   7
ATOM      6  C   UNL     1      -2.852   3.034  25.013  0.00  0.00    +0.151 A 
ATOM      7  C   UNL     1      -2.127   2.658  24.896  0.00  0.00    +0.072 A 
ATOM      8  C   UNL     1      -1.425   3.052  25.075  0.00  0.00    +0.008 A 
ATOM      9  C   UNL     1      -1.447   3.820  25.372  0.00  0.00    +0.021 A 
ATOM     10  C   UNL     1      -2.172   4.196  25.490  0.00  0.00    +0.100 A 
ATOM     11  N   UNL     1      -2.875   3.802  25.310  0.00  0.00    -0.228 NA
BRANCH   6   5
ATOM      5  N   UNL     1      -3.554   2.640  24.834  0.00  0.00    -0.218 NA
BRANCH   5   4
ATOM      4  C   UNL     1      -4.278   2.960  25.068  0.00  0.00    +0.146 C 
BRANCH   4   3
ATOM      3  C   UNL     1      -4.982   2.649  24.771  0.00  0.00    +0.166 C 
BRANCH   3   2
ATOM      1  C   UNL     1      -6.218   1.969  24.999  0.00  0.00    +0.174 C 
ATOM      2  O   UNL     1      -5.566   2.384  25.290  0.00  0.00    -0.349 OA
ENDBRANCH   3   2
ENDBRANCH   4   3
ENDBRANCH   5   4
ENDBRANCH   6   5
ENDBRANCH  12   7
BRANCH  15  17
ATOM     17  C   UNL     1      -1.747  -0.214  24.692  0.00  0.00    +0.138 C 
ATOM     18  C   UNL     1      -0.989  -0.534  24.754  0.00  0.00    +0.027 C 
ATOM     19  C   UNL     1      -1.065  -1.332  24.950  0.00  0.00    +0.019 C 
ATOM     20  C   UNL     1      -1.869  -1.506  25.009  0.00  0.00    +0.072 C 
ATOM     21  N   UNL     1      -2.291  -0.814  24.850  0.00  0.00    -0.268 NA
BRANCH  21  22
ATOM     22  C   UNL     1      -3.113  -0.737  24.848  0.00  0.00    +0.058 C 
ATOM     23  C   UNL     1      -3.517  -0.618  25.558  0.00  0.00    +0.017 C 
ATOM     24  C   UNL     1      -3.530  -0.778  24.138  0.00  0.00    +0.017 C 
ENDBRANCH  21  22
ENDBRANCH  15  17
TORSDOF 7
ENDMDL
