REMARK  Name = 
REMARK  7 active torsions:
REMARK  status: ('A' for Active; 'I' for Inactive)
REMARK    1  A    between atoms: O_2  and  C_3
REMARK    2  A    between atoms: C_6  and  C_7
REMARK    3  A    between atoms: C_7  and  N_8
REMARK    4  A    between atoms: C_9  and  C_11
REMARK    5  A    between atoms: C_11  and  C_12
REMARK    6  A    between atoms: C_17  and  C_19
REMARK    7  A    between atoms: C_30  and  C_32
REMARK                            x       y       z     vdW  Elec       q    Type
REMARK                         _______ _______ _______ _____ _____    ______ ____
ROOT
ATOM     12  C   UNL     1       2.143   1.238   0.000  0.00  0.00    +0.050 C 
ATOM     13  C   UNL     1       2.858   0.825   0.000  0.00  0.00    +0.063 A 
ATOM     14  C   UNL     1       2.858   0.000   0.000  0.00  0.00    +0.023 A 
ATOM     15  C   UNL     1       2.143  -0.412   0.000  0.00  0.00    +0.034 C 
ATOM     16  C   UNL     1       1.429   0.000   0.000  0.00  0.00    +0.010 C 
ATOM     17  C   UNL     1       0.715  -0.412   0.000  0.00  0.00    +0.059 C 
ATOM     18  C   UNL     1       1.245  -1.044   0.000  0.00  0.00    +0.005 C 
ATOM     21  C   UNL     1       0.000   0.000   0.000  0.00  0.00    +0.154 C 
ATOM     22  O   UNL     1      -0.715  -0.412   0.000  0.00  0.00    -0.223 OA
ATOM     23  C   UNL     1       0.000   0.825   0.000  0.00  0.00    +0.033 C 
ATOM     24  C   UNL     1       0.715   1.238   0.000  0.00  0.00    +0.003 C 
ATOM     25  C   UNL     1       1.429   0.825   0.000  0.00  0.00    +0.006 C 
ATOM     26  C   UNL     1       1.429   1.650   0.000  0.00  0.00    +0.000 C 
ATOM     27  S   UNL     1       3.643  -0.255   0.000  0.00  0.00    -0.054 S 
ATOM     28  C   UNL     1       4.127   0.412   0.000  0.00  0.00    +0.185 A 
ATOM     29  N   UNL     1       4.952   0.412   0.000  0.00  0.00    -0.150 NA
ATOM     30  C   UNL     1       5.365  -0.302   0.000  0.00  0.00    +0.277 C 
ATOM     31  O   UNL     1       6.190  -0.302   0.000  0.00  0.00    -0.267 OA
ATOM     37  N   UNL     1       3.643   1.080   0.000  0.00  0.00    -0.227 NA
ENDROOT
BRANCH  30  32
ATOM     32  C   UNL     1       4.952  -1.016   0.000  0.00  0.00    +0.085 A 
ATOM     33  C   UNL     1       5.288  -1.770   0.000  0.00  0.00    +0.012 A 
ATOM     34  C   UNL     1       4.675  -2.322   0.000  0.00  0.00    +0.008 A 
ATOM     35  C   UNL     1       3.960  -1.910   0.000  0.00  0.00    +0.036 A 
ATOM     36  S   UNL     1       4.132  -1.103   0.000  0.00  0.00    -0.082 S 
ENDBRANCH  30  32
BRANCH  17  19
ATOM     19  C   UNL     1       0.184  -1.044   0.000  0.00  0.00    +0.184 C 
ATOM     20  O   UNL     1      -0.628  -0.901   0.000  0.00  0.00    -0.220 OA
ENDBRANCH  17  19
BRANCH  12  11
ATOM     11  C   UNL     1       2.143   2.062   0.000  0.00  0.00    +0.093 C 
BRANCH  11   9
ATOM      8  N   UNL     1       1.429   3.300   0.000  0.00  0.00    -0.201 NA
ATOM      9  C   UNL     1       1.429   2.475   0.000  0.00  0.00    +0.242 C 
ATOM     10  O   UNL     1       0.715   2.062   0.000  0.00  0.00    -0.273 OA
BRANCH   8   7
ATOM      7  C   UNL     1       0.715   3.712   0.000  0.00  0.00    +0.141 C 
BRANCH   7   6
ATOM      3  C   UNL     1       0.715   6.188   0.000  0.00  0.00    +0.139 A 
ATOM      4  C   UNL     1       1.429   5.775   0.000  0.00  0.00    +0.037 A 
ATOM      5  C   UNL     1       1.429   4.950   0.000  0.00  0.00    +0.001 A 
ATOM      6  C   UNL     1       0.715   4.537   0.000  0.00  0.00    -0.000 A 
ATOM     38  C   UNL     1       0.000   4.950   0.000  0.00  0.00    +0.001 A 
ATOM     39  C   UNL     1       0.000   5.775   0.000  0.00  0.00    +0.037 A 
BRANCH   3   2
ATOM      1  C   UNL     1       0.000   7.425   0.000  0.00  0.00    +0.252 C 
ATOM      2  O   UNL     1       0.715   7.013   0.000  0.00  0.00    -0.471 OA
ENDBRANCH   3   2
ENDBRANCH   7   6
ENDBRANCH   8   7
ENDBRANCH  11   9
ENDBRANCH  12  11
TORSDOF 7
