MODEL 1
REMARK VINA RESULT:      -9.0      0.000      0.000
REMARK  Name = 
REMARK  7 active torsions:
REMARK  status: ('A' for Active; 'I' for Inactive)
REMARK    1  A    between atoms: C_2  and  C_4
REMARK    2  A    between atoms: C_6  and  C_7
REMARK    3  A    between atoms: C_7  and  C_8
REMARK    4  A    between atoms: C_11  and  C_13
REMARK    5  A    between atoms: C_22  and  C_23
REMARK    6  A    between atoms: C_23  and  N_24
REMARK    7  A    between atoms: N_24  and  C_25
REMARK                            x       y       z     vdW  Elec       q    Type
REMARK                         _______ _______ _______ _____ _____    ______ ____
ROOT
ATOM      4  C   UNL     1      -1.468   0.886  24.581  0.00  0.00    +0.006 C 
ATOM      5  C   UNL     1      -2.212   0.757  24.913  0.00  0.00    +0.005 C 
ATOM      6  C   UNL     1      -2.523  -0.006  24.944  0.00  0.00    +0.027 C 
ATOM     19  C   UNL     1      -2.090  -0.641  24.644  0.00  0.00    -0.048 C 
ATOM     20  C   UNL     1      -2.401  -1.405  24.676  0.00  0.00    +0.026 C 
ATOM     21  C   UNL     1      -1.345  -0.512  24.312  0.00  0.00    -0.033 C 
ATOM     22  C   UNL     1      -1.034   0.251  24.281  0.00  0.00    +0.043 C 
ENDROOT
BRANCH   4   2
ATOM      1  C   UNL     1      -0.738   1.951  25.193  0.00  0.00    +0.000 C 
ATOM      2  C   UNL     1      -1.157   1.649  24.549  0.00  0.00    +0.000 C 
ATOM      3  C   UNL     1      -1.265   2.111  23.875  0.00  0.00    +0.000 C 
ENDBRANCH   4   2
BRANCH   6   7
ATOM      7  C   UNL     1      -3.268  -0.136  25.276  0.00  0.00    +0.091 C 
BRANCH   7   8
ATOM      8  C   UNL     1      -3.894   0.369  25.093  0.00  0.00    +0.227 A 
ATOM      9  N   UNL     1      -4.389   0.309  24.436  0.00  0.00    -0.111 NA
ATOM     10  N   UNL     1      -4.936   0.924  24.472  0.00  0.00    -0.106 NA
ATOM     11  C   UNL     1      -4.780   1.365  25.151  0.00  0.00    +0.267 A 
ATOM     12  O   UNL     1      -4.137   1.022  25.536  0.00  0.00    -0.418 OA
BRANCH  11  13
ATOM     13  C   UNL     1      -5.196   2.033  25.402  0.00  0.00    +0.136 A 
ATOM     14  C   UNL     1      -5.766   2.053  25.997  0.00  0.00    +0.123 A 
ATOM     15  N   UNL     1      -6.037   2.829  26.065  0.00  0.00    -0.222 NA
ATOM     16  C   UNL     1      -5.633   3.289  25.511  0.00  0.00    +0.179 A 
ATOM     17  N   UNL     1      -5.113   2.796  25.102  0.00  0.00    -0.303 N 
ATOM     18  C   UNL     1      -4.601   3.027  24.498  0.00  0.00    +0.132 C 
ENDBRANCH  11  13
ENDBRANCH   7   8
ENDBRANCH   6   7
BRANCH  22  23
ATOM     23  C   UNL     1      -0.291   0.380  23.949  0.00  0.00    +0.117 C 
BRANCH  23  24
ATOM     24  N   UNL     1       0.106  -0.238  23.572  0.00  0.00    -0.236 NA
BRANCH  24  25
ATOM     25  C   UNL     1       0.841  -0.104  23.222  0.00  0.00    +0.085 A 
ATOM     26  C   UNL     1       0.977  -0.342  22.444  0.00  0.00    +0.116 A 
ATOM     27  N   UNL     1       1.711  -0.209  22.094  0.00  0.00    -0.226 NA
ATOM     28  C   UNL     1       2.310   0.164  22.522  0.00  0.00    +0.155 A 
ATOM     29  N   UNL     1       3.046   0.298  22.171  0.00  0.00    -0.160 NA
ATOM     30  C   UNL     1       3.645   0.671  22.599  0.00  0.00    +0.247 C 
ATOM     31  C   UNL     1       4.379   0.805  22.249  0.00  0.00    +0.097 C 
ATOM     32  O   UNL     1       3.508   0.910  23.377  0.00  0.00    -0.273 OA
ATOM     33  C   UNL     1       2.175   0.403  23.299  0.00  0.00    +0.038 A 
ATOM     34  C   UNL     1       1.439   0.269  23.650  0.00  0.00    +0.021 A 
ENDBRANCH  24  25
ENDBRANCH  23  24
ENDBRANCH  22  23
TORSDOF 7
ENDMDL
MODEL 2
REMARK VINA RESULT:      -8.7      1.441      2.233
REMARK  Name = 
REMARK  7 active torsions:
REMARK  status: ('A' for Active; 'I' for Inactive)
REMARK    1  A    between atoms: C_2  and  C_4
REMARK    2  A    between atoms: C_6  and  C_7
REMARK    3  A    between atoms: C_7  and  C_8
REMARK    4  A    between atoms: C_11  and  C_13
REMARK    5  A    between atoms: C_22  and  C_23
REMARK    6  A    between atoms: C_23  and  N_24
REMARK    7  A    between atoms: N_24  and  C_25
REMARK                            x       y       z     vdW  Elec       q    Type
REMARK                         _______ _______ _______ _____ _____    ______ ____
ROOT
ATOM      4  C   UNL     1      -2.251   2.259  23.800  0.00  0.00    +0.006 C 
ATOM      5  C   UNL     1      -2.748   2.816  24.150  0.00  0.00    +0.005 C 
ATOM      6  C   UNL     1      -2.515   3.198  24.843  0.00  0.00    +0.027 C 
ATOM     19  C   UNL     1      -1.785   3.023  25.186  0.00  0.00    -0.048 C 
ATOM     20  C   UNL     1      -1.552   3.406  25.879  0.00  0.00    +0.026 C 
ATOM     21  C   UNL     1      -1.288   2.465  24.834  0.00  0.00    -0.033 C 
ATOM     22  C   UNL     1      -1.521   2.083  24.141  0.00  0.00    +0.043 C 
ENDROOT
BRANCH   4   2
ATOM      1  C   UNL     1      -2.852   1.139  23.146  0.00  0.00    +0.000 C 
ATOM      2  C   UNL     1      -2.485   1.877  23.107  0.00  0.00    +0.000 C 
ATOM      3  C   UNL     1      -2.351   2.232  22.374  0.00  0.00    +0.000 C 
ENDBRANCH   4   2
BRANCH   6   7
ATOM      7  C   UNL     1      -3.012   3.756  25.194  0.00  0.00    +0.091 C 
BRANCH   7   8
ATOM      8  C   UNL     1      -3.823   3.615  25.240  0.00  0.00    +0.227 A 
ATOM      9  N   UNL     1      -4.413   4.041  24.852  0.00  0.00    -0.111 NA
ATOM     10  N   UNL     1      -5.141   3.712  25.054  0.00  0.00    -0.106 NA
ATOM     11  C   UNL     1      -5.002   3.082  25.568  0.00  0.00    +0.267 A 
ATOM     12  O   UNL     1      -4.188   3.022  25.684  0.00  0.00    -0.418 OA
BRANCH  11  13
ATOM     13  C   UNL     1      -5.578   2.598  25.908  0.00  0.00    +0.136 A 
ATOM     14  C   UNL     1      -5.828   2.619  26.693  0.00  0.00    +0.123 A 
ATOM     15  N   UNL     1      -6.408   2.041  26.792  0.00  0.00    -0.222 NA
ATOM     16  C   UNL     1      -6.517   1.663  26.066  0.00  0.00    +0.179 A 
ATOM     17  N   UNL     1      -6.004   2.007  25.520  0.00  0.00    -0.303 N 
ATOM     18  C   UNL     1      -5.929   1.797  24.725  0.00  0.00    +0.132 C 
ENDBRANCH  11  13
ENDBRANCH   7   8
ENDBRANCH   6   7
BRANCH  22  23
ATOM     23  C   UNL     1      -1.025   1.526  23.791  0.00  0.00    +0.117 C 
BRANCH  23  24
ATOM     24  N   UNL     1      -0.413   1.185  24.227  0.00  0.00    -0.236 NA
BRANCH  24  25
ATOM     25  C   UNL     1       0.256   0.895  23.843  0.00  0.00    +0.085 A 
ATOM     26  C   UNL     1       0.233   0.156  23.475  0.00  0.00    +0.116 A 
ATOM     27  N   UNL     1       0.902  -0.134  23.091  0.00  0.00    -0.226 NA
ATOM     28  C   UNL     1       1.595   0.313  23.074  0.00  0.00    +0.155 A 
ATOM     29  N   UNL     1       2.265   0.022  22.690  0.00  0.00    -0.160 NA
ATOM     30  C   UNL     1       2.958   0.470  22.673  0.00  0.00    +0.247 C 
ATOM     31  C   UNL     1       3.627   0.179  22.289  0.00  0.00    +0.097 C 
ATOM     32  O   UNL     1       2.981   1.208  23.040  0.00  0.00    -0.273 OA
ATOM     33  C   UNL     1       1.619   1.051  23.442  0.00  0.00    +0.038 A 
ATOM     34  C   UNL     1       0.949   1.342  23.826  0.00  0.00    +0.021 A 
ENDBRANCH  24  25
ENDBRANCH  23  24
ENDBRANCH  22  23
TORSDOF 7
ENDMDL
MODEL 3
REMARK VINA RESULT:      -7.8      1.278      6.686
REMARK  Name = 
REMARK  7 active torsions:
REMARK  status: ('A' for Active; 'I' for Inactive)
REMARK    1  A    between atoms: C_2  and  C_4
REMARK    2  A    between atoms: C_6  and  C_7
REMARK    3  A    between atoms: C_7  and  C_8
REMARK    4  A    between atoms: C_11  and  C_13
REMARK    5  A    between atoms: C_22  and  C_23
REMARK    6  A    between atoms: C_23  and  N_24
REMARK    7  A    between atoms: N_24  and  C_25
REMARK                            x       y       z     vdW  Elec       q    Type
REMARK                         _______ _______ _______ _____ _____    ______ ____
ROOT
ATOM      4  C   UNL     1      -0.394   1.391  24.282  0.00  0.00    +0.006 C 
ATOM      5  C   UNL     1       0.209   0.851  24.127  0.00  0.00    +0.005 C 
ATOM      6  C   UNL     1       0.024   0.075  23.916  0.00  0.00    +0.027 C 
ATOM     19  C   UNL     1      -0.765  -0.161  23.861  0.00  0.00    -0.048 C 
ATOM     20  C   UNL     1      -0.950  -0.936  23.651  0.00  0.00    +0.026 C 
ATOM     21  C   UNL     1      -1.369   0.381  24.017  0.00  0.00    -0.033 C 
ATOM     22  C   UNL     1      -1.184   1.156  24.228  0.00  0.00    +0.043 C 
ENDROOT
BRANCH   4   2
ATOM      1  C   UNL     1      -0.078   2.360  25.285  0.00  0.00    +0.000 C 
ATOM      2  C   UNL     1      -0.209   2.167  24.493  0.00  0.00    +0.000 C 
ATOM      3  C   UNL     1      -0.154   2.751  23.912  0.00  0.00    +0.000 C 
ENDBRANCH   4   2
BRANCH   6   7
ATOM      7  C   UNL     1       0.627  -0.466  23.760  0.00  0.00    +0.091 C 
BRANCH   7   8
ATOM      8  C   UNL     1       1.256  -0.252  23.271  0.00  0.00    +0.227 A 
ATOM      9  N   UNL     1       1.246  -0.239  22.446  0.00  0.00    -0.111 NA
ATOM     10  N   UNL     1       1.989   0.006  22.186  0.00  0.00    -0.106 NA
ATOM     11  C   UNL     1       2.459   0.145  22.850  0.00  0.00    +0.267 A 
ATOM     12  O   UNL     1       2.006  -0.015  23.520  0.00  0.00    -0.418 OA
BRANCH  11  13
ATOM     13  C   UNL     1       3.244   0.399  22.844  0.00  0.00    +0.136 A 
ATOM     14  C   UNL     1       3.509   1.148  22.624  0.00  0.00    +0.123 A 
ATOM     15  N   UNL     1       4.330   1.161  22.700  0.00  0.00    -0.222 NA
ATOM     16  C   UNL     1       4.573   0.418  22.968  0.00  0.00    +0.179 A 
ATOM     17  N   UNL     1       3.901  -0.052  23.056  0.00  0.00    -0.303 N 
ATOM     18  C   UNL     1       3.889  -0.836  23.312  0.00  0.00    +0.132 C 
ENDBRANCH  11  13
ENDBRANCH   7   8
ENDBRANCH   6   7
BRANCH  22  23
ATOM     23  C   UNL     1      -1.787   1.696  24.383  0.00  0.00    +0.117 C 
BRANCH  23  24
ATOM     24  N   UNL     1      -2.569   1.504  24.206  0.00  0.00    -0.236 NA
BRANCH  24  25
ATOM     25  C   UNL     1      -3.173   2.042  24.367  0.00  0.00    +0.085 A 
ATOM     26  C   UNL     1      -3.360   2.631  23.820  0.00  0.00    +0.116 A 
ATOM     27  N   UNL     1      -3.964   3.168  23.982  0.00  0.00    -0.226 NA
ATOM     28  C   UNL     1      -4.382   3.117  24.691  0.00  0.00    +0.155 A 
ATOM     29  N   UNL     1      -4.987   3.655  24.854  0.00  0.00    -0.160 NA
ATOM     30  C   UNL     1      -5.405   3.604  25.563  0.00  0.00    +0.247 C 
ATOM     31  C   UNL     1      -6.009   4.141  25.725  0.00  0.00    +0.097 C 
ATOM     32  O   UNL     1      -5.219   3.015  26.110  0.00  0.00    -0.273 OA
ATOM     33  C   UNL     1      -4.197   2.529  25.239  0.00  0.00    +0.038 A 
ATOM     34  C   UNL     1      -3.592   1.991  25.077  0.00  0.00    +0.021 A 
ENDBRANCH  24  25
ENDBRANCH  23  24
ENDBRANCH  22  23
TORSDOF 7
ENDMDL
MODEL 4
REMARK VINA RESULT:      -7.4      1.492      2.570
REMARK  Name = 
REMARK  7 active torsions:
REMARK  status: ('A' for Active; 'I' for Inactive)
REMARK    1  A    between atoms: C_2  and  C_4
REMARK    2  A    between atoms: C_6  and  C_7
REMARK    3  A    between atoms: C_7  and  C_8
REMARK    4  A    between atoms: C_11  and  C_13
REMARK    5  A    between atoms: C_22  and  C_23
REMARK    6  A    between atoms: C_23  and  N_24
REMARK    7  A    between atoms: N_24  and  C_25
REMARK                            x       y       z     vdW  Elec       q    Type
REMARK                         _______ _______ _______ _____ _____    ______ ____
ROOT
ATOM      4  C   UNL     1      -1.118   1.116  24.696  0.00  0.00    +0.006 C 
ATOM      5  C   UNL     1      -1.939   1.162  24.753  0.00  0.00    +0.005 C 
ATOM      6  C   UNL     1      -2.390   1.327  24.082  0.00  0.00    +0.027 C 
ATOM     19  C   UNL     1      -2.020   1.445  23.355  0.00  0.00    -0.048 C 
ATOM     20  C   UNL     1      -2.471   1.610  22.684  0.00  0.00    +0.026 C 
ATOM     21  C   UNL     1      -1.198   1.399  23.298  0.00  0.00    -0.033 C 
ATOM     22  C   UNL     1      -0.746   1.234  23.969  0.00  0.00    +0.043 C 
ENDROOT
BRANCH   4   2
ATOM      1  C   UNL     1      -0.543   0.169  25.600  0.00  0.00    +0.000 C 
ATOM      2  C   UNL     1      -0.666   0.951  25.367  0.00  0.00    +0.000 C 
ATOM      3  C   UNL     1      -0.338   1.568  25.805  0.00  0.00    +0.000 C 
ENDBRANCH   4   2
BRANCH   6   7
ATOM      7  C   UNL     1      -3.212   1.373  24.139  0.00  0.00    +0.091 C 
BRANCH   7   8
ATOM      8  C   UNL     1      -3.651   0.703  24.338  0.00  0.00    +0.227 A 
ATOM      9  N   UNL     1      -4.306   0.683  24.838  0.00  0.00    -0.111 NA
ATOM     10  N   UNL     1      -4.571  -0.096  24.881  0.00  0.00    -0.106 NA
ATOM     11  C   UNL     1      -4.078  -0.559  24.407  0.00  0.00    +0.267 A 
ATOM     12  O   UNL     1      -3.510  -0.065  24.072  0.00  0.00    -0.418 OA
BRANCH  11  13
ATOM     13  C   UNL     1      -4.144  -1.373  24.290  0.00  0.00    +0.136 A 
ATOM     14  C   UNL     1      -4.511  -1.743  23.651  0.00  0.00    +0.123 A 
ATOM     15  N   UNL     1      -4.448  -2.558  23.757  0.00  0.00    -0.222 NA
ATOM     16  C   UNL     1      -4.041  -2.693  24.463  0.00  0.00    +0.179 A 
ATOM     17  N   UNL     1      -3.854  -1.960  24.792  0.00  0.00    -0.303 N 
ATOM     18  C   UNL     1      -3.447  -1.836  25.500  0.00  0.00    +0.132 C 
ENDBRANCH  11  13
ENDBRANCH   7   8
ENDBRANCH   6   7
BRANCH  22  23
ATOM     23  C   UNL     1       0.075   1.188  23.912  0.00  0.00    +0.117 C 
BRANCH  23  24
ATOM     24  N   UNL     1       0.439   1.194  23.171  0.00  0.00    -0.236 NA
BRANCH  24  25
ATOM     25  C   UNL     1       1.205   0.903  23.085  0.00  0.00    +0.085 A 
ATOM     26  C   UNL     1       1.327   0.139  22.798  0.00  0.00    +0.116 A 
ATOM     27  N   UNL     1       2.093  -0.152  22.712  0.00  0.00    -0.226 NA
ATOM     28  C   UNL     1       2.739   0.320  22.913  0.00  0.00    +0.155 A 
ATOM     29  N   UNL     1       3.507   0.029  22.827  0.00  0.00    -0.160 NA
ATOM     30  C   UNL     1       4.153   0.501  23.028  0.00  0.00    +0.247 C 
ATOM     31  C   UNL     1       4.919   0.210  22.942  0.00  0.00    +0.097 C 
ATOM     32  O   UNL     1       4.031   1.265  23.315  0.00  0.00    -0.273 OA
ATOM     33  C   UNL     1       2.619   1.084  23.200  0.00  0.00    +0.038 A 
ATOM     34  C   UNL     1       1.851   1.376  23.286  0.00  0.00    +0.021 A 
ENDBRANCH  24  25
ENDBRANCH  23  24
ENDBRANCH  22  23
TORSDOF 7
ENDMDL
