MODEL 1
REMARK VINA RESULT:     -11.2      0.000      0.000
REMARK  Name = 
REMARK  8 active torsions:
REMARK  status: ('A' for Active; 'I' for Inactive)
REMARK    1  A    between atoms: C_8  and  N_9
REMARK    2  A    between atoms: C_10  and  C_12
REMARK    3  A    between atoms: C_15  and  O_16
REMARK    4  A    between atoms: O_16  and  C_17
REMARK    5  A    between atoms: C_17  and  C_18
REMARK    6  A    between atoms: C_18  and  N_19
REMARK    7  A    between atoms: N_29  and  C_30
REMARK    8  A    between atoms: C_32  and  C_36
REMARK                            x       y       z     vdW  Elec       q    Type
REMARK                         _______ _______ _______ _____ _____    ______ ____
ROOT
ATOM      1  O   UNL     1      -1.614  -2.083  24.828  0.00  0.00    -0.221 OA
ATOM      2  C   UNL     1      -2.247  -1.569  24.956  0.00  0.00    +0.174 C 
ATOM      3  C   UNL     1      -2.863  -1.866  25.418  0.00  0.00    +0.037 C 
ATOM      4  C   UNL     1      -3.563  -1.493  25.642  0.00  0.00    +0.024 C 
ATOM      5  C   UNL     1      -3.822  -0.732  25.460  0.00  0.00    +0.095 C 
ATOM      6  N   UNL     1      -3.444  -0.154  25.009  0.00  0.00    -0.261 N 
ATOM      7  C   UNL     1      -2.714  -0.196  24.628  0.00  0.00    +0.119 C 
ATOM      8  C   UNL     1      -2.181  -0.826  24.604  0.00  0.00    +0.146 C 
ATOM     27  C   UNL     1      -3.850   0.560  24.928  0.00  0.00    +0.328 C 
ATOM     28  O   UNL     1      -3.520   1.174  24.487  0.00  0.00    -0.250 OA
ATOM     29  N   UNL     1      -4.586   0.659  25.287  0.00  0.00    -0.162 NA
ENDROOT
BRANCH  29  30
ATOM     30  C   UNL     1      -4.991   1.373  25.206  0.00  0.00    +0.075 A 
ATOM     31  C   UNL     1      -4.666   2.068  25.511  0.00  0.00    +0.021 A 
ATOM     32  C   UNL     1      -5.072   2.782  25.429  0.00  0.00    +0.073 A 
ATOM     33  C   UNL     1      -5.801   2.802  25.044  0.00  0.00    +0.004 A 
ATOM     34  C   UNL     1      -6.125   2.106  24.739  0.00  0.00    +0.001 A 
ATOM     35  C   UNL     1      -5.719   1.392  24.820  0.00  0.00    +0.017 A 
BRANCH  32  36
ATOM     36  C   UNL     1      -4.748   3.477  25.734  0.00  0.00    +0.419 C 
ATOM     37  F   UNL     1      -4.424   4.172  26.039  0.00  0.00    -0.166 F 
ATOM     38  F   UNL     1      -4.891   3.208  26.500  0.00  0.00    -0.166 F 
ATOM     39  F   UNL     1      -4.605   3.747  24.967  0.00  0.00    -0.166 F 
ENDBRANCH  32  36
ENDBRANCH  29  30
BRANCH   8   9
ATOM      9  N   UNL     1      -1.491  -0.695  24.171  0.00  0.00    -0.199 NA
ATOM     10  C   UNL     1      -0.914  -0.182  24.460  0.00  0.00    +0.265 C 
ATOM     11  O   UNL     1      -1.027   0.201  25.182  0.00  0.00    -0.268 OA
BRANCH  10  12
ATOM     12  C   UNL     1      -0.223  -0.051  24.027  0.00  0.00    +0.055 A 
ATOM     13  C   UNL     1       0.135  -0.674  23.625  0.00  0.00    +0.008 A 
ATOM     14  C   UNL     1       0.825  -0.543  23.192  0.00  0.00    +0.037 A 
ATOM     15  C   UNL     1       1.157   0.211  23.162  0.00  0.00    +0.139 A 
ATOM     25  C   UNL     1       0.797   0.835  23.565  0.00  0.00    +0.037 A 
ATOM     26  C   UNL     1       0.107   0.704  23.998  0.00  0.00    +0.008 A 
BRANCH  15  16
ATOM     16  O   UNL     1       1.847   0.342  22.729  0.00  0.00    -0.474 OA
BRANCH  16  17
ATOM     17  C   UNL     1       2.581   0.173  23.064  0.00  0.00    +0.223 C 
BRANCH  17  18
ATOM     18  C   UNL     1       3.270   0.281  22.622  0.00  0.00    +0.120 C 
BRANCH  18  19
ATOM     19  N   UNL     1       4.008   0.182  22.978  0.00  0.00    -0.265 NA
ATOM     20  C   UNL     1       4.230  -0.558  23.269  0.00  0.00    +0.105 C 
ATOM     21  C   UNL     1       4.967  -0.656  23.625  0.00  0.00    +0.159 C 
ATOM     22  O   UNL     1       5.484  -0.016  23.690  0.00  0.00    -0.351 OA
ATOM     23  C   UNL     1       5.262   0.724  23.398  0.00  0.00    +0.159 C 
ATOM     24  C   UNL     1       4.524   0.823  23.042  0.00  0.00    +0.105 C 
ENDBRANCH  18  19
ENDBRANCH  17  18
ENDBRANCH  16  17
ENDBRANCH  15  16
ENDBRANCH  10  12
ENDBRANCH   8   9
TORSDOF 8
ENDMDL
MODEL 2
REMARK VINA RESULT:      -9.9      2.036      2.830
REMARK  Name = 
REMARK  8 active torsions:
REMARK  status: ('A' for Active; 'I' for Inactive)
REMARK    1  A    between atoms: C_8  and  N_9
REMARK    2  A    between atoms: C_10  and  C_12
REMARK    3  A    between atoms: C_15  and  O_16
REMARK    4  A    between atoms: O_16  and  C_17
REMARK    5  A    between atoms: C_17  and  C_18
REMARK    6  A    between atoms: C_18  and  N_19
REMARK    7  A    between atoms: N_29  and  C_30
REMARK    8  A    between atoms: C_32  and  C_36
REMARK                            x       y       z     vdW  Elec       q    Type
REMARK                         _______ _______ _______ _____ _____    ______ ____
ROOT
ATOM      1  O   UNL     1      -0.203   4.132  24.738  0.00  0.00    -0.221 OA
ATOM      2  C   UNL     1      -1.004   3.984  24.872  0.00  0.00    +0.174 C 
ATOM      3  C   UNL     1      -1.414   4.571  25.280  0.00  0.00    +0.037 C 
ATOM      4  C   UNL     1      -2.209   4.588  25.497  0.00  0.00    +0.024 C 
ATOM      5  C   UNL     1      -2.792   4.020  25.360  0.00  0.00    +0.095 C 
ATOM      6  N   UNL     1      -2.722   3.295  24.971  0.00  0.00    -0.261 N 
ATOM      7  C   UNL     1      -2.053   2.960  24.625  0.00  0.00    +0.119 C 
ATOM      8  C   UNL     1      -1.288   3.267  24.580  0.00  0.00    +0.146 C 
ATOM     27  C   UNL     1      -3.413   2.847  24.924  0.00  0.00    +0.328 C 
ATOM     28  O   UNL     1      -3.404   2.113  24.546  0.00  0.00    -0.250 OA
ATOM     29  N   UNL     1      -4.114   3.132  25.253  0.00  0.00    -0.162 NA
ENDROOT
BRANCH  29  30
ATOM     30  C   UNL     1      -4.804   2.684  25.205  0.00  0.00    +0.075 A 
ATOM     31  C   UNL     1      -5.185   2.439  25.895  0.00  0.00    +0.021 A 
ATOM     32  C   UNL     1      -5.876   1.990  25.847  0.00  0.00    +0.073 A 
ATOM     33  C   UNL     1      -6.186   1.786  25.110  0.00  0.00    +0.004 A 
ATOM     34  C   UNL     1      -5.804   2.031  24.420  0.00  0.00    +0.001 A 
ATOM     35  C   UNL     1      -5.113   2.480  24.469  0.00  0.00    +0.017 A 
BRANCH  32  36
ATOM     36  C   UNL     1      -6.257   1.745  26.537  0.00  0.00    +0.419 C 
ATOM     37  F   UNL     1      -6.638   1.500  27.226  0.00  0.00    -0.166 F 
ATOM     38  F   UNL     1      -5.972   0.980  26.423  0.00  0.00    -0.166 F 
ATOM     39  F   UNL     1      -6.544   2.511  26.650  0.00  0.00    -0.166 F 
ENDBRANCH  32  36
ENDBRANCH  29  30
BRANCH   8   9
ATOM      9  N   UNL     1      -0.735   2.793  24.193  0.00  0.00    -0.199 NA
ATOM     10  C   UNL     1      -0.467   2.097  24.546  0.00  0.00    +0.265 C 
ATOM     11  O   UNL     1      -0.754   1.876  25.288  0.00  0.00    -0.268 OA
BRANCH  10  12
ATOM     12  C   UNL     1       0.086   1.624  24.159  0.00  0.00    +0.055 A 
ATOM     13  C   UNL     1      -0.135   0.884  23.871  0.00  0.00    +0.008 A 
ATOM     14  C   UNL     1       0.419   0.410  23.483  0.00  0.00    +0.037 A 
ATOM     15  C   UNL     1       1.193   0.676  23.385  0.00  0.00    +0.139 A 
ATOM     25  C   UNL     1       1.414   1.417  23.674  0.00  0.00    +0.037 A 
ATOM     26  C   UNL     1       0.860   1.890  24.061  0.00  0.00    +0.008 A 
BRANCH  15  16
ATOM     16  O   UNL     1       1.747   0.203  22.997  0.00  0.00    -0.474 OA
BRANCH  16  17
ATOM     17  C   UNL     1       2.553   0.335  23.109  0.00  0.00    +0.223 C 
BRANCH  17  18
ATOM     18  C   UNL     1       3.106  -0.168  22.760  0.00  0.00    +0.120 C 
BRANCH  18  19
ATOM     19  N   UNL     1       3.872  -0.213  23.063  0.00  0.00    -0.265 NA
ATOM     20  C   UNL     1       4.407   0.400  22.927  0.00  0.00    +0.105 C 
ATOM     21  C   UNL     1       5.172   0.355  23.230  0.00  0.00    +0.159 C 
ATOM     22  O   UNL     1       5.404  -0.304  23.669  0.00  0.00    -0.351 OA
ATOM     23  C   UNL     1       4.870  -0.918  23.805  0.00  0.00    +0.159 C 
ATOM     24  C   UNL     1       4.103  -0.872  23.502  0.00  0.00    +0.105 C 
ENDBRANCH  18  19
ENDBRANCH  17  18
ENDBRANCH  16  17
ENDBRANCH  15  16
ENDBRANCH  10  12
ENDBRANCH   8   9
TORSDOF 8
ENDMDL
MODEL 3
REMARK VINA RESULT:      -8.5      2.306      3.447
REMARK  Name = 
REMARK  8 active torsions:
REMARK  status: ('A' for Active; 'I' for Inactive)
REMARK    1  A    between atoms: C_8  and  N_9
REMARK    2  A    between atoms: C_10  and  C_12
REMARK    3  A    between atoms: C_15  and  O_16
REMARK    4  A    between atoms: O_16  and  C_17
REMARK    5  A    between atoms: C_17  and  C_18
REMARK    6  A    between atoms: C_18  and  N_19
REMARK    7  A    between atoms: N_29  and  C_30
REMARK    8  A    between atoms: C_32  and  C_36
REMARK                            x       y       z     vdW  Elec       q    Type
REMARK                         _______ _______ _______ _____ _____    ______ ____
ROOT
ATOM      1  O   UNL     1      -0.389   2.828  24.418  0.00  0.00    -0.221 OA
ATOM      2  C   UNL     1      -0.960   2.253  24.572  0.00  0.00    +0.174 C 
ATOM      3  C   UNL     1      -1.691   2.534  24.830  0.00  0.00    +0.037 C 
ATOM      4  C   UNL     1      -2.367   2.104  25.028  0.00  0.00    +0.024 C 
ATOM      5  C   UNL     1      -2.479   1.287  25.015  0.00  0.00    +0.095 C 
ATOM      6  N   UNL     1      -1.943   0.698  24.802  0.00  0.00    -0.261 N 
ATOM      7  C   UNL     1      -1.162   0.780  24.549  0.00  0.00    +0.119 C 
ATOM      8  C   UNL     1      -0.725   1.472  24.446  0.00  0.00    +0.146 C 
ATOM     27  C   UNL     1      -2.225  -0.077  24.848  0.00  0.00    +0.328 C 
ATOM     28  O   UNL     1      -1.733  -0.707  24.647  0.00  0.00    -0.250 OA
ATOM     29  N   UNL     1      -2.999  -0.220  25.096  0.00  0.00    -0.162 NA
ENDROOT
BRANCH  29  30
ATOM     30  C   UNL     1      -3.280  -0.993  25.141  0.00  0.00    +0.075 A 
ATOM     31  C   UNL     1      -3.656  -1.335  24.490  0.00  0.00    +0.021 A 
ATOM     32  C   UNL     1      -3.937  -2.109  24.537  0.00  0.00    +0.073 A 
ATOM     33  C   UNL     1      -3.844  -2.542  25.232  0.00  0.00    +0.004 A 
ATOM     34  C   UNL     1      -3.468  -2.201  25.883  0.00  0.00    +0.001 A 
ATOM     35  C   UNL     1      -3.186  -1.426  25.837  0.00  0.00    +0.017 A 
BRANCH  32  36
ATOM     36  C   UNL     1      -4.313  -2.450  23.885  0.00  0.00    +0.419 C 
ATOM     37  F   UNL     1      -4.688  -2.791  23.235  0.00  0.00    -0.166 F 
ATOM     38  F   UNL     1      -4.858  -1.832  23.876  0.00  0.00    -0.166 F 
ATOM     39  F   UNL     1      -3.766  -3.069  23.895  0.00  0.00    -0.166 F 
ENDBRANCH  32  36
ENDBRANCH  29  30
BRANCH   8   9
ATOM      9  N   UNL     1       0.051   1.370  24.184  0.00  0.00    -0.199 NA
ATOM     10  C   UNL     1       0.198   0.970  23.477  0.00  0.00    +0.265 C 
ATOM     11  O   UNL     1      -0.431   0.673  23.034  0.00  0.00    -0.268 OA
BRANCH  10  12
ATOM     12  C   UNL     1       0.973   0.868  23.214  0.00  0.00    +0.055 A 
ATOM     13  C   UNL     1       1.555   1.413  23.424  0.00  0.00    +0.008 A 
ATOM     14  C   UNL     1       2.330   1.311  23.162  0.00  0.00    +0.037 A 
ATOM     15  C   UNL     1       2.524   0.663  22.689  0.00  0.00    +0.139 A 
ATOM     25  C   UNL     1       1.942   0.118  22.480  0.00  0.00    +0.037 A 
ATOM     26  C   UNL     1       1.166   0.221  22.742  0.00  0.00    +0.008 A 
BRANCH  15  16
ATOM     16  O   UNL     1       3.299   0.561  22.426  0.00  0.00    -0.474 OA
BRANCH  16  17
ATOM     17  C   UNL     1       3.923   0.585  22.965  0.00  0.00    +0.223 C 
BRANCH  17  18
ATOM     18  C   UNL     1       4.630   0.195  22.794  0.00  0.00    +0.120 C 
BRANCH  18  19
ATOM     19  N   UNL     1       5.099  -0.096  23.408  0.00  0.00    -0.265 NA
ATOM     20  C   UNL     1       5.034  -0.885  23.639  0.00  0.00    +0.105 C 
ATOM     21  C   UNL     1       5.502  -1.176  24.251  0.00  0.00    +0.159 C 
ATOM     22  O   UNL     1       6.037  -0.678  24.635  0.00  0.00    -0.351 OA
ATOM     23  C   UNL     1       6.102   0.112  24.404  0.00  0.00    +0.159 C 
ATOM     24  C   UNL     1       5.633   0.403  23.791  0.00  0.00    +0.105 C 
ENDBRANCH  18  19
ENDBRANCH  17  18
ENDBRANCH  16  17
ENDBRANCH  15  16
ENDBRANCH  10  12
ENDBRANCH   8   9
TORSDOF 8
ENDMDL
MODEL 4
REMARK VINA RESULT:      -7.2     15.704     17.092
REMARK  Name = 
REMARK  8 active torsions:
REMARK  status: ('A' for Active; 'I' for Inactive)
REMARK    1  A    between atoms: C_8  and  N_9
REMARK    2  A    between atoms: C_10  and  C_12
REMARK    3  A    between atoms: C_15  and  O_16
REMARK    4  A    between atoms: O_16  and  C_17
REMARK    5  A    between atoms: C_17  and  C_18
REMARK    6  A    between atoms: C_18  and  N_19
REMARK    7  A    between atoms: N_29  and  C_30
REMARK    8  A    between atoms: C_32  and  C_36
REMARK                            x       y       z     vdW  Elec       q    Type
REMARK                         _______ _______ _______ _____ _____    ______ ____
ROOT
ATOM      1  O   UNL     1      -3.232 -10.551  11.618  0.00  0.00    -0.221 OA
ATOM      2  C   UNL     1      -3.471 -10.547  12.408  0.00  0.00    +0.174 C 
ATOM      3  C   UNL     1      -2.888 -10.736  12.960  0.00  0.00    +0.037 C 
ATOM      4  C   UNL     1      -2.951 -10.779  13.781  0.00  0.00    +0.024 C 
ATOM      5  C   UNL     1      -3.614 -10.643  14.253  0.00  0.00    +0.095 C 
ATOM      6  N   UNL     1      -4.376 -10.431  14.021  0.00  0.00    -0.261 N 
ATOM      7  C   UNL     1      -4.665 -10.302  13.259  0.00  0.00    +0.119 C 
ATOM      8  C   UNL     1      -4.261 -10.353  12.541  0.00  0.00    +0.146 C 
ATOM     27  C   UNL     1      -4.923 -10.334  14.632  0.00  0.00    +0.328 C 
ATOM     28  O   UNL     1      -5.701 -10.122  14.459  0.00  0.00    -0.250 OA
ATOM     29  N   UNL     1      -4.691 -10.450  15.415  0.00  0.00    -0.162 NA
ENDROOT
BRANCH  29  30
ATOM     30  C   UNL     1      -5.238 -10.354  16.025  0.00  0.00    +0.075 A 
ATOM     31  C   UNL     1      -5.014 -10.502  16.805  0.00  0.00    +0.021 A 
ATOM     32  C   UNL     1      -5.562 -10.406  17.416  0.00  0.00    +0.073 A 
ATOM     33  C   UNL     1      -6.331 -10.162  17.246  0.00  0.00    +0.004 A 
ATOM     34  C   UNL     1      -6.554 -10.014  16.466  0.00  0.00    +0.001 A 
ATOM     35  C   UNL     1      -6.007 -10.110  15.855  0.00  0.00    +0.017 A 
BRANCH  32  36
ATOM     36  C   UNL     1      -5.338 -10.554  18.197  0.00  0.00    +0.419 C 
ATOM     37  F   UNL     1      -5.115 -10.702  18.977  0.00  0.00    -0.166 F 
ATOM     38  F   UNL     1      -6.111 -10.781  18.374  0.00  0.00    -0.166 F 
ATOM     39  F   UNL     1      -4.565 -10.327  18.018  0.00  0.00    -0.166 F 
ENDBRANCH  32  36
ENDBRANCH  29  30
BRANCH   8   9
ATOM      9  N   UNL     1      -4.708 -10.190  11.867  0.00  0.00    -0.199 NA
ATOM     10  C   UNL     1      -4.928  -9.414  11.695  0.00  0.00    +0.265 C 
ATOM     11  O   UNL     1      -4.700  -8.801  12.198  0.00  0.00    -0.268 OA
BRANCH  10  12
ATOM     12  C   UNL     1      -5.375  -9.250  11.021  0.00  0.00    +0.055 A 
ATOM     13  C   UNL     1      -6.183  -9.412  11.014  0.00  0.00    +0.008 A 
ATOM     14  C   UNL     1      -6.630  -9.249  10.340  0.00  0.00    +0.037 A 
ATOM     15  C   UNL     1      -6.269  -8.923   9.673  0.00  0.00    +0.139 A 
ATOM     25  C   UNL     1      -5.460  -8.762   9.682  0.00  0.00    +0.037 A 
ATOM     26  C   UNL     1      -5.013  -8.925  10.355  0.00  0.00    +0.008 A 
BRANCH  15  16
ATOM     16  O   UNL     1      -6.715  -8.760   8.999  0.00  0.00    -0.474 OA
BRANCH  16  17
ATOM     17  C   UNL     1      -7.278  -8.158   9.014  0.00  0.00    +0.223 C 
BRANCH  17  18
ATOM     18  C   UNL     1      -7.706  -7.976   8.332  0.00  0.00    +0.120 C 
BRANCH  18  19
ATOM     19  N   UNL     1      -8.322  -7.427   8.365  0.00  0.00    -0.265 NA
ATOM     20  C   UNL     1      -8.162  -6.622   8.280  0.00  0.00    +0.105 C 
ATOM     21  C   UNL     1      -8.776  -6.074   8.312  0.00  0.00    +0.159 C 
ATOM     22  O   UNL     1      -9.552  -6.330   8.431  0.00  0.00    -0.351 OA
ATOM     23  C   UNL     1      -9.712  -7.135   8.516  0.00  0.00    +0.159 C 
ATOM     24  C   UNL     1      -9.096  -7.684   8.483  0.00  0.00    +0.105 C 
ENDBRANCH  18  19
ENDBRANCH  17  18
ENDBRANCH  16  17
ENDBRANCH  15  16
ENDBRANCH  10  12
ENDBRANCH   8   9
TORSDOF 8
ENDMDL
