MODEL 1
REMARK VINA RESULT:     -11.4      0.000      0.000
REMARK  Name = 
REMARK  6 active torsions:
REMARK  status: ('A' for Active; 'I' for Inactive)
REMARK    1  A    between atoms: O_2  and  C_3
REMARK    2  A    between atoms: C_8  and  C_9
REMARK    3  A    between atoms: C_9  and  N_10
REMARK    4  A    between atoms: C_14  and  C_15
REMARK    5  A    between atoms: C_17  and  C_20
REMARK    6  A    between atoms: C_23  and  N_26
REMARK                            x       y       z     vdW  Elec       q    Type
REMARK                         _______ _______ _______ _____ _____    ______ ____
ROOT
ATOM     10  N   UNL     1      -3.332   3.163  25.270  0.00  0.00    -0.263 NA
ATOM     11  C   UNL     1      -3.689   3.807  25.640  0.00  0.00    +0.073 C 
ATOM     12  C   UNL     1      -4.506   3.732  25.550  0.00  0.00    +0.019 C 
ATOM     13  C   UNL     1      -4.652   3.040  25.124  0.00  0.00    +0.027 C 
ATOM     14  C   UNL     1      -3.926   2.689  24.951  0.00  0.00    +0.138 C 
ENDROOT
BRANCH  14  15
ATOM     15  C   UNL     1      -3.815   1.987  24.533  0.00  0.00    +0.251 A 
ATOM     16  N   UNL     1      -3.826   1.225  24.852  0.00  0.00    -0.190 NA
ATOM     17  C   UNL     1      -3.691   0.691  24.239  0.00  0.00    +0.205 A 
ATOM     18  N   UNL     1      -3.596   1.121  23.542  0.00  0.00    -0.056 NA
ATOM     19  O   UNL     1      -3.672   1.921  23.724  0.00  0.00    -0.336 OA
BRANCH  17  20
ATOM     20  C   UNL     1      -3.657  -0.131  24.310  0.00  0.00    +0.058 A 
ATOM     21  C   UNL     1      -4.312  -0.590  24.107  0.00  0.00    +0.008 A 
ATOM     22  C   UNL     1      -4.277  -1.411  24.179  0.00  0.00    +0.034 A 
ATOM     23  C   UNL     1      -3.589  -1.773  24.453  0.00  0.00    +0.132 A 
ATOM     24  N   UNL     1      -2.934  -1.314  24.657  0.00  0.00    -0.229 NA
ATOM     25  C   UNL     1      -2.968  -0.493  24.585  0.00  0.00    +0.103 A 
BRANCH  23  26
ATOM     26  N   UNL     1      -3.555  -2.595  24.525  0.00  0.00    -0.290 N 
ATOM     27  C   UNL     1      -3.803  -3.073  23.901  0.00  0.00    +0.114 C 
ATOM     28  C   UNL     1      -3.273  -2.937  25.221  0.00  0.00    +0.114 C 
ENDBRANCH  23  26
ENDBRANCH  17  20
ENDBRANCH  14  15
BRANCH  10   9
ATOM      9  C   UNL     1      -2.521   3.018  25.226  0.00  0.00    +0.103 C 
BRANCH   9   8
ATOM      3  C   UNL     1      -1.196   3.529  25.391  0.00  0.00    +0.136 A 
ATOM      4  C   UNL     1      -0.665   4.160  25.365  0.00  0.00    +0.037 A 
ATOM      5  C   UNL     1      -0.927   4.911  25.146  0.00  0.00    +0.003 A 
ATOM      6  C   UNL     1      -1.721   5.031  24.954  0.00  0.00    -0.000 A 
ATOM      7  C   UNL     1      -2.252   4.400  24.981  0.00  0.00    +0.000 A 
ATOM      8  C   UNL     1      -1.989   3.649  25.199  0.00  0.00    +0.028 A 
BRANCH   3   2
ATOM      1  C   UNL     1      -0.147   2.663  25.831  0.00  0.00    +0.252 C 
ATOM      2  O   UNL     1      -0.934   2.777  25.610  0.00  0.00    -0.472 OA
ENDBRANCH   3   2
ENDBRANCH   9   8
ENDBRANCH  10   9
TORSDOF 6
ENDMDL
MODEL 2
REMARK VINA RESULT:     -10.7      1.310      2.378
REMARK  Name = 
REMARK  6 active torsions:
REMARK  status: ('A' for Active; 'I' for Inactive)
REMARK    1  A    between atoms: O_2  and  C_3
REMARK    2  A    between atoms: C_8  and  C_9
REMARK    3  A    between atoms: C_9  and  N_10
REMARK    4  A    between atoms: C_14  and  C_15
REMARK    5  A    between atoms: C_17  and  C_20
REMARK    6  A    between atoms: C_23  and  N_26
REMARK                            x       y       z     vdW  Elec       q    Type
REMARK                         _______ _______ _______ _____ _____    ______ ____
ROOT
ATOM     10  N   UNL     1      -0.858   2.604  25.620  0.00  0.00    -0.263 NA
ATOM     11  C   UNL     1      -0.388   2.991  26.176  0.00  0.00    +0.073 C 
ATOM     12  C   UNL     1       0.184   2.458  26.441  0.00  0.00    +0.019 C 
ATOM     13  C   UNL     1       0.067   1.742  26.047  0.00  0.00    +0.027 C 
ATOM     14  C   UNL     1      -0.578   1.833  25.540  0.00  0.00    +0.138 C 
ENDROOT
BRANCH  14  15
ATOM     15  C   UNL     1      -0.887   1.254  25.040  0.00  0.00    +0.251 A 
ATOM     16  N   UNL     1      -1.426   0.667  25.253  0.00  0.00    -0.190 NA
ATOM     17  C   UNL     1      -1.584   0.211  24.585  0.00  0.00    +0.205 A 
ATOM     18  N   UNL     1      -1.142   0.515  23.959  0.00  0.00    -0.056 NA
ATOM     19  O   UNL     1      -0.712   1.159  24.240  0.00  0.00    -0.336 OA
BRANCH  17  20
ATOM     20  C   UNL     1      -2.094  -0.437  24.549  0.00  0.00    +0.058 A 
ATOM     21  C   UNL     1      -2.908  -0.318  24.485  0.00  0.00    +0.008 A 
ATOM     22  C   UNL     1      -3.418  -0.965  24.449  0.00  0.00    +0.034 A 
ATOM     23  C   UNL     1      -3.114  -1.732  24.477  0.00  0.00    +0.132 A 
ATOM     24  N   UNL     1      -2.300  -1.851  24.541  0.00  0.00    -0.229 NA
ATOM     25  C   UNL     1      -1.790  -1.203  24.577  0.00  0.00    +0.103 A 
BRANCH  23  26
ATOM     26  N   UNL     1      -3.624  -2.380  24.441  0.00  0.00    -0.290 N 
ATOM     27  C   UNL     1      -3.506  -3.025  24.941  0.00  0.00    +0.114 C 
ATOM     28  C   UNL     1      -4.252  -2.381  23.906  0.00  0.00    +0.114 C 
ENDBRANCH  23  26
ENDBRANCH  17  20
ENDBRANCH  14  15
BRANCH  10   9
ATOM      9  C   UNL     1      -1.497   2.932  25.214  0.00  0.00    +0.103 C 
BRANCH   9   8
ATOM      3  C   UNL     1      -2.346   4.071  25.376  0.00  0.00    +0.136 A 
ATOM      4  C   UNL     1      -2.453   4.889  25.367  0.00  0.00    +0.037 A 
ATOM      5  C   UNL     1      -1.820   5.386  25.189  0.00  0.00    +0.003 A 
ATOM      6  C   UNL     1      -1.079   5.066  25.019  0.00  0.00    -0.000 A 
ATOM      7  C   UNL     1      -0.971   4.248  25.027  0.00  0.00    +0.000 A 
ATOM      8  C   UNL     1      -1.605   3.750  25.206  0.00  0.00    +0.028 A 
BRANCH   3   2
ATOM      1  C   UNL     1      -3.747   3.875  25.582  0.00  0.00    +0.252 C 
ATOM      2  O   UNL     1      -2.979   3.572  25.554  0.00  0.00    -0.472 OA
ENDBRANCH   3   2
ENDBRANCH   9   8
ENDBRANCH  10   9
TORSDOF 6
ENDMDL
MODEL 3
REMARK VINA RESULT:     -10.2      1.741      5.683
REMARK  Name = 
REMARK  6 active torsions:
REMARK  status: ('A' for Active; 'I' for Inactive)
REMARK    1  A    between atoms: O_2  and  C_3
REMARK    2  A    between atoms: C_8  and  C_9
REMARK    3  A    between atoms: C_9  and  N_10
REMARK    4  A    between atoms: C_14  and  C_15
REMARK    5  A    between atoms: C_17  and  C_20
REMARK    6  A    between atoms: C_23  and  N_26
REMARK                            x       y       z     vdW  Elec       q    Type
REMARK                         _______ _______ _______ _____ _____    ______ ____
ROOT
ATOM     10  N   UNL     1      -1.625  -1.172  24.737  0.00  0.00    -0.263 NA
ATOM     11  C   UNL     1      -1.504  -1.906  25.094  0.00  0.00    +0.073 C 
ATOM     12  C   UNL     1      -0.747  -1.907  25.424  0.00  0.00    +0.019 C 
ATOM     13  C   UNL     1      -0.402  -1.173  25.271  0.00  0.00    +0.027 C 
ATOM     14  C   UNL     1      -0.946  -0.719  24.847  0.00  0.00    +0.138 C 
ENDROOT
BRANCH  14  15
ATOM     15  C   UNL     1      -0.829   0.052  24.579  0.00  0.00    +0.251 A 
ATOM     16  N   UNL     1      -1.087   0.740  24.954  0.00  0.00    -0.190 NA
ATOM     17  C   UNL     1      -0.851   1.384  24.496  0.00  0.00    +0.205 A 
ATOM     18  N   UNL     1      -0.447   1.094  23.838  0.00  0.00    -0.056 NA
ATOM     19  O   UNL     1      -0.433   0.272  23.889  0.00  0.00    -0.336 OA
BRANCH  17  20
ATOM     20  C   UNL     1      -0.995   2.179  24.666  0.00  0.00    +0.058 A 
ATOM     21  C   UNL     1      -0.490   2.589  25.173  0.00  0.00    +0.008 A 
ATOM     22  C   UNL     1      -0.633   3.384  25.343  0.00  0.00    +0.034 A 
ATOM     23  C   UNL     1      -1.281   3.767  25.006  0.00  0.00    +0.132 A 
ATOM     24  N   UNL     1      -1.786   3.357  24.499  0.00  0.00    -0.229 NA
ATOM     25  C   UNL     1      -1.642   2.562  24.329  0.00  0.00    +0.103 A 
BRANCH  23  26
ATOM     26  N   UNL     1      -1.424   4.562  25.176  0.00  0.00    -0.290 N 
ATOM     27  C   UNL     1      -2.117   4.782  25.566  0.00  0.00    +0.114 C 
ATOM     28  C   UNL     1      -0.874   5.137  24.957  0.00  0.00    +0.114 C 
ENDBRANCH  23  26
ENDBRANCH  17  20
ENDBRANCH  14  15
BRANCH  10   9
ATOM      9  C   UNL     1      -2.308  -0.934  24.341  0.00  0.00    +0.103 C 
BRANCH   9   8
ATOM      3  C   UNL     1      -3.716  -1.150  24.213  0.00  0.00    +0.136 A 
ATOM      4  C   UNL     1      -4.356  -1.667  24.148  0.00  0.00    +0.037 A 
ATOM      5  C   UNL     1      -4.231  -2.481  24.145  0.00  0.00    +0.003 A 
ATOM      6  C   UNL     1      -3.464  -2.781  24.207  0.00  0.00    -0.000 A 
ATOM      7  C   UNL     1      -2.824  -2.266  24.272  0.00  0.00    +0.000 A 
ATOM      8  C   UNL     1      -2.949  -1.450  24.276  0.00  0.00    +0.028 A 
BRANCH   3   2
ATOM      1  C   UNL     1      -4.601  -0.034  24.335  0.00  0.00    +0.252 C 
ATOM      2  O   UNL     1      -3.840  -0.334  24.217  0.00  0.00    -0.472 OA
ENDBRANCH   3   2
ENDBRANCH   9   8
ENDBRANCH  10   9
TORSDOF 6
ENDMDL
MODEL 4
REMARK VINA RESULT:      -9.8      2.432      4.078
REMARK  Name = 
REMARK  6 active torsions:
REMARK  status: ('A' for Active; 'I' for Inactive)
REMARK    1  A    between atoms: O_2  and  C_3
REMARK    2  A    between atoms: C_8  and  C_9
REMARK    3  A    between atoms: C_9  and  N_10
REMARK    4  A    between atoms: C_14  and  C_15
REMARK    5  A    between atoms: C_17  and  C_20
REMARK    6  A    between atoms: C_23  and  N_26
REMARK                            x       y       z     vdW  Elec       q    Type
REMARK                         _______ _______ _______ _____ _____    ______ ____
ROOT
ATOM     10  N   UNL     1      -3.807   0.503  24.756  0.00  0.00    -0.263 NA
ATOM     11  C   UNL     1      -4.561   0.180  24.665  0.00  0.00    +0.073 C 
ATOM     12  C   UNL     1      -4.479  -0.638  24.590  0.00  0.00    +0.019 C 
ATOM     13  C   UNL     1      -3.675  -0.819  24.637  0.00  0.00    +0.027 C 
ATOM     14  C   UNL     1      -3.260  -0.113  24.739  0.00  0.00    +0.138 C 
ENDROOT
BRANCH  14  15
ATOM     15  C   UNL     1      -2.443  -0.038  24.812  0.00  0.00    +0.251 A 
ATOM     16  N   UNL     1      -1.898  -0.041  24.191  0.00  0.00    -0.190 NA
ATOM     17  C   UNL     1      -1.144   0.049  24.513  0.00  0.00    +0.205 A 
ATOM     18  N   UNL     1      -1.222   0.107  25.332  0.00  0.00    -0.056 NA
ATOM     19  O   UNL     1      -2.024   0.053  25.516  0.00  0.00    -0.336 OA
BRANCH  17  20
ATOM     20  C   UNL     1      -0.436   0.076  24.090  0.00  0.00    +0.058 A 
ATOM     21  C   UNL     1      -0.122   0.803  23.859  0.00  0.00    +0.008 A 
ATOM     22  C   UNL     1       0.586   0.829  23.436  0.00  0.00    +0.034 A 
ATOM     23  C   UNL     1       0.979   0.130  23.244  0.00  0.00    +0.132 A 
ATOM     24  N   UNL     1       0.665  -0.597  23.475  0.00  0.00    -0.229 NA
ATOM     25  C   UNL     1      -0.043  -0.624  23.898  0.00  0.00    +0.103 A 
BRANCH  23  26
ATOM     26  N   UNL     1       1.687   0.157  22.821  0.00  0.00    -0.290 N 
ATOM     27  C   UNL     1       1.749  -0.232  22.096  0.00  0.00    +0.114 C 
ATOM     28  C   UNL     1       2.333   0.572  23.123  0.00  0.00    +0.114 C 
ENDBRANCH  23  26
ENDBRANCH  17  20
ENDBRANCH  14  15
BRANCH  10   9
ATOM      9  C   UNL     1      -3.632   1.304  24.849  0.00  0.00    +0.103 C 
BRANCH   9   8
ATOM      3  C   UNL     1      -4.132   2.643  24.841  0.00  0.00    +0.136 A 
ATOM      4  C   UNL     1      -4.736   3.181  25.004  0.00  0.00    +0.037 A 
ATOM      5  C   UNL     1      -5.444   2.919  25.336  0.00  0.00    +0.003 A 
ATOM      6  C   UNL     1      -5.548   2.119  25.506  0.00  0.00    -0.000 A 
ATOM      7  C   UNL     1      -4.945   1.580  25.344  0.00  0.00    +0.000 A 
ATOM      8  C   UNL     1      -4.236   1.843  25.012  0.00  0.00    +0.028 A 
BRANCH   3   2
ATOM      1  C   UNL     1      -3.270   3.714  24.449  0.00  0.00    +0.252 C 
ATOM      2  O   UNL     1      -3.423   2.905  24.509  0.00  0.00    -0.472 OA
ENDBRANCH   3   2
ENDBRANCH   9   8
ENDBRANCH  10   9
TORSDOF 6
ENDMDL
MODEL 5
REMARK VINA RESULT:      -9.4      2.440      4.035
REMARK  Name = 
REMARK  6 active torsions:
REMARK  status: ('A' for Active; 'I' for Inactive)
REMARK    1  A    between atoms: O_2  and  C_3
REMARK    2  A    between atoms: C_8  and  C_9
REMARK    3  A    between atoms: C_9  and  N_10
REMARK    4  A    between atoms: C_14  and  C_15
REMARK    5  A    between atoms: C_17  and  C_20
REMARK    6  A    between atoms: C_23  and  N_26
REMARK                            x       y       z     vdW  Elec       q    Type
REMARK                         _______ _______ _______ _____ _____    ______ ____
ROOT
ATOM     10  N   UNL     1      -2.781   3.072  25.202  0.00  0.00    -0.263 NA
ATOM     11  C   UNL     1      -3.110   3.818  25.323  0.00  0.00    +0.073 C 
ATOM     12  C   UNL     1      -2.502   4.332  25.538  0.00  0.00    +0.019 C 
ATOM     13  C   UNL     1      -1.797   3.903  25.549  0.00  0.00    +0.027 C 
ATOM     14  C   UNL     1      -1.971   3.123  25.341  0.00  0.00    +0.138 C 
ENDROOT
BRANCH  14  15
ATOM     15  C   UNL     1      -1.428   2.505  25.284  0.00  0.00    +0.251 A 
ATOM     16  N   UNL     1      -1.012   2.287  24.605  0.00  0.00    -0.190 NA
ATOM     17  C   UNL     1      -0.533   1.643  24.796  0.00  0.00    +0.205 A 
ATOM     18  N   UNL     1      -0.654   1.463  25.592  0.00  0.00    -0.056 NA
ATOM     19  O   UNL     1      -1.206   1.995  25.893  0.00  0.00    -0.336 OA
BRANCH  17  20
ATOM     20  C   UNL     1      -0.023   1.248  24.281  0.00  0.00    +0.058 A 
ATOM     21  C   UNL     1      -0.239   0.516  23.969  0.00  0.00    +0.008 A 
ATOM     22  C   UNL     1       0.271   0.121  23.454  0.00  0.00    +0.034 A 
ATOM     23  C   UNL     1       0.996   0.459  23.252  0.00  0.00    +0.132 A 
ATOM     24  N   UNL     1       1.212   1.191  23.564  0.00  0.00    -0.229 NA
ATOM     25  C   UNL     1       0.702   1.586  24.079  0.00  0.00    +0.103 A 
BRANCH  23  26
ATOM     26  N   UNL     1       1.506   0.064  22.736  0.00  0.00    -0.290 N 
ATOM     27  C   UNL     1       2.322   0.150  22.818  0.00  0.00    +0.114 C 
ATOM     28  C   UNL     1       1.200  -0.416  22.140  0.00  0.00    +0.114 C 
ENDBRANCH  23  26
ENDBRANCH  17  20
ENDBRANCH  14  15
BRANCH  10   9
ATOM      9  C   UNL     1      -3.192   2.392  24.979  0.00  0.00    +0.103 C 
BRANCH   9   8
ATOM      3  C   UNL     1      -4.417   1.657  24.913  0.00  0.00    +0.136 A 
ATOM      4  C   UNL     1      -5.238   1.628  24.989  0.00  0.00    +0.037 A 
ATOM      5  C   UNL     1      -5.656   2.305  25.206  0.00  0.00    +0.003 A 
ATOM      6  C   UNL     1      -5.253   3.011  25.347  0.00  0.00    -0.000 A 
ATOM      7  C   UNL     1      -4.433   3.041  25.272  0.00  0.00    +0.000 A 
ATOM      8  C   UNL     1      -4.014   2.363  25.055  0.00  0.00    +0.028 A 
BRANCH   3   2
ATOM      1  C   UNL     1      -4.380   0.248  24.674  0.00  0.00    +0.252 C 
ATOM      2  O   UNL     1      -3.998   0.980  24.696  0.00  0.00    -0.472 OA
ENDBRANCH   3   2
ENDBRANCH   9   8
ENDBRANCH  10   9
TORSDOF 6
ENDMDL
MODEL 6
REMARK VINA RESULT:      -8.2     16.281     18.593
REMARK  Name = 
REMARK  6 active torsions:
REMARK  status: ('A' for Active; 'I' for Inactive)
REMARK    1  A    between atoms: O_2  and  C_3
REMARK    2  A    between atoms: C_8  and  C_9
REMARK    3  A    between atoms: C_9  and  N_10
REMARK    4  A    between atoms: C_14  and  C_15
REMARK    5  A    between atoms: C_17  and  C_20
REMARK    6  A    between atoms: C_23  and  N_26
REMARK                            x       y       z     vdW  Elec       q    Type
REMARK                         _______ _______ _______ _____ _____    ______ ____
ROOT
ATOM     10  N   UNL     1      14.631   7.206  18.580  0.00  0.00    -0.263 NA
ATOM     11  C   UNL     1      15.081   7.476  17.944  0.00  0.00    +0.073 C 
ATOM     12  C   UNL     1      14.564   7.784  17.379  0.00  0.00    +0.019 C 
ATOM     13  C   UNL     1      13.795   7.704  17.667  0.00  0.00    +0.027 C 
ATOM     14  C   UNL     1      13.837   7.346  18.410  0.00  0.00    +0.138 C 
ENDROOT
BRANCH  14  15
ATOM     15  C   UNL     1      13.197   7.162  18.896  0.00  0.00    +0.251 A 
ATOM     16  N   UNL     1      12.906   7.627  19.512  0.00  0.00    -0.190 NA
ATOM     17  C   UNL     1      12.265   7.232  19.849  0.00  0.00    +0.205 A 
ATOM     18  N   UNL     1      12.160   6.524  19.441  0.00  0.00    -0.056 NA
ATOM     19  O   UNL     1      12.735   6.480  18.853  0.00  0.00    -0.336 OA
BRANCH  17  20
ATOM     20  C   UNL     1      11.809   7.500  20.482  0.00  0.00    +0.058 A 
ATOM     21  C   UNL     1      11.304   8.145  20.383  0.00  0.00    +0.008 A 
ATOM     22  C   UNL     1      10.847   8.413  21.016  0.00  0.00    +0.034 A 
ATOM     23  C   UNL     1      10.896   8.036  21.748  0.00  0.00    +0.132 A 
ATOM     24  N   UNL     1      11.401   7.391  21.848  0.00  0.00    -0.229 NA
ATOM     25  C   UNL     1      11.858   7.123  21.214  0.00  0.00    +0.103 A 
BRANCH  23  26
ATOM     26  N   UNL     1      10.440   8.304  22.382  0.00  0.00    -0.290 N 
ATOM     27  C   UNL     1      10.483   9.094  22.616  0.00  0.00    +0.114 C 
ATOM     28  C   UNL     1       9.942   7.782  22.781  0.00  0.00    +0.114 C 
ENDBRANCH  23  26
ENDBRANCH  17  20
ENDBRANCH  14  15
BRANCH  10   9
ATOM      9  C   UNL     1      14.925   6.856  19.267  0.00  0.00    +0.103 C 
BRANCH   9   8
ATOM      3  C   UNL     1      16.173   6.779  19.961  0.00  0.00    +0.136 A 
ATOM      4  C   UNL     1      16.958   6.528  19.993  0.00  0.00    +0.037 A 
ATOM      5  C   UNL     1      17.283   6.106  19.363  0.00  0.00    +0.003 A 
ATOM      6  C   UNL     1      16.821   5.933  18.701  0.00  0.00    -0.000 A 
ATOM      7  C   UNL     1      16.036   6.183  18.669  0.00  0.00    +0.000 A 
ATOM      8  C   UNL     1      15.711   6.606  19.299  0.00  0.00    +0.028 A 
BRANCH   3   2
ATOM      1  C   UNL     1      16.247   7.239  21.313  0.00  0.00    +0.252 C 
ATOM      2  O   UNL     1      15.848   7.202  20.591  0.00  0.00    -0.472 OA
ENDBRANCH   3   2
ENDBRANCH   9   8
ENDBRANCH  10   9
TORSDOF 6
ENDMDL
MODEL 7
REMARK VINA RESULT:      -7.8     17.407     18.980
REMARK  Name = 
REMARK  6 active torsions:
REMARK  status: ('A' for Active; 'I' for Inactive)
REMARK    1  A    between atoms: O_2  and  C_3
REMARK    2  A    between atoms: C_8  and  C_9
REMARK    3  A    between atoms: C_9  and  N_10
REMARK    4  A    between atoms: C_14  and  C_15
REMARK    5  A    between atoms: C_17  and  C_20
REMARK    6  A    between atoms: C_23  and  N_26
REMARK                            x       y       z     vdW  Elec       q    Type
REMARK                         _______ _______ _______ _____ _____    ______ ____
ROOT
ATOM     10  N   UNL     1      14.681   7.430  20.911  0.00  0.00    -0.263 NA
ATOM     11  C   UNL     1      15.029   7.661  21.622  0.00  0.00    +0.073 C 
ATOM     12  C   UNL     1      14.429   7.918  22.128  0.00  0.00    +0.019 C 
ATOM     13  C   UNL     1      13.711   7.846  21.728  0.00  0.00    +0.027 C 
ATOM     14  C   UNL     1      13.867   7.544  20.975  0.00  0.00    +0.138 C 
ENDROOT
BRANCH  14  15
ATOM     15  C   UNL     1      13.307   7.385  20.391  0.00  0.00    +0.251 A 
ATOM     16  N   UNL     1      13.120   7.874  19.753  0.00  0.00    -0.190 NA
ATOM     17  C   UNL     1      12.533   7.500  19.310  0.00  0.00    +0.205 A 
ATOM     18  N   UNL     1      12.358   6.781  19.673  0.00  0.00    -0.056 NA
ATOM     19  O   UNL     1      12.836   6.710  20.341  0.00  0.00    -0.336 OA
BRANCH  17  20
ATOM     20  C   UNL     1      12.183   7.795  18.623  0.00  0.00    +0.058 A 
ATOM     21  C   UNL     1      11.811   8.531  18.633  0.00  0.00    +0.008 A 
ATOM     22  C   UNL     1      11.461   8.825  17.946  0.00  0.00    +0.034 A 
ATOM     23  C   UNL     1      11.483   8.383  17.250  0.00  0.00    +0.132 A 
ATOM     24  N   UNL     1      11.855   7.647  17.240  0.00  0.00    -0.229 NA
ATOM     25  C   UNL     1      12.205   7.353  17.927  0.00  0.00    +0.103 A 
BRANCH  23  26
ATOM     26  N   UNL     1      11.133   8.678  16.563  0.00  0.00    -0.290 N 
ATOM     27  C   UNL     1      10.327   8.562  16.429  0.00  0.00    +0.114 C 
ATOM     28  C   UNL     1      11.589   9.087  16.010  0.00  0.00    +0.114 C 
ENDBRANCH  23  26
ENDBRANCH  17  20
ENDBRANCH  14  15
BRANCH  10   9
ATOM      9  C   UNL     1      15.078   7.136  20.250  0.00  0.00    +0.103 C 
BRANCH   9   8
ATOM      3  C   UNL     1      16.197   6.430  19.711  0.00  0.00    +0.136 A 
ATOM      4  C   UNL     1      16.973   6.158  19.784  0.00  0.00    +0.037 A 
ATOM      5  C   UNL     1      17.405   6.321  20.466  0.00  0.00    +0.003 A 
ATOM      6  C   UNL     1      17.062   6.756  21.078  0.00  0.00    -0.000 A 
ATOM      7  C   UNL     1      16.287   7.028  21.006  0.00  0.00    +0.000 A 
ATOM      8  C   UNL     1      15.854   6.864  20.322  0.00  0.00    +0.028 A 
BRANCH   3   2
ATOM      1  C   UNL     1      16.157   6.104  18.319  0.00  0.00    +0.252 C 
ATOM      2  O   UNL     1      15.764   6.267  19.028  0.00  0.00    -0.472 OA
ENDBRANCH   3   2
ENDBRANCH   9   8
ENDBRANCH  10   9
TORSDOF 6
ENDMDL
