MODEL 1
REMARK VINA RESULT:     -11.8      0.000      0.000
REMARK  Name = 
REMARK  2 active torsions:
REMARK  status: ('A' for Active; 'I' for Inactive)
REMARK    1  A    between atoms: C_7  and  C_9
REMARK    2  A    between atoms: C_15  and  C_18
REMARK                            x       y       z     vdW  Elec       q    Type
REMARK                         _______ _______ _______ _____ _____    ______ ____
ROOT
ATOM      9  C   UNL     1      -4.351   0.510  24.986  0.00  0.00    +0.140 A 
ATOM     10  N   UNL     1      -3.991   0.092  25.600  0.00  0.00    -0.229 NA
ATOM     11  C   UNL     1      -3.837  -0.672  25.332  0.00  0.00    +0.100 A 
ATOM     12  C   UNL     1      -4.101  -0.727  24.552  0.00  0.00    +0.100 A 
ATOM     13  N   UNL     1      -4.419   0.003  24.338  0.00  0.00    -0.229 NA
ATOM     14  C   UNL     1      -4.017  -1.436  24.138  0.00  0.00    +0.025 A 
ATOM     15  C   UNL     1      -3.670  -2.089  24.502  0.00  0.00    +0.073 A 
ATOM     16  C   UNL     1      -3.406  -2.034  25.282  0.00  0.00    +0.005 A 
ATOM     17  C   UNL     1      -3.489  -1.326  25.697  0.00  0.00    +0.021 A 
ENDROOT
BRANCH   9   7
ATOM      1  C   UNL     1      -4.875   4.029  25.132  0.00  0.00    +0.095 C 
ATOM      2  C   UNL     1      -4.328   3.411  25.119  0.00  0.00    +0.226 C 
ATOM      3  O   UNL     1      -3.520   3.575  25.150  0.00  0.00    -0.275 OA
ATOM      4  N   UNL     1      -4.590   2.630  25.076  0.00  0.00    -0.279 N 
ATOM      5  C   UNL     1      -5.376   2.382  25.042  0.00  0.00    +0.094 C 
ATOM      6  C   UNL     1      -5.382   1.558  25.004  0.00  0.00    +0.031 C 
ATOM      7  C   UNL     1      -4.600   1.296  25.015  0.00  0.00    +0.080 C 
ATOM      8  C   UNL     1      -4.110   1.958  25.060  0.00  0.00    +0.101 C 
ENDBRANCH   9   7
BRANCH  15  18
ATOM     18  C   UNL     1      -3.587  -2.797  24.088  0.00  0.00    +0.419 C 
ATOM     19  F   UNL     1      -3.504  -3.506  23.674  0.00  0.00    -0.166 F 
ATOM     20  F   UNL     1      -2.767  -2.745  24.163  0.00  0.00    -0.166 F 
ATOM     21  F   UNL     1      -4.407  -2.849  24.013  0.00  0.00    -0.166 F 
ENDBRANCH  15  18
TORSDOF 2
ENDMDL
MODEL 2
REMARK VINA RESULT:     -11.5      3.044      4.828
REMARK  Name = 
REMARK  2 active torsions:
REMARK  status: ('A' for Active; 'I' for Inactive)
REMARK    1  A    between atoms: C_7  and  C_9
REMARK    2  A    between atoms: C_15  and  C_18
REMARK                            x       y       z     vdW  Elec       q    Type
REMARK                         _______ _______ _______ _____ _____    ______ ____
ROOT
ATOM      9  C   UNL     1      -4.021   0.291  24.900  0.00  0.00    +0.140 A 
ATOM     10  N   UNL     1      -4.742   0.646  25.086  0.00  0.00    -0.229 NA
ATOM     11  C   UNL     1      -4.672   1.455  24.940  0.00  0.00    +0.100 A 
ATOM     12  C   UNL     1      -3.908   1.599  24.663  0.00  0.00    +0.100 A 
ATOM     13  N   UNL     1      -3.506   0.880  24.639  0.00  0.00    -0.229 NA
ATOM     14  C   UNL     1      -3.679   2.368  24.469  0.00  0.00    +0.025 A 
ATOM     15  C   UNL     1      -4.212   2.991  24.552  0.00  0.00    +0.073 A 
ATOM     16  C   UNL     1      -4.976   2.847  24.829  0.00  0.00    +0.005 A 
ATOM     17  C   UNL     1      -5.206   2.079  25.023  0.00  0.00    +0.021 A 
ENDROOT
BRANCH   9   7
ATOM      1  C   UNL     1      -3.517  -3.227  24.675  0.00  0.00    +0.095 C 
ATOM      2  C   UNL     1      -3.821  -2.548  24.319  0.00  0.00    +0.226 C 
ATOM      3  O   UNL     1      -4.193  -2.599  23.584  0.00  0.00    -0.275 OA
ATOM      4  N   UNL     1      -3.754  -1.818  24.697  0.00  0.00    -0.279 N 
ATOM      5  C   UNL     1      -3.398  -1.682  25.429  0.00  0.00    +0.094 C 
ATOM      6  C   UNL     1      -3.455  -0.875  25.595  0.00  0.00    +0.031 C 
ATOM      7  C   UNL     1      -3.846  -0.513  24.964  0.00  0.00    +0.080 C 
ATOM      8  C   UNL     1      -4.030  -1.095  24.410  0.00  0.00    +0.101 C 
ENDBRANCH   9   7
BRANCH  15  18
ATOM     18  C   UNL     1      -3.982   3.759  24.358  0.00  0.00    +0.419 C 
ATOM     19  F   UNL     1      -3.752   4.528  24.164  0.00  0.00    -0.166 F 
ATOM     20  F   UNL     1      -3.871   3.928  25.158  0.00  0.00    -0.166 F 
ATOM     21  F   UNL     1      -4.093   3.590  23.558  0.00  0.00    -0.166 F 
ENDBRANCH  15  18
TORSDOF 2
ENDMDL
MODEL 3
REMARK VINA RESULT:     -11.1      3.251      4.993
REMARK  Name = 
REMARK  2 active torsions:
REMARK  status: ('A' for Active; 'I' for Inactive)
REMARK    1  A    between atoms: C_7  and  C_9
REMARK    2  A    between atoms: C_15  and  C_18
REMARK                            x       y       z     vdW  Elec       q    Type
REMARK                         _______ _______ _______ _____ _____    ______ ____
ROOT
ATOM      9  C   UNL     1      -3.575   1.031  24.737  0.00  0.00    +0.140 A 
ATOM     10  N   UNL     1      -4.196   1.568  24.817  0.00  0.00    -0.229 NA
ATOM     11  C   UNL     1      -3.874   2.303  25.006  0.00  0.00    +0.100 A 
ATOM     12  C   UNL     1      -3.054   2.221  25.043  0.00  0.00    +0.100 A 
ATOM     13  N   UNL     1      -2.869   1.435  24.877  0.00  0.00    -0.229 NA
ATOM     14  C   UNL     1      -2.582   2.873  25.223  0.00  0.00    +0.025 A 
ATOM     15  C   UNL     1      -2.930   3.607  25.367  0.00  0.00    +0.073 A 
ATOM     16  C   UNL     1      -3.750   3.689  25.330  0.00  0.00    +0.005 A 
ATOM     17  C   UNL     1      -4.222   3.038  25.150  0.00  0.00    +0.021 A 
ENDROOT
BRANCH   9   7
ATOM      1  C   UNL     1      -3.759  -2.515  24.472  0.00  0.00    +0.095 C 
ATOM      2  C   UNL     1      -3.621  -1.864  24.960  0.00  0.00    +0.226 C 
ATOM      3  O   UNL     1      -3.436  -1.978  25.756  0.00  0.00    -0.275 OA
ATOM      4  N   UNL     1      -3.668  -1.101  24.652  0.00  0.00    -0.279 N 
ATOM      5  C   UNL     1      -3.847  -0.902  23.872  0.00  0.00    +0.094 C 
ATOM      6  C   UNL     1      -3.834  -0.079  23.808  0.00  0.00    +0.031 C 
ATOM      7  C   UNL     1      -3.647   0.230  24.550  0.00  0.00    +0.080 C 
ATOM      8  C   UNL     1      -3.545  -0.400  25.071  0.00  0.00    +0.101 C 
ENDBRANCH   9   7
BRANCH  15  18
ATOM     18  C   UNL     1      -2.458   4.259  25.547  0.00  0.00    +0.419 C 
ATOM     19  F   UNL     1      -1.985   4.911  25.728  0.00  0.00    -0.166 F 
ATOM     20  F   UNL     1      -2.368   4.417  24.742  0.00  0.00    -0.166 F 
ATOM     21  F   UNL     1      -2.547   4.101  26.352  0.00  0.00    -0.166 F 
ENDBRANCH  15  18
TORSDOF 2
ENDMDL
