MODEL 1
REMARK VINA RESULT:      -8.7      0.000      0.000
REMARK  Name = 
REMARK  5 active torsions:
REMARK  status: ('A' for Active; 'I' for Inactive)
REMARK    1  A    between atoms: C_1  and  N_2
REMARK    2  A    between atoms: C_1  and  C_23
REMARK    3  A    between atoms: N_2  and  C_3
REMARK    4  A    between atoms: C_7  and  N_11
REMARK    5  A    between atoms: C_14  and  C_18
REMARK                            x       y       z     vdW  Elec       q    Type
REMARK                         _______ _______ _______ _____ _____    ______ ____
ROOT
ATOM      3  C   UNL     1      -2.377   2.219  24.644  0.00  0.00    +0.132 C 
ATOM      4  C   UNL     1      -2.117   2.792  24.111  0.00  0.00    +0.162 C 
ATOM      5  O   UNL     1      -1.319   2.654  23.958  0.00  0.00    -0.350 OA
ATOM      6  C   UNL     1      -1.085   1.995  24.395  0.00  0.00    +0.166 C 
ATOM      7  C   UNL     1      -0.447   1.502  24.571  0.00  0.00    +0.154 C 
ATOM      8  C   UNL     1      -0.707   0.928  25.104  0.00  0.00    +0.166 C 
ATOM      9  O   UNL     1      -1.505   1.067  25.257  0.00  0.00    -0.350 OA
ATOM     10  C   UNL     1      -1.739   1.726  24.819  0.00  0.00    +0.162 C 
ENDROOT
BRANCH   7  11
ATOM     11  N   UNL     1       0.317   1.571  24.267  0.00  0.00    -0.200 NA
ATOM     12  C   UNL     1       0.645   0.952  23.830  0.00  0.00    +0.237 A 
ATOM     13  N   UNL     1       1.408   1.021  23.526  0.00  0.00    -0.212 NA
ATOM     14  C   UNL     1       1.736   0.403  23.089  0.00  0.00    +0.092 A 
ATOM     15  C   UNL     1       1.299  -0.285  22.956  0.00  0.00    +0.040 A 
ATOM     16  C   UNL     1       0.535  -0.353  23.260  0.00  0.00    +0.103 A 
ATOM     17  N   UNL     1       0.208   0.265  23.697  0.00  0.00    -0.211 NA
BRANCH  14  18
ATOM     18  C   UNL     1       2.499   0.471  22.786  0.00  0.00    +0.047 A 
ATOM     19  C   UNL     1       3.103   0.943  23.093  0.00  0.00    +0.009 A 
ATOM     20  C   UNL     1       3.770   0.843  22.618  0.00  0.00    +0.008 A 
ATOM     21  C   UNL     1       3.579   0.311  22.018  0.00  0.00    +0.035 A 
ATOM     22  S   UNL     1       2.794   0.081  22.122  0.00  0.00    -0.085 S 
ENDBRANCH  14  18
ENDBRANCH   7  11
BRANCH   3   2
ATOM      2  N   UNL     1      -3.141   2.150  24.948  0.00  0.00    -0.214 NA
BRANCH   2   1
ATOM      1  C   UNL     1      -3.764   2.557  24.593  0.00  0.00    +0.089 C 
BRANCH   1  23
ATOM     23  C   UNL     1      -4.527   2.496  24.902  0.00  0.00    +0.017 C 
ATOM     24  C   UNL     1      -4.806   3.066  25.429  0.00  0.00    +0.001 C 
ATOM     25  C   UNL     1      -5.568   3.004  25.738  0.00  0.00    +0.000 C 
ATOM     26  C   UNL     1      -6.052   2.372  25.521  0.00  0.00    +0.000 C 
ATOM     27  C   UNL     1      -5.773   1.802  24.994  0.00  0.00    +0.000 C 
ATOM     28  C   UNL     1      -5.010   1.863  24.684  0.00  0.00    +0.001 C 
ENDBRANCH   1  23
ENDBRANCH   2   1
ENDBRANCH   3   2
TORSDOF 5
ENDMDL
MODEL 2
REMARK VINA RESULT:      -8.6      1.872      6.547
REMARK  Name = 
REMARK  5 active torsions:
REMARK  status: ('A' for Active; 'I' for Inactive)
REMARK    1  A    between atoms: C_1  and  N_2
REMARK    2  A    between atoms: C_1  and  C_23
REMARK    3  A    between atoms: N_2  and  C_3
REMARK    4  A    between atoms: C_7  and  N_11
REMARK    5  A    between atoms: C_14  and  C_18
REMARK                            x       y       z     vdW  Elec       q    Type
REMARK                         _______ _______ _______ _____ _____    ______ ____
ROOT
ATOM      3  C   UNL     1       0.915   0.722  23.571  0.00  0.00    +0.132 C 
ATOM      4  C   UNL     1       0.453   0.108  23.271  0.00  0.00    +0.162 C 
ATOM      5  O   UNL     1      -0.309   0.190  23.576  0.00  0.00    -0.350 OA
ATOM      6  C   UNL     1      -0.319   0.854  24.064  0.00  0.00    +0.166 C 
ATOM      7  C   UNL     1      -0.794   1.316  24.555  0.00  0.00    +0.154 C 
ATOM      8  C   UNL     1      -0.333   1.930  24.855  0.00  0.00    +0.166 C 
ATOM      9  O   UNL     1       0.429   1.848  24.550  0.00  0.00    -0.350 OA
ATOM     10  C   UNL     1       0.438   1.183  24.061  0.00  0.00    +0.162 C 
ENDROOT
BRANCH   7  11
ATOM     11  N   UNL     1      -1.593   1.186  24.717  0.00  0.00    -0.200 NA
ATOM     12  C   UNL     1      -2.134   1.805  24.652  0.00  0.00    +0.237 A 
ATOM     13  N   UNL     1      -2.932   1.676  24.814  0.00  0.00    -0.212 NA
ATOM     14  C   UNL     1      -3.473   2.296  24.749  0.00  0.00    +0.092 A 
ATOM     15  C   UNL     1      -3.215   3.046  24.523  0.00  0.00    +0.040 A 
ATOM     16  C   UNL     1      -2.416   3.176  24.361  0.00  0.00    +0.103 A 
ATOM     17  N   UNL     1      -1.876   2.555  24.426  0.00  0.00    -0.211 NA
BRANCH  14  18
ATOM     18  C   UNL     1      -4.271   2.166  24.911  0.00  0.00    +0.047 A 
ATOM     19  C   UNL     1      -4.705   1.495  24.705  0.00  0.00    +0.009 A 
ATOM     20  C   UNL     1      -5.477   1.598  24.974  0.00  0.00    +0.008 A 
ATOM     21  C   UNL     1      -5.521   2.333  25.346  0.00  0.00    +0.035 A 
ATOM     22  S   UNL     1      -4.776   2.684  25.307  0.00  0.00    -0.085 S 
ENDBRANCH  14  18
ENDBRANCH   7  11
BRANCH   3   2
ATOM      2  N   UNL     1       1.713   0.852  23.409  0.00  0.00    -0.214 NA
BRANCH   2   1
ATOM      1  C   UNL     1       2.136   0.309  22.954  0.00  0.00    +0.089 C 
BRANCH   1  23
ATOM     23  C   UNL     1       2.961   0.334  22.941  0.00  0.00    +0.017 C 
ATOM     24  C   UNL     1       3.398  -0.311  23.211  0.00  0.00    +0.001 C 
ATOM     25  C   UNL     1       4.222  -0.285  23.198  0.00  0.00    +0.000 C 
ATOM     26  C   UNL     1       4.609   0.386  22.915  0.00  0.00    +0.000 C 
ATOM     27  C   UNL     1       4.172   1.032  22.646  0.00  0.00    +0.000 C 
ATOM     28  C   UNL     1       3.347   1.006  22.659  0.00  0.00    +0.001 C 
ENDBRANCH   1  23
ENDBRANCH   2   1
ENDBRANCH   3   2
TORSDOF 5
ENDMDL
MODEL 3
REMARK VINA RESULT:      -8.6      2.371      6.628
REMARK  Name = 
REMARK  5 active torsions:
REMARK  status: ('A' for Active; 'I' for Inactive)
REMARK    1  A    between atoms: C_1  and  N_2
REMARK    2  A    between atoms: C_1  and  C_23
REMARK    3  A    between atoms: N_2  and  C_3
REMARK    4  A    between atoms: C_7  and  N_11
REMARK    5  A    between atoms: C_14  and  C_18
REMARK                            x       y       z     vdW  Elec       q    Type
REMARK                         _______ _______ _______ _____ _____    ______ ____
ROOT
ATOM      3  C   UNL     1       2.023   0.441  23.030  0.00  0.00    +0.132 C 
ATOM      4  C   UNL     1       1.683  -0.106  22.515  0.00  0.00    +0.162 C 
ATOM      5  O   UNL     1       0.866  -0.083  22.625  0.00  0.00    -0.350 OA
ATOM      6  C   UNL     1       0.701   0.477  23.206  0.00  0.00    +0.166 C 
ATOM      7  C   UNL     1       0.095   0.838  23.634  0.00  0.00    +0.154 C 
ATOM      8  C   UNL     1       0.435   1.385  24.149  0.00  0.00    +0.166 C 
ATOM      9  O   UNL     1       1.253   1.363  24.039  0.00  0.00    -0.350 OA
ATOM     10  C   UNL     1       1.417   0.801  23.457  0.00  0.00    +0.162 C 
ENDROOT
BRANCH   7  11
ATOM     11  N   UNL     1      -0.712   0.679  23.559  0.00  0.00    -0.200 NA
ATOM     12  C   UNL     1      -1.139   0.398  24.207  0.00  0.00    +0.237 A 
ATOM     13  N   UNL     1      -1.944   0.239  24.133  0.00  0.00    -0.212 NA
ATOM     14  C   UNL     1      -2.371  -0.043  24.780  0.00  0.00    +0.092 A 
ATOM     15  C   UNL     1      -1.992  -0.165  25.502  0.00  0.00    +0.040 A 
ATOM     16  C   UNL     1      -1.185  -0.006  25.577  0.00  0.00    +0.103 A 
ATOM     17  N   UNL     1      -0.759   0.275  24.929  0.00  0.00    -0.211 NA
BRANCH  14  18
ATOM     18  C   UNL     1      -3.177  -0.201  24.706  0.00  0.00    +0.047 A 
ATOM     19  C   UNL     1      -3.510  -0.915  24.458  0.00  0.00    +0.009 A 
ATOM     20  C   UNL     1      -4.330  -0.829  24.465  0.00  0.00    +0.008 A 
ATOM     21  C   UNL     1      -4.504  -0.064  24.718  0.00  0.00    +0.035 A 
ATOM     22  S   UNL     1      -3.791   0.324  24.867  0.00  0.00    -0.085 S 
ENDBRANCH  14  18
ENDBRANCH   7  11
BRANCH   3   2
ATOM      2  N   UNL     1       2.830   0.600  23.105  0.00  0.00    -0.214 NA
BRANCH   2   1
ATOM      1  C   UNL     1       3.385   0.056  22.828  0.00  0.00    +0.089 C 
BRANCH   1  23
ATOM     23  C   UNL     1       4.139   0.029  23.163  0.00  0.00    +0.017 C 
ATOM     24  C   UNL     1       4.640   0.682  23.103  0.00  0.00    +0.001 C 
ATOM     25  C   UNL     1       5.393   0.655  23.437  0.00  0.00    +0.000 C 
ATOM     26  C   UNL     1       5.646  -0.024  23.831  0.00  0.00    +0.000 C 
ATOM     27  C   UNL     1       5.145  -0.677  23.891  0.00  0.00    +0.000 C 
ATOM     28  C   UNL     1       4.391  -0.650  23.557  0.00  0.00    +0.001 C 
ENDBRANCH   1  23
ENDBRANCH   2   1
ENDBRANCH   3   2
TORSDOF 5
ENDMDL
