REMARK  Name = 
REMARK  8 active torsions:
REMARK  status: ('A' for Active; 'I' for Inactive)
REMARK    1  A    between atoms: C_6  and  C_7
REMARK    2  A    between atoms: C_11  and  N_31
REMARK    3  A    between atoms: C_13  and  C_14
REMARK    4  A    between atoms: N_16  and  C_17
REMARK    5  A    between atoms: C_17  and  C_18
REMARK    6  A    between atoms: C_17  and  C_28
REMARK    7  A    between atoms: C_18  and  C_19
REMARK    8  A    between atoms: N_34  and  C_35
REMARK                            x       y       z     vdW  Elec       q    Type
REMARK                         _______ _______ _______ _____ _____    ______ ____
ROOT
ATOM      7  C   UNL     1      -2.615   2.878   0.000  0.00  0.00    +0.265 C 
ATOM      8  O   UNL     1      -2.529   2.058   0.000  0.00  0.00    -0.268 OA
ATOM      9  N   UNL     1      -1.948   3.363   0.000  0.00  0.00    -0.266 N 
ATOM     10  C   UNL     1      -1.948   4.188   0.000  0.00  0.00    +0.116 C 
ATOM     11  C   UNL     1      -1.163   4.443   0.000  0.00  0.00    +0.119 C 
ATOM     12  C   UNL     1      -0.678   3.775   0.000  0.00  0.00    +0.053 C 
ATOM     13  C   UNL     1      -1.163   3.108   0.000  0.00  0.00    +0.156 C 
ENDROOT
BRANCH   7   6
ATOM      1  C   UNL     1      -4.170   1.981   0.000  0.00  0.00    +0.131 C 
ATOM      2  N   UNL     1      -4.083   2.801   0.000  0.00  0.00    -0.320 N 
ATOM      3  C   UNL     1      -4.697   3.353   0.000  0.00  0.00    +0.076 A 
ATOM      4  C   UNL     1      -4.361   4.107   0.000  0.00  0.00    +0.020 A 
ATOM      5  C   UNL     1      -3.541   4.021   0.000  0.00  0.00    +0.023 A 
ATOM      6  C   UNL     1      -3.369   3.214   0.000  0.00  0.00    +0.114 A 
ENDBRANCH   7   6
BRANCH  11  31
ATOM     31  N   UNL     1      -0.908   5.228   0.000  0.00  0.00    -0.187 NA
ATOM     32  C   UNL     1      -0.101   5.399   0.000  0.00  0.00    +0.344 C 
ATOM     33  O   UNL     1       0.451   4.786   0.000  0.00  0.00    -0.249 OA
ATOM     34  N   UNL     1       0.154   6.184   0.000  0.00  0.00    -0.159 NA
BRANCH  34  35
ATOM     35  C   UNL     1      -0.398   6.797   0.000  0.00  0.00    +0.102 A 
ATOM     36  C   UNL     1      -1.205   6.625   0.000  0.00  0.00    +0.158 A 
ATOM     37  F   UNL     1      -1.460   5.841   0.000  0.00  0.00    -0.203 F 
ATOM     38  C   UNL     1      -1.758   7.238   0.000  0.00  0.00    +0.061 A 
ATOM     39  C   UNL     1      -1.502   8.023   0.000  0.00  0.00    +0.142 A 
ATOM     40  F   UNL     1      -2.054   8.636   0.000  0.00  0.00    -0.204 F 
ATOM     41  C   UNL     1      -0.696   8.194   0.000  0.00  0.00    +0.031 A 
ATOM     42  C   UNL     1      -0.143   7.581   0.000  0.00  0.00    +0.021 A 
ENDBRANCH  34  35
ENDBRANCH  11  31
BRANCH  13  14
ATOM     14  C   UNL     1      -0.908   2.323   0.000  0.00  0.00    +0.260 C 
ATOM     15  O   UNL     1      -0.101   2.152   0.000  0.00  0.00    -0.272 OA
ATOM     16  N   UNL     1      -1.460   1.710   0.000  0.00  0.00    -0.196 NA
BRANCH  16  17
ATOM     17  C   UNL     1      -1.205   0.926   0.000  0.00  0.00    +0.179 C 
BRANCH  17  28
ATOM     28  C   UNL     1      -1.758   0.313   0.000  0.00  0.00    +0.281 C 
ATOM     29  N   UNL     1      -2.564   0.484   0.000  0.00  0.00    -0.086 NA
ATOM     30  O   UNL     1      -1.502  -0.472   0.000  0.00  0.00    -0.270 OA
ENDBRANCH  17  28
BRANCH  17  18
ATOM     18  C   UNL     1      -0.398   0.754   0.000  0.00  0.00    +0.059 C 
BRANCH  18  19
ATOM     19  C   UNL     1      -0.143  -0.030   0.000  0.00  0.00    +0.001 A 
ATOM     20  C   UNL     1      -0.628  -0.698   0.000  0.00  0.00    +0.095 A 
ATOM     21  N   UNL     1      -0.143  -1.365   0.000  0.00  0.00    -0.244 NA
ATOM     22  C   UNL     1       0.641  -1.110   0.000  0.00  0.00    +0.081 A 
ATOM     23  C   UNL     1       0.641  -0.285   0.000  0.00  0.00    +0.015 A 
ATOM     24  C   UNL     1       1.356   0.127   0.000  0.00  0.00    +0.001 A 
ATOM     25  C   UNL     1       2.070  -0.285   0.000  0.00  0.00    +0.000 A 
ATOM     26  C   UNL     1       2.070  -1.110   0.000  0.00  0.00    +0.002 A 
ATOM     27  C   UNL     1       1.356  -1.523   0.000  0.00  0.00    +0.019 A 
ENDBRANCH  18  19
ENDBRANCH  17  18
ENDBRANCH  16  17
ENDBRANCH  13  14
TORSDOF 8
