REMARK  Name = 
REMARK  4 active torsions:
REMARK  status: ('A' for Active; 'I' for Inactive)
REMARK    1  A    between atoms: O_2  and  C_3
REMARK    2  A    between atoms: C_3  and  C_4
REMARK    3  A    between atoms: C_4  and  N_5
REMARK    4  A    between atoms: C_15  and  C_17
REMARK                            x       y       z     vdW  Elec       q    Type
REMARK                         _______ _______ _______ _____ _____    ______ ____
ROOT
ATOM      5  N   UNL     1       0.715  -0.412   0.000  0.00  0.00    -0.272 N 
ATOM      6  C   UNL     1       0.000   0.000   0.000  0.00  0.00    +0.124 C 
ATOM      7  C   UNL     1      -0.785  -0.255   0.000  0.00  0.00    +0.116 C 
ATOM      8  N   UNL     1      -1.270   0.412   0.000  0.00  0.00    -0.272 N 
ATOM      9  C   UNL     1      -0.785   1.080   0.000  0.00  0.00    +0.125 C 
ATOM     10  C   UNL     1       0.000   0.825   0.000  0.00  0.00    +0.155 C 
ATOM     11  O   UNL     1       0.715   1.238   0.000  0.00  0.00    -0.343 OA
ATOM     12  C   UNL     1       1.429   0.825   0.000  0.00  0.00    +0.227 C 
ATOM     13  C   UNL     1       1.429   0.000   0.000  0.00  0.00    +0.256 C 
ATOM     14  O   UNL     1       2.143  -0.412   0.000  0.00  0.00    -0.272 OA
ATOM     15  C   UNL     1      -2.095   0.412   0.000  0.00  0.00    +0.249 C 
ATOM     16  O   UNL     1      -2.507  -0.302   0.000  0.00  0.00    -0.270 OA
ENDROOT
BRANCH  15  17
ATOM     17  C   UNL     1      -2.507   1.127   0.000  0.00  0.00    +0.054 A 
ATOM     18  C   UNL     1      -3.332   1.127   0.000  0.00  0.00    +0.007 A 
ATOM     19  C   UNL     1      -3.744   1.841   0.000  0.00  0.00    +0.030 A 
ATOM     20  C   UNL     1      -3.332   2.556   0.000  0.00  0.00    +0.140 A 
ATOM     21  F   UNL     1      -3.744   3.270   0.000  0.00  0.00    -0.204 F 
ATOM     22  C   UNL     1      -2.507   2.556   0.000  0.00  0.00    +0.030 A 
ATOM     23  C   UNL     1      -2.095   1.841   0.000  0.00  0.00    +0.007 A 
ENDBRANCH  15  17
BRANCH   5   4
ATOM      4  C   UNL     1       0.715  -1.238   0.000  0.00  0.00    +0.126 C 
BRANCH   4   3
ATOM      3  C   UNL     1       1.429  -1.650   0.000  0.00  0.00    +0.164 C 
BRANCH   3   2
ATOM      1  C   UNL     1       2.143  -2.888   0.000  0.00  0.00    +0.174 C 
ATOM      2  O   UNL     1       1.429  -2.475   0.000  0.00  0.00    -0.349 OA
ENDBRANCH   3   2
ENDBRANCH   4   3
ENDBRANCH   5   4
TORSDOF 4
