REMARK  Name = 
REMARK  7 active torsions:
REMARK  status: ('A' for Active; 'I' for Inactive)
REMARK    1  A    between atoms: O_2  and  C_3
REMARK    2  A    between atoms: C_4  and  C_9
REMARK    3  A    between atoms: C_11  and  C_16
REMARK    4  A    between atoms: C_23  and  C_24
REMARK    5  A    between atoms: C_24  and  N_25
REMARK    6  A    between atoms: C_26  and  C_28
REMARK    7  A    between atoms: C_33  and  C_34
REMARK                            x       y       z     vdW  Elec       q    Type
REMARK                         _______ _______ _______ _____ _____    ______ ____
ROOT
ATOM     16  C   UNL     1       1.661  -1.343   0.000  0.00  0.00    +0.056 C 
ATOM     17  C   UNL     1       1.814  -2.106   0.000  0.00  0.00    +0.078 C 
ATOM     18  N   UNL     1       1.065  -1.759   0.000  0.00  0.00    -0.272 NA
ATOM     19  C   UNL     1       1.205  -0.720   0.000  0.00  0.00    +0.072 C 
ATOM     20  C   UNL     1       0.961  -0.114   0.000  0.00  0.00    +0.018 C 
ATOM     21  C   UNL     1       0.923  -1.010   0.000  0.00  0.00    +0.010 C 
ATOM     22  C   UNL     1       0.119  -1.362   0.000  0.00  0.00    +0.018 C 
ATOM     23  C   UNL     1       0.226  -2.118   0.000  0.00  0.00    +0.079 C 
ENDROOT
BRANCH  16  11
ATOM      9  C   UNL     1       3.720  -0.616   0.000  0.00  0.00    +0.087 A 
ATOM     10  C   UNL     1       3.075  -1.130   0.000  0.00  0.00    +0.034 A 
ATOM     11  C   UNL     1       2.307  -0.828   0.000  0.00  0.00    +0.063 A 
ATOM     12  N   UNL     1       2.184  -0.013   0.000  0.00  0.00    -0.235 NA
ATOM     13  C   UNL     1       2.829   0.501   0.000  0.00  0.00    +0.139 A 
ATOM     14  C   UNL     1       2.707   1.317   0.000  0.00  0.00    +0.074 C 
ATOM     15  N   UNL     1       3.597   0.200   0.000  0.00  0.00    -0.231 NA
BRANCH   9   4
ATOM      3  C   UNL     1       4.610  -1.734   0.000  0.00  0.00    +0.140 A 
ATOM      4  C   UNL     1       4.488  -0.918   0.000  0.00  0.00    +0.052 A 
ATOM      5  C   UNL     1       5.133  -0.404   0.000  0.00  0.00    +0.005 A 
ATOM      6  C   UNL     1       5.901  -0.706   0.000  0.00  0.00    +0.000 A 
ATOM      7  C   UNL     1       6.023  -1.522   0.000  0.00  0.00    +0.003 A 
ATOM      8  C   UNL     1       5.378  -2.036   0.000  0.00  0.00    +0.037 A 
BRANCH   3   2
ATOM      1  C   UNL     1       4.087  -3.064   0.000  0.00  0.00    +0.252 C 
ATOM      2  O   UNL     1       3.965  -2.248   0.000  0.00  0.00    -0.471 OA
ENDBRANCH   3   2
ENDBRANCH   9   4
ENDBRANCH  16  11
BRANCH  23  24
ATOM     24  C   UNL     1      -0.179  -2.836   0.000  0.00  0.00    +0.131 C 
BRANCH  24  25
ATOM     25  N   UNL     1      -1.004  -2.845   0.000  0.00  0.00    -0.200 NA
ATOM     26  C   UNL     1      -1.408  -3.564   0.000  0.00  0.00    +0.265 C 
ATOM     27  O   UNL     1      -0.988  -4.274   0.000  0.00  0.00    -0.268 OA
BRANCH  26  28
ATOM     28  C   UNL     1      -2.233  -3.573   0.000  0.00  0.00    +0.061 A 
ATOM     29  C   UNL     1      -2.638  -4.292   0.000  0.00  0.00    +0.005 A 
ATOM     30  C   UNL     1      -3.463  -4.301   0.000  0.00  0.00    +0.000 A 
ATOM     31  C   UNL     1      -3.883  -3.591   0.000  0.00  0.00    +0.000 A 
ATOM     32  C   UNL     1      -3.478  -2.872   0.000  0.00  0.00    +0.007 A 
ATOM     33  C   UNL     1      -2.654  -2.863   0.000  0.00  0.00    +0.084 A 
BRANCH  33  34
ATOM     34  C   UNL     1      -2.249  -2.144   0.000  0.00  0.00    +0.388 C 
ATOM     35  O   UNL     1      -1.424  -2.135   0.000  0.00  0.00    -0.241 OA
ATOM     36  O   UNL     1      -2.669  -1.434   0.000  0.00  0.00    -0.241 OA
ENDBRANCH  33  34
ENDBRANCH  26  28
ENDBRANCH  24  25
ENDBRANCH  23  24
TORSDOF 7
