MODEL 1
REMARK VINA RESULT:     -12.8      0.000      0.000
REMARK  Name = 
REMARK  8 active torsions:
REMARK  status: ('A' for Active; 'I' for Inactive)
REMARK    1  A    between atoms: C_5  and  C_6
REMARK    2  A    between atoms: C_6  and  C_7
REMARK    3  A    between atoms: C_10  and  C_12
REMARK    4  A    between atoms: C_19  and  C_20
REMARK    5  A    between atoms: C_20  and  N_21
REMARK    6  A    between atoms: C_22  and  C_24
REMARK    7  A    between atoms: C_24  and  O_25
REMARK    8  A    between atoms: O_25  and  C_26
REMARK                            x       y       z     vdW  Elec       q    Type
REMARK                         _______ _______ _______ _____ _____    ______ ____
ROOT
ATOM      1  O   UNL     1       0.583   1.703  24.276  0.00  0.00    -0.220 OA
ATOM      2  C   UNL     1      -0.010   2.160  24.621  0.00  0.00    +0.181 C 
ATOM      3  C   UNL     1      -0.023   2.976  24.502  0.00  0.00    +0.038 C 
ATOM      4  C   UNL     1      -0.616   3.434  24.847  0.00  0.00    +0.033 C 
ATOM      5  C   UNL     1      -1.196   3.075  25.311  0.00  0.00    +0.121 C 
ATOM     18  O   UNL     1      -1.183   2.258  25.431  0.00  0.00    -0.354 OA
ATOM     19  C   UNL     1      -0.590   1.801  25.085  0.00  0.00    +0.167 C 
ENDROOT
BRANCH   5   6
ATOM      6  C   UNL     1      -1.790   3.533  25.657  0.00  0.00    +0.079 C 
BRANCH   6   7
ATOM      7  C   UNL     1      -2.552   3.525  25.342  0.00  0.00    +0.103 A 
ATOM      8  N   UNL     1      -2.826   3.996  24.721  0.00  0.00    -0.081 NA
ATOM      9  O   UNL     1      -3.618   3.805  24.588  0.00  0.00    -0.354 OA
ATOM     10  C   UNL     1      -3.834   3.217  25.126  0.00  0.00    +0.177 A 
ATOM     11  C   UNL     1      -3.175   3.043  25.591  0.00  0.00    +0.058 A 
BRANCH  10  12
ATOM     12  C   UNL     1      -4.577   2.865  25.186  0.00  0.00    +0.037 A 
ATOM     13  C   UNL     1      -5.119   3.140  25.745  0.00  0.00    +0.003 A 
ATOM     14  C   UNL     1      -5.863   2.786  25.805  0.00  0.00    +0.000 A 
ATOM     15  C   UNL     1      -6.064   2.160  25.308  0.00  0.00    +0.000 A 
ATOM     16  C   UNL     1      -5.521   1.885  24.750  0.00  0.00    +0.000 A 
ATOM     17  C   UNL     1      -4.778   2.238  24.690  0.00  0.00    +0.003 A 
ENDBRANCH  10  12
ENDBRANCH   6   7
ENDBRANCH   5   6
BRANCH  19  20
ATOM     20  C   UNL     1      -0.577   0.985  25.204  0.00  0.00    +0.147 C 
BRANCH  20  21
ATOM     21  N   UNL     1      -1.128   0.504  24.822  0.00  0.00    -0.200 NA
ATOM     22  C   UNL     1      -1.300  -0.245  25.123  0.00  0.00    +0.286 C 
ATOM     23  O   UNL     1      -0.922  -0.512  25.805  0.00  0.00    -0.269 OA
BRANCH  22  24
ATOM     24  C   UNL     1      -1.852  -0.726  24.741  0.00  0.00    +0.291 C 
BRANCH  24  25
ATOM     25  O   UNL     1      -2.516  -0.995  25.150  0.00  0.00    -0.466 OA
BRANCH  25  26
ATOM     26  C   UNL     1      -3.075  -1.464  24.764  0.00  0.00    +0.139 A 
ATOM     27  C   UNL     1      -3.686  -1.110  24.337  0.00  0.00    +0.037 A 
ATOM     28  C   UNL     1      -4.245  -1.579  23.950  0.00  0.00    +0.003 A 
ATOM     29  C   UNL     1      -4.193  -2.401  23.992  0.00  0.00    +0.000 A 
ATOM     30  C   UNL     1      -3.582  -2.754  24.420  0.00  0.00    +0.003 A 
ATOM     31  C   UNL     1      -3.023  -2.286  24.805  0.00  0.00    +0.037 A 
ENDBRANCH  25  26
ENDBRANCH  24  25
ENDBRANCH  22  24
ENDBRANCH  20  21
ENDBRANCH  19  20
TORSDOF 8
ENDMDL
MODEL 2
REMARK VINA RESULT:     -12.7      1.363      4.149
REMARK  Name = 
REMARK  8 active torsions:
REMARK  status: ('A' for Active; 'I' for Inactive)
REMARK    1  A    between atoms: C_5  and  C_6
REMARK    2  A    between atoms: C_6  and  C_7
REMARK    3  A    between atoms: C_10  and  C_12
REMARK    4  A    between atoms: C_19  and  C_20
REMARK    5  A    between atoms: C_20  and  N_21
REMARK    6  A    between atoms: C_22  and  C_24
REMARK    7  A    between atoms: C_24  and  O_25
REMARK    8  A    between atoms: O_25  and  C_26
REMARK                            x       y       z     vdW  Elec       q    Type
REMARK                         _______ _______ _______ _____ _____    ______ ____
ROOT
ATOM      1  O   UNL     1       0.129  -1.012  23.950  0.00  0.00    -0.220 OA
ATOM      2  C   UNL     1      -0.592  -0.991  24.349  0.00  0.00    +0.181 C 
ATOM      3  C   UNL     1      -1.073  -1.660  24.367  0.00  0.00    +0.038 C 
ATOM      4  C   UNL     1      -1.794  -1.640  24.767  0.00  0.00    +0.033 C 
ATOM      5  C   UNL     1      -2.034  -0.949  25.149  0.00  0.00    +0.121 C 
ATOM     18  O   UNL     1      -1.553  -0.279  25.131  0.00  0.00    -0.354 OA
ATOM     19  C   UNL     1      -0.832  -0.300  24.731  0.00  0.00    +0.167 C 
ENDROOT
BRANCH   5   6
ATOM      6  C   UNL     1      -2.756  -0.928  25.550  0.00  0.00    +0.079 C 
BRANCH   6   7
ATOM      7  C   UNL     1      -3.398  -0.529  25.220  0.00  0.00    +0.103 A 
ATOM      8  N   UNL     1      -3.909  -0.824  24.642  0.00  0.00    -0.081 NA
ATOM      9  O   UNL     1      -4.469  -0.242  24.476  0.00  0.00    -0.354 OA
ATOM     10  C   UNL     1      -4.304   0.414  24.951  0.00  0.00    +0.177 A 
ATOM     11  C   UNL     1      -3.643   0.236  25.410  0.00  0.00    +0.058 A 
BRANCH  10  12
ATOM     12  C   UNL     1      -4.727   1.121  24.963  0.00  0.00    +0.037 A 
ATOM     13  C   UNL     1      -4.523   1.733  24.448  0.00  0.00    +0.003 A 
ATOM     14  C   UNL     1      -4.947   2.441  24.460  0.00  0.00    +0.000 A 
ATOM     15  C   UNL     1      -5.573   2.538  24.987  0.00  0.00    +0.000 A 
ATOM     16  C   UNL     1      -5.778   1.926  25.502  0.00  0.00    +0.000 A 
ATOM     17  C   UNL     1      -5.354   1.219  25.489  0.00  0.00    +0.003 A 
ENDBRANCH  10  12
ENDBRANCH   6   7
ENDBRANCH   5   6
BRANCH  19  20
ATOM     20  C   UNL     1      -0.351   0.370  24.713  0.00  0.00    +0.147 C 
BRANCH  20  21
ATOM     21  N   UNL     1      -0.692   1.120  24.655  0.00  0.00    -0.200 NA
ATOM     22  C   UNL     1      -0.228   1.792  24.770  0.00  0.00    +0.286 C 
ATOM     23  O   UNL     1       0.574   1.716  24.944  0.00  0.00    -0.269 OA
BRANCH  22  24
ATOM     24  C   UNL     1      -0.569   2.542  24.711  0.00  0.00    +0.291 C 
BRANCH  24  25
ATOM     25  O   UNL     1      -0.594   3.036  25.371  0.00  0.00    -0.466 OA
BRANCH  25  26
ATOM     26  C   UNL     1      -1.062   3.716  25.360  0.00  0.00    +0.139 A 
ATOM     27  C   UNL     1      -1.799   3.715  25.730  0.00  0.00    +0.037 A 
ATOM     28  C   UNL     1      -2.267   4.395  25.719  0.00  0.00    +0.003 A 
ATOM     29  C   UNL     1      -1.997   5.075  25.337  0.00  0.00    +0.000 A 
ATOM     30  C   UNL     1      -1.259   5.075  24.967  0.00  0.00    +0.003 A 
ATOM     31  C   UNL     1      -0.792   4.396  24.978  0.00  0.00    +0.037 A 
ENDBRANCH  25  26
ENDBRANCH  24  25
ENDBRANCH  22  24
ENDBRANCH  20  21
ENDBRANCH  19  20
TORSDOF 8
ENDMDL
MODEL 3
REMARK VINA RESULT:     -12.4      1.395      3.785
REMARK  Name = 
REMARK  8 active torsions:
REMARK  status: ('A' for Active; 'I' for Inactive)
REMARK    1  A    between atoms: C_5  and  C_6
REMARK    2  A    between atoms: C_6  and  C_7
REMARK    3  A    between atoms: C_10  and  C_12
REMARK    4  A    between atoms: C_19  and  C_20
REMARK    5  A    between atoms: C_20  and  N_21
REMARK    6  A    between atoms: C_22  and  C_24
REMARK    7  A    between atoms: C_24  and  O_25
REMARK    8  A    between atoms: O_25  and  C_26
REMARK                            x       y       z     vdW  Elec       q    Type
REMARK                         _______ _______ _______ _____ _____    ______ ____
ROOT
ATOM      1  O   UNL     1      -2.826   4.462  26.126  0.00  0.00    -0.220 OA
ATOM      2  C   UNL     1      -3.240   3.889  25.703  0.00  0.00    +0.181 C 
ATOM      3  C   UNL     1      -4.063   3.862  25.739  0.00  0.00    +0.038 C 
ATOM      4  C   UNL     1      -4.478   3.288  25.316  0.00  0.00    +0.033 C 
ATOM      5  C   UNL     1      -4.068   2.740  24.855  0.00  0.00    +0.121 C 
ATOM     18  O   UNL     1      -3.243   2.766  24.819  0.00  0.00    -0.354 OA
ATOM     19  C   UNL     1      -2.830   3.340  25.243  0.00  0.00    +0.167 C 
ENDROOT
BRANCH   5   6
ATOM      6  C   UNL     1      -4.482   2.165  24.431  0.00  0.00    +0.079 C 
BRANCH   6   7
ATOM      7  C   UNL     1      -4.536   1.396  24.725  0.00  0.00    +0.103 A 
ATOM      8  N   UNL     1      -4.982   1.156  25.377  0.00  0.00    -0.081 NA
ATOM      9  O   UNL     1      -4.876   0.344  25.473  0.00  0.00    -0.354 OA
ATOM     10  C   UNL     1      -4.364   0.081  24.881  0.00  0.00    +0.177 A 
ATOM     11  C   UNL     1      -4.155   0.732  24.419  0.00  0.00    +0.058 A 
BRANCH  10  12
ATOM     12  C   UNL     1      -4.108  -0.694  24.770  0.00  0.00    +0.037 A 
ATOM     13  C   UNL     1      -3.732  -1.096  25.386  0.00  0.00    +0.003 A 
ATOM     14  C   UNL     1      -3.475  -1.873  25.274  0.00  0.00    +0.000 A 
ATOM     15  C   UNL     1      -3.595  -2.247  24.550  0.00  0.00    +0.000 A 
ATOM     16  C   UNL     1      -3.972  -1.846  23.935  0.00  0.00    +0.000 A 
ATOM     17  C   UNL     1      -4.228  -1.070  24.046  0.00  0.00    +0.003 A 
ENDBRANCH  10  12
ENDBRANCH   6   7
ENDBRANCH   5   6
BRANCH  19  20
ATOM     20  C   UNL     1      -2.006   3.366  25.206  0.00  0.00    +0.147 C 
BRANCH  20  21
ATOM     21  N   UNL     1      -1.595   2.788  24.784  0.00  0.00    -0.200 NA
ATOM     22  C   UNL     1      -0.782   2.699  24.893  0.00  0.00    +0.286 C 
ATOM     23  O   UNL     1      -0.381   3.187  25.422  0.00  0.00    -0.269 OA
BRANCH  22  24
ATOM     24  C   UNL     1      -0.370   2.121  24.471  0.00  0.00    +0.291 C 
BRANCH  24  25
ATOM     25  O   UNL     1      -0.142   1.422  24.845  0.00  0.00    -0.466 OA
BRANCH  25  26
ATOM     26  C   UNL     1      -0.039   0.732  24.403  0.00  0.00    +0.139 A 
ATOM     27  C   UNL     1      -0.373   0.024  24.662  0.00  0.00    +0.037 A 
ATOM     28  C   UNL     1      -0.270  -0.666  24.220  0.00  0.00    +0.003 A 
ATOM     29  C   UNL     1       0.166  -0.646  23.520  0.00  0.00    +0.000 A 
ATOM     30  C   UNL     1       0.499   0.063  23.262  0.00  0.00    +0.003 A 
ATOM     31  C   UNL     1       0.397   0.752  23.703  0.00  0.00    +0.037 A 
ENDBRANCH  25  26
ENDBRANCH  24  25
ENDBRANCH  22  24
ENDBRANCH  20  21
ENDBRANCH  19  20
TORSDOF 8
ENDMDL
MODEL 4
REMARK VINA RESULT:     -12.4      1.428      3.899
REMARK  Name = 
REMARK  8 active torsions:
REMARK  status: ('A' for Active; 'I' for Inactive)
REMARK    1  A    between atoms: C_5  and  C_6
REMARK    2  A    between atoms: C_6  and  C_7
REMARK    3  A    between atoms: C_10  and  C_12
REMARK    4  A    between atoms: C_19  and  C_20
REMARK    5  A    between atoms: C_20  and  N_21
REMARK    6  A    between atoms: C_22  and  C_24
REMARK    7  A    between atoms: C_24  and  O_25
REMARK    8  A    between atoms: O_25  and  C_26
REMARK                            x       y       z     vdW  Elec       q    Type
REMARK                         _______ _______ _______ _____ _____    ______ ____
ROOT
ATOM      1  O   UNL     1      -1.597  -2.030  25.021  0.00  0.00    -0.220 OA
ATOM      2  C   UNL     1      -1.304  -1.311  24.742  0.00  0.00    +0.181 C 
ATOM      3  C   UNL     1      -0.492  -1.203  24.655  0.00  0.00    +0.038 C 
ATOM      4  C   UNL     1      -0.198  -0.483  24.377  0.00  0.00    +0.033 C 
ATOM      5  C   UNL     1      -0.719   0.128  24.186  0.00  0.00    +0.121 C 
ATOM     18  O   UNL     1      -1.533   0.020  24.273  0.00  0.00    -0.354 OA
ATOM     19  C   UNL     1      -1.825  -0.700  24.552  0.00  0.00    +0.167 C 
ENDROOT
BRANCH   5   6
ATOM      6  C   UNL     1      -0.426   0.848  23.907  0.00  0.00    +0.079 C 
BRANCH   6   7
ATOM      7  C   UNL     1      -0.400   1.503  24.408  0.00  0.00    +0.103 A 
ATOM      8  N   UNL     1       0.091   1.592  25.065  0.00  0.00    -0.081 NA
ATOM      9  O   UNL     1      -0.066   2.329  25.402  0.00  0.00    -0.354 OA
ATOM     10  C   UNL     1      -0.654   2.695  24.953  0.00  0.00    +0.177 A 
ATOM     11  C   UNL     1      -0.861   2.184  24.339  0.00  0.00    +0.058 A 
BRANCH  10  12
ATOM     12  C   UNL     1      -0.979   3.439  25.094  0.00  0.00    +0.037 A 
ATOM     13  C   UNL     1      -1.608   3.522  25.622  0.00  0.00    +0.003 A 
ATOM     14  C   UNL     1      -1.932   4.268  25.763  0.00  0.00    +0.000 A 
ATOM     15  C   UNL     1      -1.628   4.930  25.376  0.00  0.00    +0.000 A 
ATOM     16  C   UNL     1      -0.999   4.847  24.848  0.00  0.00    +0.000 A 
ATOM     17  C   UNL     1      -0.676   4.102  24.708  0.00  0.00    +0.003 A 
ENDBRANCH  10  12
ENDBRANCH   6   7
ENDBRANCH   5   6
BRANCH  19  20
ATOM     20  C   UNL     1      -2.638  -0.808  24.639  0.00  0.00    +0.147 C 
BRANCH  20  21
ATOM     21  N   UNL     1      -3.102  -0.202  24.955  0.00  0.00    -0.200 NA
ATOM     22  C   UNL     1      -3.919  -0.207  24.840  0.00  0.00    +0.286 C 
ATOM     23  O   UNL     1      -4.271  -0.814  24.409  0.00  0.00    -0.269 OA
BRANCH  22  24
ATOM     24  C   UNL     1      -4.383   0.398  25.156  0.00  0.00    +0.291 C 
BRANCH  24  25
ATOM     25  O   UNL     1      -4.794   0.907  24.653  0.00  0.00    -0.466 OA
BRANCH  25  26
ATOM     26  C   UNL     1      -5.039   1.647  24.926  0.00  0.00    +0.139 A 
ATOM     27  C   UNL     1      -4.805   2.330  24.527  0.00  0.00    +0.037 A 
ATOM     28  C   UNL     1      -5.049   3.070  24.800  0.00  0.00    +0.003 A 
ATOM     29  C   UNL     1      -5.527   3.126  25.470  0.00  0.00    +0.000 A 
ATOM     30  C   UNL     1      -5.760   2.442  25.868  0.00  0.00    +0.003 A 
ATOM     31  C   UNL     1      -5.517   1.703  25.596  0.00  0.00    +0.037 A 
ENDBRANCH  25  26
ENDBRANCH  24  25
ENDBRANCH  22  24
ENDBRANCH  20  21
ENDBRANCH  19  20
TORSDOF 8
ENDMDL
MODEL 5
REMARK VINA RESULT:     -12.1      0.747      4.095
REMARK  Name = 
REMARK  8 active torsions:
REMARK  status: ('A' for Active; 'I' for Inactive)
REMARK    1  A    between atoms: C_5  and  C_6
REMARK    2  A    between atoms: C_6  and  C_7
REMARK    3  A    between atoms: C_10  and  C_12
REMARK    4  A    between atoms: C_19  and  C_20
REMARK    5  A    between atoms: C_20  and  N_21
REMARK    6  A    between atoms: C_22  and  C_24
REMARK    7  A    between atoms: C_24  and  O_25
REMARK    8  A    between atoms: O_25  and  C_26
REMARK                            x       y       z     vdW  Elec       q    Type
REMARK                         _______ _______ _______ _____ _____    ______ ____
ROOT
ATOM      1  O   UNL     1      -0.156   3.304  24.207  0.00  0.00    -0.220 OA
ATOM      2  C   UNL     1      -0.345   2.585  24.564  0.00  0.00    +0.181 C 
ATOM      3  C   UNL     1       0.202   1.968  24.562  0.00  0.00    +0.038 C 
ATOM      4  C   UNL     1       0.013   1.248  24.919  0.00  0.00    +0.033 C 
ATOM      5  C   UNL     1      -0.723   1.147  25.277  0.00  0.00    +0.121 C 
ATOM     18  O   UNL     1      -1.270   1.765  25.279  0.00  0.00    -0.354 OA
ATOM     19  C   UNL     1      -1.081   2.484  24.922  0.00  0.00    +0.167 C 
ENDROOT
BRANCH   5   6
ATOM      6  C   UNL     1      -0.912   0.427  25.634  0.00  0.00    +0.079 C 
BRANCH   6   7
ATOM      7  C   UNL     1      -1.241  -0.182  25.185  0.00  0.00    +0.103 A 
ATOM      8  N   UNL     1      -0.840  -0.650  24.635  0.00  0.00    -0.081 NA
ATOM      9  O   UNL     1      -1.380  -1.187  24.317  0.00  0.00    -0.354 OA
ATOM     10  C   UNL     1      -2.114  -1.051  24.670  0.00  0.00    +0.177 A 
ATOM     11  C   UNL     1      -2.028  -0.430  25.206  0.00  0.00    +0.058 A 
BRANCH  10  12
ATOM     12  C   UNL     1      -2.811  -1.463  24.514  0.00  0.00    +0.037 A 
ATOM     13  C   UNL     1      -2.874  -2.259  24.722  0.00  0.00    +0.003 A 
ATOM     14  C   UNL     1      -3.572  -2.672  24.565  0.00  0.00    +0.000 A 
ATOM     15  C   UNL     1      -4.205  -2.289  24.201  0.00  0.00    +0.000 A 
ATOM     16  C   UNL     1      -4.141  -1.493  23.993  0.00  0.00    +0.000 A 
ATOM     17  C   UNL     1      -3.444  -1.081  24.149  0.00  0.00    +0.003 A 
ENDBRANCH  10  12
ENDBRANCH   6   7
ENDBRANCH   5   6
BRANCH  19  20
ATOM     20  C   UNL     1      -1.628   3.101  24.924  0.00  0.00    +0.147 C 
BRANCH  20  21
ATOM     21  N   UNL     1      -2.391   2.974  25.215  0.00  0.00    -0.200 NA
ATOM     22  C   UNL     1      -2.966   3.559  25.129  0.00  0.00    +0.286 C 
ATOM     23  O   UNL     1      -2.781   4.268  24.753  0.00  0.00    -0.269 OA
BRANCH  22  24
ATOM     24  C   UNL     1      -3.729   3.433  25.420  0.00  0.00    +0.291 C 
BRANCH  24  25
ATOM     25  O   UNL     1      -4.353   3.303  24.896  0.00  0.00    -0.466 OA
BRANCH  25  26
ATOM     26  C   UNL     1      -4.982   2.815  25.118  0.00  0.00    +0.139 A 
ATOM     27  C   UNL     1      -5.409   2.981  25.804  0.00  0.00    +0.037 A 
ATOM     28  C   UNL     1      -6.038   2.494  26.025  0.00  0.00    +0.003 A 
ATOM     29  C   UNL     1      -6.238   1.842  25.561  0.00  0.00    +0.000 A 
ATOM     30  C   UNL     1      -5.810   1.678  24.875  0.00  0.00    +0.003 A 
ATOM     31  C   UNL     1      -5.182   2.164  24.654  0.00  0.00    +0.037 A 
ENDBRANCH  25  26
ENDBRANCH  24  25
ENDBRANCH  22  24
ENDBRANCH  20  21
ENDBRANCH  19  20
TORSDOF 8
ENDMDL
MODEL 6
REMARK VINA RESULT:     -12.0      1.323      3.720
REMARK  Name = 
REMARK  8 active torsions:
REMARK  status: ('A' for Active; 'I' for Inactive)
REMARK    1  A    between atoms: C_5  and  C_6
REMARK    2  A    between atoms: C_6  and  C_7
REMARK    3  A    between atoms: C_10  and  C_12
REMARK    4  A    between atoms: C_19  and  C_20
REMARK    5  A    between atoms: C_20  and  N_21
REMARK    6  A    between atoms: C_22  and  C_24
REMARK    7  A    between atoms: C_24  and  O_25
REMARK    8  A    between atoms: O_25  and  C_26
REMARK                            x       y       z     vdW  Elec       q    Type
REMARK                         _______ _______ _______ _____ _____    ______ ____
ROOT
ATOM      1  O   UNL     1      -4.445   3.867  26.157  0.00  0.00    -0.220 OA
ATOM      2  C   UNL     1      -3.715   3.741  25.795  0.00  0.00    +0.181 C 
ATOM      3  C   UNL     1      -3.085   4.251  25.949  0.00  0.00    +0.038 C 
ATOM      4  C   UNL     1      -2.354   4.125  25.587  0.00  0.00    +0.033 C 
ATOM      5  C   UNL     1      -2.254   3.489  25.072  0.00  0.00    +0.121 C 
ATOM     18  O   UNL     1      -2.884   2.978  24.918  0.00  0.00    -0.354 OA
ATOM     19  C   UNL     1      -3.614   3.105  25.280  0.00  0.00    +0.167 C 
ENDROOT
BRANCH   5   6
ATOM      6  C   UNL     1      -1.522   3.363  24.710  0.00  0.00    +0.079 C 
BRANCH   6   7
ATOM      7  C   UNL     1      -1.092   2.680  24.879  0.00  0.00    +0.103 A 
ATOM      8  N   UNL     1      -0.614   2.559  25.541  0.00  0.00    -0.081 NA
ATOM      9  O   UNL     1      -0.291   1.802  25.486  0.00  0.00    -0.354 OA
ATOM     10  C   UNL     1      -0.568   1.455  24.790  0.00  0.00    +0.177 A 
ATOM     11  C   UNL     1      -1.063   1.998  24.415  0.00  0.00    +0.058 A 
BRANCH  10  12
ATOM     12  C   UNL     1      -0.383   0.699  24.518  0.00  0.00    +0.037 A 
ATOM     13  C   UNL     1      -0.521   0.042  24.999  0.00  0.00    +0.003 A 
ATOM     14  C   UNL     1      -0.335  -0.715  24.726  0.00  0.00    +0.000 A 
ATOM     15  C   UNL     1      -0.013  -0.814  23.974  0.00  0.00    +0.000 A 
ATOM     16  C   UNL     1       0.125  -0.157  23.493  0.00  0.00    +0.000 A 
ATOM     17  C   UNL     1      -0.061   0.598  23.766  0.00  0.00    +0.003 A 
ENDBRANCH  10  12
ENDBRANCH   6   7
ENDBRANCH   5   6
BRANCH  19  20
ATOM     20  C   UNL     1      -4.244   2.595  25.126  0.00  0.00    +0.147 C 
BRANCH  20  21
ATOM     21  N   UNL     1      -4.137   1.778  25.187  0.00  0.00    -0.200 NA
ATOM     22  C   UNL     1      -4.735   1.265  24.944  0.00  0.00    +0.286 C 
ATOM     23  O   UNL     1      -5.439   1.567  24.640  0.00  0.00    -0.269 OA
BRANCH  22  24
ATOM     24  C   UNL     1      -4.628   0.449  25.005  0.00  0.00    +0.291 C 
BRANCH  24  25
ATOM     25  O   UNL     1      -4.232   0.040  24.408  0.00  0.00    -0.466 OA
BRANCH  25  26
ATOM     26  C   UNL     1      -4.050  -0.759  24.508  0.00  0.00    +0.139 A 
ATOM     27  C   UNL     1      -4.130  -1.282  23.874  0.00  0.00    +0.037 A 
ATOM     28  C   UNL     1      -3.948  -2.081  23.974  0.00  0.00    +0.003 A 
ATOM     29  C   UNL     1      -3.685  -2.357  24.706  0.00  0.00    +0.000 A 
ATOM     30  C   UNL     1      -3.605  -1.833  25.338  0.00  0.00    +0.003 A 
ATOM     31  C   UNL     1      -3.787  -1.035  25.240  0.00  0.00    +0.037 A 
ENDBRANCH  25  26
ENDBRANCH  24  25
ENDBRANCH  22  24
ENDBRANCH  20  21
ENDBRANCH  19  20
TORSDOF 8
ENDMDL
MODEL 7
REMARK VINA RESULT:     -11.9      1.458      3.846
REMARK  Name = 
REMARK  8 active torsions:
REMARK  status: ('A' for Active; 'I' for Inactive)
REMARK    1  A    between atoms: C_5  and  C_6
REMARK    2  A    between atoms: C_6  and  C_7
REMARK    3  A    between atoms: C_10  and  C_12
REMARK    4  A    between atoms: C_19  and  C_20
REMARK    5  A    between atoms: C_20  and  N_21
REMARK    6  A    between atoms: C_22  and  C_24
REMARK    7  A    between atoms: C_24  and  O_25
REMARK    8  A    between atoms: O_25  and  C_26
REMARK                            x       y       z     vdW  Elec       q    Type
REMARK                         _______ _______ _______ _____ _____    ______ ____
ROOT
ATOM      1  O   UNL     1      -6.323   1.658  25.716  0.00  0.00    -0.220 OA
ATOM      2  C   UNL     1      -5.719   2.172  25.495  0.00  0.00    +0.181 C 
ATOM      3  C   UNL     1      -5.784   2.979  25.654  0.00  0.00    +0.038 C 
ATOM      4  C   UNL     1      -5.179   3.494  25.433  0.00  0.00    +0.033 C 
ATOM      5  C   UNL     1      -4.508   3.202  25.051  0.00  0.00    +0.121 C 
ATOM     18  O   UNL     1      -4.442   2.395  24.891  0.00  0.00    -0.354 OA
ATOM     19  C   UNL     1      -5.048   1.881  25.113  0.00  0.00    +0.167 C 
ENDROOT
BRANCH   5   6
ATOM      6  C   UNL     1      -3.902   3.718  24.829  0.00  0.00    +0.079 C 
BRANCH   6   7
ATOM      7  C   UNL     1      -3.170   3.680  25.208  0.00  0.00    +0.103 A 
ATOM      8  N   UNL     1      -2.962   4.077  25.902  0.00  0.00    -0.081 NA
ATOM      9  O   UNL     1      -2.181   3.881  26.082  0.00  0.00    -0.354 OA
ATOM     10  C   UNL     1      -1.907   3.364  25.500  0.00  0.00    +0.177 A 
ATOM     11  C   UNL     1      -2.518   3.240  24.960  0.00  0.00    +0.058 A 
BRANCH  10  12
ATOM     12  C   UNL     1      -1.154   3.030  25.465  0.00  0.00    +0.037 A 
ATOM     13  C   UNL     1      -0.763   2.818  26.160  0.00  0.00    +0.003 A 
ATOM     14  C   UNL     1      -0.009   2.484  26.124  0.00  0.00    +0.000 A 
ATOM     15  C   UNL     1       0.353   2.362  25.394  0.00  0.00    +0.000 A 
ATOM     16  C   UNL     1      -0.037   2.573  24.698  0.00  0.00    +0.000 A 
ATOM     17  C   UNL     1      -0.790   2.907  24.735  0.00  0.00    +0.003 A 
ENDBRANCH  10  12
ENDBRANCH   6   7
ENDBRANCH   5   6
BRANCH  19  20
ATOM     20  C   UNL     1      -4.982   1.074  24.953  0.00  0.00    +0.147 C 
BRANCH  20  21
ATOM     21  N   UNL     1      -4.287   0.672  25.145  0.00  0.00    -0.200 NA
ATOM     22  C   UNL     1      -4.130  -0.063  24.805  0.00  0.00    +0.286 C 
ATOM     23  O   UNL     1      -4.665  -0.396  24.274  0.00  0.00    -0.269 OA
BRANCH  22  24
ATOM     24  C   UNL     1      -3.435  -0.466  24.997  0.00  0.00    +0.291 C 
BRANCH  24  25
ATOM     25  O   UNL     1      -2.717  -0.229  24.666  0.00  0.00    -0.466 OA
BRANCH  25  26
ATOM     26  C   UNL     1      -2.016  -0.601  24.893  0.00  0.00    +0.139 A 
ATOM     27  C   UNL     1      -1.486  -0.867  24.320  0.00  0.00    +0.037 A 
ATOM     28  C   UNL     1      -0.785  -1.239  24.547  0.00  0.00    +0.003 A 
ATOM     29  C   UNL     1      -0.615  -1.345  25.347  0.00  0.00    +0.000 A 
ATOM     30  C   UNL     1      -1.145  -1.079  25.920  0.00  0.00    +0.003 A 
ATOM     31  C   UNL     1      -1.845  -0.707  25.694  0.00  0.00    +0.037 A 
ENDBRANCH  25  26
ENDBRANCH  24  25
ENDBRANCH  22  24
ENDBRANCH  20  21
ENDBRANCH  19  20
TORSDOF 8
ENDMDL
