MODEL 1
REMARK VINA RESULT:      -8.0      0.000      0.000
REMARK  Name = 
REMARK  9 active torsions:
REMARK  status: ('A' for Active; 'I' for Inactive)
REMARK    1  A    between atoms: O_2  and  C_3
REMARK    2  A    between atoms: C_3  and  C_5
REMARK    3  A    between atoms: C_10  and  C_11
REMARK    4  A    between atoms: C_11  and  C_12
REMARK    5  A    between atoms: C_14  and  C_15
REMARK    6  A    between atoms: C_18  and  C_19
REMARK    7  A    between atoms: C_19  and  N_20
REMARK    8  A    between atoms: N_20  and  C_21
REMARK    9  A    between atoms: C_21  and  C_22
REMARK                            x       y       z     vdW  Elec       q    Type
REMARK                         _______ _______ _______ _____ _____    ______ ____
ROOT
ATOM     12  C   UNL     1      -0.618   1.993  24.822  0.00  0.00    +0.026 C 
ATOM     13  C   UNL     1      -0.831   1.199  24.752  0.00  0.00    +0.005 C 
ATOM     14  C   UNL     1      -0.357   0.682  24.319  0.00  0.00    +0.006 C 
ATOM     18  C   UNL     1       0.330   0.957  23.956  0.00  0.00    +0.039 C 
ATOM     28  C   UNL     1       0.543   1.751  24.026  0.00  0.00    -0.033 C 
ATOM     29  C   UNL     1       0.070   2.269  24.458  0.00  0.00    -0.048 C 
ATOM     30  C   UNL     1       0.283   3.063  24.528  0.00  0.00    +0.026 C 
ENDROOT
BRANCH  14  15
ATOM     15  C   UNL     1      -0.570  -0.112  24.249  0.00  0.00    +0.000 C 
ATOM     16  C   UNL     1      -0.378  -0.646  24.848  0.00  0.00    +0.000 C 
ATOM     17  C   UNL     1      -0.976  -0.374  23.580  0.00  0.00    +0.000 C 
ENDBRANCH  14  15
BRANCH  12  11
ATOM     11  C   UNL     1      -1.092   2.511  25.255  0.00  0.00    +0.070 C 
BRANCH  11  10
ATOM      5  C   UNL     1      -4.608   2.658  24.814  0.00  0.00    +0.077 A 
ATOM      6  C   UNL     1      -4.016   2.390  25.321  0.00  0.00    +0.027 A 
ATOM      7  C   UNL     1      -3.223   2.518  25.134  0.00  0.00    +0.100 A 
ATOM      8  C   UNL     1      -3.022   2.914  24.438  0.00  0.00    +0.100 A 
ATOM      9  N   UNL     1      -2.200   2.960  24.399  0.00  0.00    -0.229 NA
ATOM     10  C   UNL     1      -1.892   2.592  25.070  0.00  0.00    +0.139 A 
ATOM     31  N   UNL     1      -2.524   2.319  25.524  0.00  0.00    -0.229 NA
ATOM     32  C   UNL     1      -3.615   3.182  23.930  0.00  0.00    +0.021 A 
ATOM     33  C   UNL     1      -4.408   3.054  24.118  0.00  0.00    +0.008 A 
BRANCH   5   3
ATOM      3  C   UNL     1      -5.401   2.530  25.001  0.00  0.00    +0.341 C 
ATOM      4  O   UNL     1      -5.812   3.084  25.453  0.00  0.00    -0.245 OA
BRANCH   3   2
ATOM      1  C   UNL     1      -6.555   1.688  24.977  0.00  0.00    +0.256 C 
ATOM      2  O   UNL     1      -5.783   1.848  24.736  0.00  0.00    -0.441 OA
ENDBRANCH   3   2
ENDBRANCH   5   3
ENDBRANCH  11  10
ENDBRANCH  12  11
BRANCH  18  19
ATOM     19  C   UNL     1       0.805   0.440  23.523  0.00  0.00    +0.093 C 
BRANCH  19  20
ATOM     20  N   UNL     1       1.584   0.643  23.346  0.00  0.00    -0.213 NA
BRANCH  20  21
ATOM     21  C   UNL     1       2.034   0.163  22.849  0.00  0.00    +0.115 C 
BRANCH  21  22
ATOM     22  C   UNL     1       2.858   0.208  22.868  0.00  0.00    -0.002 A 
ATOM     23  C   UNL     1       3.298  -0.408  23.197  0.00  0.00    +0.018 A 
ATOM     24  C   UNL     1       4.122  -0.362  23.216  0.00  0.00    +0.099 A 
ATOM     25  N   UNL     1       4.505   0.299  22.905  0.00  0.00    -0.242 NA
ATOM     26  C   UNL     1       4.066   0.914  22.577  0.00  0.00    +0.099 A 
ATOM     27  C   UNL     1       3.242   0.869  22.558  0.00  0.00    +0.018 A 
ENDBRANCH  21  22
ENDBRANCH  20  21
ENDBRANCH  19  20
ENDBRANCH  18  19
TORSDOF 9
ENDMDL
MODEL 2
REMARK VINA RESULT:      -7.9      2.711      6.754
REMARK  Name = 
REMARK  9 active torsions:
REMARK  status: ('A' for Active; 'I' for Inactive)
REMARK    1  A    between atoms: O_2  and  C_3
REMARK    2  A    between atoms: C_3  and  C_5
REMARK    3  A    between atoms: C_10  and  C_11
REMARK    4  A    between atoms: C_11  and  C_12
REMARK    5  A    between atoms: C_14  and  C_15
REMARK    6  A    between atoms: C_18  and  C_19
REMARK    7  A    between atoms: C_19  and  N_20
REMARK    8  A    between atoms: N_20  and  C_21
REMARK    9  A    between atoms: C_21  and  C_22
REMARK                            x       y       z     vdW  Elec       q    Type
REMARK                         _______ _______ _______ _____ _____    ______ ____
ROOT
ATOM     12  C   UNL     1      -0.912   0.355  24.409  0.00  0.00    +0.026 C 
ATOM     13  C   UNL     1      -0.622   1.113  24.559  0.00  0.00    +0.005 C 
ATOM     14  C   UNL     1      -1.145   1.743  24.656  0.00  0.00    +0.006 C 
ATOM     18  C   UNL     1      -1.958   1.617  24.602  0.00  0.00    +0.039 C 
ATOM     28  C   UNL     1      -2.249   0.860  24.452  0.00  0.00    -0.033 C 
ATOM     29  C   UNL     1      -1.727   0.229  24.355  0.00  0.00    -0.048 C 
ATOM     30  C   UNL     1      -2.017  -0.529  24.205  0.00  0.00    +0.026 C 
ENDROOT
BRANCH  14  15
ATOM     15  C   UNL     1      -0.854   2.501  24.806  0.00  0.00    +0.000 C 
ATOM     16  C   UNL     1      -0.720   3.023  24.182  0.00  0.00    +0.000 C 
ATOM     17  C   UNL     1      -0.698   2.737  25.582  0.00  0.00    +0.000 C 
ENDBRANCH  14  15
BRANCH  12  11
ATOM     11  C   UNL     1      -0.390  -0.276  24.312  0.00  0.00    +0.070 C 
BRANCH  11  10
ATOM      5  C   UNL     1       2.677   0.204  22.597  0.00  0.00    +0.077 A 
ATOM      6  C   UNL     1       2.321   0.247  23.339  0.00  0.00    +0.027 A 
ATOM      7  C   UNL     1       1.523   0.057  23.426  0.00  0.00    +0.100 A 
ATOM      8  C   UNL     1       1.081  -0.177  22.769  0.00  0.00    +0.100 A 
ATOM      9  N   UNL     1       0.311  -0.330  23.021  0.00  0.00    -0.229 NA
ATOM     10  C   UNL     1       0.276  -0.191  23.834  0.00  0.00    +0.139 A 
ATOM     31  N   UNL     1       1.025   0.048  24.083  0.00  0.00    -0.229 NA
ATOM     32  C   UNL     1       1.438  -0.220  22.026  0.00  0.00    +0.021 A 
ATOM     33  C   UNL     1       2.236  -0.030  21.940  0.00  0.00    +0.008 A 
BRANCH   5   3
ATOM      3  C   UNL     1       3.475   0.394  22.510  0.00  0.00    +0.341 C 
ATOM      4  O   UNL     1       3.716   0.889  21.896  0.00  0.00    -0.245 OA
BRANCH   3   2
ATOM      1  C   UNL     1       4.807   0.370  23.026  0.00  0.00    +0.256 C 
ATOM      2  O   UNL     1       4.032   0.091  23.038  0.00  0.00    -0.441 OA
ENDBRANCH   3   2
ENDBRANCH   5   3
ENDBRANCH  11  10
ENDBRANCH  12  11
BRANCH  18  19
ATOM     19  C   UNL     1      -2.481   2.248  24.699  0.00  0.00    +0.093 C 
BRANCH  19  20
ATOM     20  N   UNL     1      -3.290   2.106  24.769  0.00  0.00    -0.213 NA
BRANCH  20  21
ATOM     21  C   UNL     1      -3.827   2.728  24.695  0.00  0.00    +0.115 C 
BRANCH  21  22
ATOM     22  C   UNL     1      -4.594   2.647  24.988  0.00  0.00    -0.002 A 
ATOM     23  C   UNL     1      -5.110   2.098  24.649  0.00  0.00    +0.018 A 
ATOM     24  C   UNL     1      -5.877   2.017  24.942  0.00  0.00    +0.099 A 
ATOM     25  N   UNL     1      -6.129   2.485  25.573  0.00  0.00    -0.242 NA
ATOM     26  C   UNL     1      -5.615   3.034  25.911  0.00  0.00    +0.099 A 
ATOM     27  C   UNL     1      -4.847   3.115  25.619  0.00  0.00    +0.018 A 
ENDBRANCH  21  22
ENDBRANCH  20  21
ENDBRANCH  19  20
ENDBRANCH  18  19
TORSDOF 9
ENDMDL
MODEL 3
REMARK VINA RESULT:      -7.8      1.263      2.133
REMARK  Name = 
REMARK  9 active torsions:
REMARK  status: ('A' for Active; 'I' for Inactive)
REMARK    1  A    between atoms: O_2  and  C_3
REMARK    2  A    between atoms: C_3  and  C_5
REMARK    3  A    between atoms: C_10  and  C_11
REMARK    4  A    between atoms: C_11  and  C_12
REMARK    5  A    between atoms: C_14  and  C_15
REMARK    6  A    between atoms: C_18  and  C_19
REMARK    7  A    between atoms: C_19  and  N_20
REMARK    8  A    between atoms: N_20  and  C_21
REMARK    9  A    between atoms: C_21  and  C_22
REMARK                            x       y       z     vdW  Elec       q    Type
REMARK                         _______ _______ _______ _____ _____    ______ ____
ROOT
ATOM     12  C   UNL     1      -1.019  -0.298  24.678  0.00  0.00    +0.026 C 
ATOM     13  C   UNL     1      -0.887   0.513  24.599  0.00  0.00    +0.005 C 
ATOM     14  C   UNL     1      -0.259   0.785  24.139  0.00  0.00    +0.006 C 
ATOM     18  C   UNL     1       0.237   0.248  23.758  0.00  0.00    +0.039 C 
ATOM     28  C   UNL     1       0.106  -0.562  23.837  0.00  0.00    -0.033 C 
ATOM     29  C   UNL     1      -0.522  -0.836  24.297  0.00  0.00    -0.048 C 
ATOM     30  C   UNL     1      -0.654  -1.646  24.376  0.00  0.00    +0.026 C 
ENDROOT
BRANCH  14  15
ATOM     15  C   UNL     1      -0.127   1.596  24.059  0.00  0.00    +0.000 C 
ATOM     16  C   UNL     1      -0.445   2.005  23.418  0.00  0.00    +0.000 C 
ATOM     17  C   UNL     1       0.324   1.998  24.622  0.00  0.00    +0.000 C 
ENDBRANCH  14  15
BRANCH  12  11
ATOM     11  C   UNL     1      -1.647  -0.571  25.138  0.00  0.00    +0.070 C 
BRANCH  11  10
ATOM      5  C   UNL     1      -4.747   1.152  25.074  0.00  0.00    +0.077 A 
ATOM      6  C   UNL     1      -4.002   1.144  25.426  0.00  0.00    +0.027 A 
ATOM      7  C   UNL     1      -3.450   0.569  25.215  0.00  0.00    +0.100 A 
ATOM      8  C   UNL     1      -3.645  -0.000  24.649  0.00  0.00    +0.100 A 
ATOM      9  N   UNL     1      -2.993  -0.496  24.552  0.00  0.00    -0.229 NA
ATOM     10  C   UNL     1      -2.396  -0.234  25.057  0.00  0.00    +0.139 A 
ATOM     31  N   UNL     1      -2.679   0.424  25.466  0.00  0.00    -0.229 NA
ATOM     32  C   UNL     1      -4.391   0.007  24.296  0.00  0.00    +0.021 A 
ATOM     33  C   UNL     1      -4.941   0.583  24.509  0.00  0.00    +0.008 A 
BRANCH   5   3
ATOM      3  C   UNL     1      -5.298   1.727  25.286  0.00  0.00    +0.341 C 
ATOM      4  O   UNL     1      -5.970   1.517  25.715  0.00  0.00    -0.245 OA
BRANCH   3   2
ATOM      1  C   UNL     1      -5.594   3.116  25.449  0.00  0.00    +0.256 C 
ATOM      2  O   UNL     1      -5.178   2.514  25.069  0.00  0.00    -0.441 OA
ENDBRANCH   3   2
ENDBRANCH   5   3
ENDBRANCH  11  10
ENDBRANCH  12  11
BRANCH  18  19
ATOM     19  C   UNL     1       0.866   0.520  23.298  0.00  0.00    +0.093 C 
BRANCH  19  20
ATOM     20  N   UNL     1       1.560   0.078  23.243  0.00  0.00    -0.213 NA
BRANCH  20  21
ATOM     21  C   UNL     1       2.087   0.211  22.622  0.00  0.00    +0.115 C 
BRANCH  21  22
ATOM     22  C   UNL     1       2.899   0.220  22.766  0.00  0.00    -0.002 A 
ATOM     23  C   UNL     1       3.336   0.906  22.626  0.00  0.00    +0.018 A 
ATOM     24  C   UNL     1       4.148   0.915  22.770  0.00  0.00    +0.099 A 
ATOM     25  N   UNL     1       4.524   0.237  23.054  0.00  0.00    -0.242 NA
ATOM     26  C   UNL     1       4.088  -0.448  23.194  0.00  0.00    +0.099 A 
ATOM     27  C   UNL     1       3.275  -0.457  23.051  0.00  0.00    +0.018 A 
ENDBRANCH  21  22
ENDBRANCH  20  21
ENDBRANCH  19  20
ENDBRANCH  18  19
TORSDOF 9
ENDMDL
MODEL 4
REMARK VINA RESULT:      -7.7      2.849      6.586
REMARK  Name = 
REMARK  9 active torsions:
REMARK  status: ('A' for Active; 'I' for Inactive)
REMARK    1  A    between atoms: O_2  and  C_3
REMARK    2  A    between atoms: C_3  and  C_5
REMARK    3  A    between atoms: C_10  and  C_11
REMARK    4  A    between atoms: C_11  and  C_12
REMARK    5  A    between atoms: C_14  and  C_15
REMARK    6  A    between atoms: C_18  and  C_19
REMARK    7  A    between atoms: C_19  and  N_20
REMARK    8  A    between atoms: N_20  and  C_21
REMARK    9  A    between atoms: C_21  and  C_22
REMARK                            x       y       z     vdW  Elec       q    Type
REMARK                         _______ _______ _______ _____ _____    ______ ____
ROOT
ATOM     12  C   UNL     1      -2.028  -0.943  25.119  0.00  0.00    +0.026 C 
ATOM     13  C   UNL     1      -2.496  -1.154  24.474  0.00  0.00    +0.005 C 
ATOM     14  C   UNL     1      -3.286  -0.917  24.443  0.00  0.00    +0.006 C 
ATOM     18  C   UNL     1      -3.607  -0.469  25.056  0.00  0.00    +0.039 C 
ATOM     28  C   UNL     1      -3.139  -0.258  25.702  0.00  0.00    -0.033 C 
ATOM     29  C   UNL     1      -2.349  -0.495  25.734  0.00  0.00    -0.048 C 
ATOM     30  C   UNL     1      -1.881  -0.284  26.380  0.00  0.00    +0.026 C 
ENDROOT
BRANCH  14  15
ATOM     15  C   UNL     1      -3.754  -1.127  23.797  0.00  0.00    +0.000 C 
ATOM     16  C   UNL     1      -3.742  -0.669  23.111  0.00  0.00    +0.000 C 
ATOM     17  C   UNL     1      -4.235  -1.798  23.837  0.00  0.00    +0.000 C 
ENDBRANCH  14  15
BRANCH  12  11
ATOM     11  C   UNL     1      -1.238  -1.179  25.152  0.00  0.00    +0.070 C 
BRANCH  11  10
ATOM      5  C   UNL     1       1.267   0.036  22.954  0.00  0.00    +0.077 A 
ATOM      6  C   UNL     1       0.886  -0.649  23.208  0.00  0.00    +0.027 A 
ATOM      7  C   UNL     1       0.294  -0.605  23.781  0.00  0.00    +0.100 A 
ATOM      8  C   UNL     1       0.083   0.126  24.100  0.00  0.00    +0.100 A 
ATOM      9  N   UNL     1      -0.516  -0.000  24.652  0.00  0.00    -0.229 NA
ATOM     10  C   UNL     1      -0.676  -0.809  24.674  0.00  0.00    +0.139 A 
ATOM     31  N   UNL     1      -0.175  -1.182  24.136  0.00  0.00    -0.229 NA
ATOM     32  C   UNL     1       0.464   0.813  23.846  0.00  0.00    +0.021 A 
ATOM     33  C   UNL     1       1.056   0.767  23.273  0.00  0.00    +0.008 A 
BRANCH   5   3
ATOM      3  C   UNL     1       1.859  -0.008  22.382  0.00  0.00    +0.341 C 
ATOM      4  O   UNL     1       1.676  -0.265  21.619  0.00  0.00    -0.245 OA
BRANCH   3   2
ATOM      1  C   UNL     1       3.223   0.166  21.996  0.00  0.00    +0.256 C 
ATOM      2  O   UNL     1       2.634   0.203  22.571  0.00  0.00    -0.441 OA
ENDBRANCH   3   2
ENDBRANCH   5   3
ENDBRANCH  11  10
ENDBRANCH  12  11
BRANCH  18  19
ATOM     19  C   UNL     1      -4.397  -0.232  25.025  0.00  0.00    +0.093 C 
BRANCH  19  20
ATOM     20  N   UNL     1      -4.629   0.478  25.373  0.00  0.00    -0.213 NA
BRANCH  20  21
ATOM     21  C   UNL     1      -5.290   0.881  25.089  0.00  0.00    +0.115 C 
BRANCH  21  22
ATOM     22  C   UNL     1      -5.406   1.674  25.286  0.00  0.00    -0.002 A 
ATOM     23  C   UNL     1      -5.862   1.874  25.945  0.00  0.00    +0.018 A 
ATOM     24  C   UNL     1      -5.977   2.666  26.142  0.00  0.00    +0.099 A 
ATOM     25  N   UNL     1      -5.636   3.259  25.681  0.00  0.00    -0.242 NA
ATOM     26  C   UNL     1      -5.181   3.061  25.023  0.00  0.00    +0.099 A 
ATOM     27  C   UNL     1      -5.066   2.268  24.826  0.00  0.00    +0.018 A 
ENDBRANCH  21  22
ENDBRANCH  20  21
ENDBRANCH  19  20
ENDBRANCH  18  19
TORSDOF 9
ENDMDL
MODEL 5
REMARK VINA RESULT:      -7.6      3.773      5.448
REMARK  Name = 
REMARK  9 active torsions:
REMARK  status: ('A' for Active; 'I' for Inactive)
REMARK    1  A    between atoms: O_2  and  C_3
REMARK    2  A    between atoms: C_3  and  C_5
REMARK    3  A    between atoms: C_10  and  C_11
REMARK    4  A    between atoms: C_11  and  C_12
REMARK    5  A    between atoms: C_14  and  C_15
REMARK    6  A    between atoms: C_18  and  C_19
REMARK    7  A    between atoms: C_19  and  N_20
REMARK    8  A    between atoms: N_20  and  C_21
REMARK    9  A    between atoms: C_21  and  C_22
REMARK                            x       y       z     vdW  Elec       q    Type
REMARK                         _______ _______ _______ _____ _____    ______ ____
ROOT
ATOM     12  C   UNL     1      -4.813   1.576  24.780  0.00  0.00    +0.026 C 
ATOM     13  C   UNL     1      -4.407   1.743  24.082  0.00  0.00    +0.005 C 
ATOM     14  C   UNL     1      -4.004   2.459  24.001  0.00  0.00    +0.006 C 
ATOM     18  C   UNL     1      -4.008   3.007  24.616  0.00  0.00    +0.039 C 
ATOM     28  C   UNL     1      -4.415   2.840  25.315  0.00  0.00    -0.033 C 
ATOM     29  C   UNL     1      -4.817   2.125  25.397  0.00  0.00    -0.048 C 
ATOM     30  C   UNL     1      -5.224   1.957  26.095  0.00  0.00    +0.026 C 
ENDROOT
BRANCH  14  15
ATOM     15  C   UNL     1      -3.598   2.626  23.303  0.00  0.00    +0.000 C 
ATOM     16  C   UNL     1      -3.914   3.160  22.758  0.00  0.00    +0.000 C 
ATOM     17  C   UNL     1      -2.874   2.259  23.148  0.00  0.00    +0.000 C 
ENDBRANCH  14  15
BRANCH  12  11
ATOM     11  C   UNL     1      -5.216   0.861  24.863  0.00  0.00    +0.070 C 
BRANCH  11  10
ATOM      5  C   UNL     1      -3.276  -2.099  24.620  0.00  0.00    +0.077 A 
ATOM      6  C   UNL     1      -3.360  -1.397  25.043  0.00  0.00    +0.027 A 
ATOM      7  C   UNL     1      -3.958  -0.864  24.845  0.00  0.00    +0.100 A 
ATOM      8  C   UNL     1      -4.472  -1.034  24.222  0.00  0.00    +0.100 A 
ATOM      9  N   UNL     1      -5.005  -0.409  24.153  0.00  0.00    -0.229 NA
ATOM     10  C   UNL     1      -4.821   0.148  24.733  0.00  0.00    +0.139 A 
ATOM     31  N   UNL     1      -4.175  -0.134  25.160  0.00  0.00    -0.229 NA
ATOM     32  C   UNL     1      -4.387  -1.738  23.798  0.00  0.00    +0.021 A 
ATOM     33  C   UNL     1      -3.789  -2.269  23.997  0.00  0.00    +0.008 A 
BRANCH   5   3
ATOM      3  C   UNL     1      -2.678  -2.631  24.819  0.00  0.00    +0.341 C 
ATOM      4  O   UNL     1      -2.848  -3.282  25.297  0.00  0.00    -0.245 OA
BRANCH   3   2
ATOM      1  C   UNL     1      -1.271  -2.853  24.934  0.00  0.00    +0.256 C 
ATOM      2  O   UNL     1      -1.911  -2.514  24.540  0.00  0.00    -0.441 OA
ENDBRANCH   3   2
ENDBRANCH   5   3
ENDBRANCH  11  10
ENDBRANCH  12  11
BRANCH  18  19
ATOM     19  C   UNL     1      -3.606   3.723  24.535  0.00  0.00    +0.093 C 
BRANCH  19  20
ATOM     20  N   UNL     1      -3.040   3.944  25.093  0.00  0.00    -0.213 NA
BRANCH  20  21
ATOM     21  C   UNL     1      -2.726   4.707  25.082  0.00  0.00    +0.115 C 
BRANCH  21  22
ATOM     22  C   UNL     1      -1.908   4.816  25.075  0.00  0.00    -0.002 A 
ATOM     23  C   UNL     1      -1.413   4.244  25.406  0.00  0.00    +0.018 A 
ATOM     24  C   UNL     1      -0.595   4.352  25.399  0.00  0.00    +0.099 A 
ATOM     25  N   UNL     1      -0.273   5.033  25.061  0.00  0.00    -0.242 NA
ATOM     26  C   UNL     1      -0.767   5.604  24.730  0.00  0.00    +0.099 A 
ATOM     27  C   UNL     1      -1.585   5.495  24.737  0.00  0.00    +0.018 A 
ENDBRANCH  21  22
ENDBRANCH  20  21
ENDBRANCH  19  20
ENDBRANCH  18  19
TORSDOF 9
ENDMDL
MODEL 6
REMARK VINA RESULT:      -7.6      1.241      2.003
REMARK  Name = 
REMARK  9 active torsions:
REMARK  status: ('A' for Active; 'I' for Inactive)
REMARK    1  A    between atoms: O_2  and  C_3
REMARK    2  A    between atoms: C_3  and  C_5
REMARK    3  A    between atoms: C_10  and  C_11
REMARK    4  A    between atoms: C_11  and  C_12
REMARK    5  A    between atoms: C_14  and  C_15
REMARK    6  A    between atoms: C_18  and  C_19
REMARK    7  A    between atoms: C_19  and  N_20
REMARK    8  A    between atoms: N_20  and  C_21
REMARK    9  A    between atoms: C_21  and  C_22
REMARK                            x       y       z     vdW  Elec       q    Type
REMARK                         _______ _______ _______ _____ _____    ______ ____
ROOT
ATOM     12  C   UNL     1      -2.219   2.345  23.531  0.00  0.00    +0.026 C 
ATOM     13  C   UNL     1      -1.822   2.396  24.253  0.00  0.00    +0.005 C 
ATOM     14  C   UNL     1      -1.160   1.924  24.393  0.00  0.00    +0.006 C 
ATOM     18  C   UNL     1      -0.895   1.402  23.813  0.00  0.00    +0.039 C 
ATOM     28  C   UNL     1      -1.291   1.351  23.091  0.00  0.00    -0.033 C 
ATOM     29  C   UNL     1      -1.953   1.823  22.950  0.00  0.00    -0.048 C 
ATOM     30  C   UNL     1      -2.349   1.772  22.228  0.00  0.00    +0.026 C 
ENDROOT
BRANCH  14  15
ATOM     15  C   UNL     1      -0.764   1.974  25.115  0.00  0.00    +0.000 C 
ATOM     16  C   UNL     1      -0.218   2.578  25.245  0.00  0.00    +0.000 C 
ATOM     17  C   UNL     1      -0.913   1.419  25.708  0.00  0.00    +0.000 C 
ENDBRANCH  14  15
BRANCH  12  11
ATOM     11  C   UNL     1      -2.880   2.817  23.390  0.00  0.00    +0.070 C 
BRANCH  11  10
ATOM      5  C   UNL     1      -5.635   2.466  25.597  0.00  0.00    +0.077 A 
ATOM      6  C   UNL     1      -5.185   2.068  25.032  0.00  0.00    +0.027 A 
ATOM      7  C   UNL     1      -4.554   2.450  24.662  0.00  0.00    +0.100 A 
ATOM      8  C   UNL     1      -4.373   3.230  24.858  0.00  0.00    +0.100 A 
ATOM      9  N   UNL     1      -3.724   3.463  24.406  0.00  0.00    -0.229 NA
ATOM     10  C   UNL     1      -3.504   2.826  23.930  0.00  0.00    +0.139 A 
ATOM     31  N   UNL     1      -4.017   2.201  24.088  0.00  0.00    -0.229 NA
ATOM     32  C   UNL     1      -4.823   3.629  25.424  0.00  0.00    +0.021 A 
ATOM     33  C   UNL     1      -5.453   3.246  25.793  0.00  0.00    +0.008 A 
BRANCH   5   3
ATOM      3  C   UNL     1      -6.265   2.084  25.966  0.00  0.00    +0.341 C 
ATOM      4  O   UNL     1      -6.876   1.764  25.513  0.00  0.00    -0.245 OA
BRANCH   3   2
ATOM      1  C   UNL     1      -6.815   1.503  27.150  0.00  0.00    +0.256 C 
ATOM      2  O   UNL     1      -6.286   2.022  26.789  0.00  0.00    -0.441 OA
ENDBRANCH   3   2
ENDBRANCH   5   3
ENDBRANCH  11  10
ENDBRANCH  12  11
BRANCH  18  19
ATOM     19  C   UNL     1      -0.233   0.929  23.953  0.00  0.00    +0.093 C 
BRANCH  19  20
ATOM     20  N   UNL     1       0.230   0.669  23.323  0.00  0.00    -0.213 NA
BRANCH  20  21
ATOM     21  C   UNL     1       0.829   0.116  23.450  0.00  0.00    +0.115 C 
BRANCH  21  22
ATOM     22  C   UNL     1       1.483   0.094  22.949  0.00  0.00    -0.002 A 
ATOM     23  C   UNL     1       2.195   0.442  23.183  0.00  0.00    +0.018 A 
ATOM     24  C   UNL     1       2.849   0.420  22.681  0.00  0.00    +0.099 A 
ATOM     25  N   UNL     1       2.792   0.052  21.945  0.00  0.00    -0.242 NA
ATOM     26  C   UNL     1       2.082  -0.295  21.711  0.00  0.00    +0.099 A 
ATOM     27  C   UNL     1       1.428  -0.273  22.212  0.00  0.00    +0.018 A 
ENDBRANCH  21  22
ENDBRANCH  20  21
ENDBRANCH  19  20
ENDBRANCH  18  19
TORSDOF 9
ENDMDL
