MODEL 1
REMARK VINA RESULT:      -8.8      0.000      0.000
REMARK  Name = 
REMARK  10 active torsions:
REMARK  status: ('A' for Active; 'I' for Inactive)
REMARK    1  A    between atoms: O_2  and  C_3
REMARK    2  A    between atoms: C_3  and  C_4
REMARK    3  A    between atoms: N_6  and  C_7
REMARK    4  A    between atoms: C_7  and  C_8
REMARK    5  A    between atoms: C_12  and  C_13
REMARK    6  A    between atoms: C_13  and  C_14
REMARK    7  A    between atoms: N_16  and  C_17
REMARK    8  A    between atoms: C_17  and  C_18
REMARK    9  A    between atoms: C_21  and  C_24
REMARK   10  A    between atoms: C_27  and  C_28
REMARK                            x       y       z     vdW  Elec       q    Type
REMARK                         _______ _______ _______ _____ _____    ______ ____
ROOT
ATOM      8  C   UNL     1      -0.534   0.392  24.276  0.00  0.00    +0.043 C 
ATOM      9  C   UNL     1      -0.667  -0.422  24.272  0.00  0.00    -0.033 C 
ATOM     10  C   UNL     1      -1.390  -0.723  24.533  0.00  0.00    -0.048 C 
ATOM     11  C   UNL     1      -1.523  -1.537  24.529  0.00  0.00    +0.026 C 
ATOM     12  C   UNL     1      -1.980  -0.209  24.798  0.00  0.00    +0.027 C 
ATOM     26  C   UNL     1      -1.845   0.605  24.801  0.00  0.00    +0.005 C 
ATOM     27  C   UNL     1      -1.123   0.905  24.540  0.00  0.00    +0.006 C 
ENDROOT
BRANCH  27  28
ATOM     28  C   UNL     1      -0.989   1.720  24.544  0.00  0.00    +0.000 C 
ATOM     29  C   UNL     1      -1.161   2.169  23.875  0.00  0.00    +0.000 C 
ATOM     30  C   UNL     1      -0.683   2.084  25.218  0.00  0.00    +0.000 C 
ENDBRANCH  27  28
BRANCH   8   7
ATOM      7  C   UNL     1       0.189   0.693  24.015  0.00  0.00    +0.119 C 
BRANCH   7   6
ATOM      4  C   UNL     1       1.405   0.516  23.285  0.00  0.00    +0.272 C 
ATOM      5  O   UNL     1       1.716   1.192  23.641  0.00  0.00    -0.271 OA
ATOM      6  N   UNL     1       0.641   0.266  23.473  0.00  0.00    -0.203 NA
BRANCH   4   3
ATOM      3  C   UNL     1       1.856   0.090  22.742  0.00  0.00    +0.229 C 
BRANCH   3   2
ATOM      1  C   UNL     1       3.034   0.049  21.933  0.00  0.00    +0.175 C 
ATOM      2  O   UNL     1       2.651   0.283  22.625  0.00  0.00    -0.342 OA
ENDBRANCH   3   2
ENDBRANCH   4   3
ENDBRANCH   7   6
ENDBRANCH   8   7
BRANCH  12  13
ATOM     13  C   UNL     1      -2.702  -0.510  25.058  0.00  0.00    +0.091 C 
BRANCH  13  14
ATOM     14  C   UNL     1      -3.406  -0.245  24.720  0.00  0.00    +0.242 C 
ATOM     15  O   UNL     1      -3.660  -0.556  23.999  0.00  0.00    -0.273 OA
ATOM     16  N   UNL     1      -3.856   0.331  25.101  0.00  0.00    -0.201 NA
BRANCH  16  17
ATOM     17  C   UNL     1      -4.560   0.596  24.763  0.00  0.00    +0.141 C 
BRANCH  17  18
ATOM     18  C   UNL     1      -4.861   1.337  24.963  0.00  0.00    -0.001 A 
ATOM     19  C   UNL     1      -5.346   1.422  25.625  0.00  0.00    -0.002 A 
ATOM     20  C   UNL     1      -5.647   2.163  25.825  0.00  0.00    +0.010 A 
ATOM     21  C   UNL     1      -5.463   2.821  25.363  0.00  0.00    +0.068 A 
ATOM     22  C   UNL     1      -4.978   2.738  24.701  0.00  0.00    +0.010 A 
ATOM     23  C   UNL     1      -4.677   1.995  24.501  0.00  0.00    -0.002 A 
BRANCH  21  24
ATOM     24  C   UNL     1      -5.764   3.563  25.562  0.00  0.00    +0.100 C 
ATOM     25  N   UNL     1      -6.065   4.305  25.762  0.00  0.00    -0.191 NA
ENDBRANCH  21  24
ENDBRANCH  17  18
ENDBRANCH  16  17
ENDBRANCH  13  14
ENDBRANCH  12  13
TORSDOF 10
ENDMDL
MODEL 2
REMARK VINA RESULT:      -8.7      1.716      3.050
REMARK  Name = 
REMARK  10 active torsions:
REMARK  status: ('A' for Active; 'I' for Inactive)
REMARK    1  A    between atoms: O_2  and  C_3
REMARK    2  A    between atoms: C_3  and  C_4
REMARK    3  A    between atoms: N_6  and  C_7
REMARK    4  A    between atoms: C_7  and  C_8
REMARK    5  A    between atoms: C_12  and  C_13
REMARK    6  A    between atoms: C_13  and  C_14
REMARK    7  A    between atoms: N_16  and  C_17
REMARK    8  A    between atoms: C_17  and  C_18
REMARK    9  A    between atoms: C_21  and  C_24
REMARK   10  A    between atoms: C_27  and  C_28
REMARK                            x       y       z     vdW  Elec       q    Type
REMARK                         _______ _______ _______ _____ _____    ______ ____
ROOT
ATOM      8  C   UNL     1      -0.766   1.941  24.204  0.00  0.00    +0.043 C 
ATOM      9  C   UNL     1      -1.165   1.949  23.483  0.00  0.00    -0.033 C 
ATOM     10  C   UNL     1      -1.983   2.064  23.466  0.00  0.00    -0.048 C 
ATOM     11  C   UNL     1      -2.382   2.072  22.744  0.00  0.00    +0.026 C 
ATOM     12  C   UNL     1      -2.400   2.170  24.170  0.00  0.00    +0.027 C 
ATOM     26  C   UNL     1      -1.999   2.162  24.891  0.00  0.00    +0.005 C 
ATOM     27  C   UNL     1      -1.183   2.048  24.908  0.00  0.00    +0.006 C 
ENDROOT
BRANCH  27  28
ATOM     28  C   UNL     1      -0.782   2.039  25.630  0.00  0.00    +0.000 C 
ATOM     29  C   UNL     1      -0.486   2.741  25.946  0.00  0.00    +0.000 C 
ATOM     30  C   UNL     1      -0.678   1.328  26.035  0.00  0.00    +0.000 C 
ENDBRANCH  27  28
BRANCH   8   7
ATOM      7  C   UNL     1       0.051   1.827  24.222  0.00  0.00    +0.119 C 
BRANCH   7   6
ATOM      4  C   UNL     1       1.201   1.243  23.605  0.00  0.00    +0.272 C 
ATOM      5  O   UNL     1       1.666   1.862  23.885  0.00  0.00    -0.271 OA
ATOM      6  N   UNL     1       0.392   1.225  23.773  0.00  0.00    -0.203 NA
BRANCH   4   3
ATOM      3  C   UNL     1       1.541   0.641  23.156  0.00  0.00    +0.229 C 
BRANCH   3   2
ATOM      1  C   UNL     1       2.670   0.103  22.464  0.00  0.00    +0.175 C 
ATOM      2  O   UNL     1       2.340   0.681  22.951  0.00  0.00    -0.342 OA
ENDBRANCH   3   2
ENDBRANCH   4   3
ENDBRANCH   7   6
ENDBRANCH   8   7
BRANCH  12  13
ATOM     13  C   UNL     1      -3.216   2.285  24.152  0.00  0.00    +0.091 C 
BRANCH  13  14
ATOM     14  C   UNL     1      -3.715   1.765  24.553  0.00  0.00    +0.242 C 
ATOM     15  O   UNL     1      -4.160   2.032  25.194  0.00  0.00    -0.273 OA
ATOM     16  N   UNL     1      -3.769   0.977  24.314  0.00  0.00    -0.201 NA
BRANCH  16  17
ATOM     17  C   UNL     1      -4.268   0.458  24.715  0.00  0.00    +0.141 C 
BRANCH  17  18
ATOM     18  C   UNL     1      -4.129  -0.355  24.686  0.00  0.00    -0.001 A 
ATOM     19  C   UNL     1      -3.795  -0.741  25.334  0.00  0.00    -0.002 A 
ATOM     20  C   UNL     1      -3.655  -1.553  25.304  0.00  0.00    +0.010 A 
ATOM     21  C   UNL     1      -3.850  -1.980  24.625  0.00  0.00    +0.068 A 
ATOM     22  C   UNL     1      -4.184  -1.595  23.977  0.00  0.00    +0.010 A 
ATOM     23  C   UNL     1      -4.324  -0.782  24.007  0.00  0.00    -0.002 A 
BRANCH  21  24
ATOM     24  C   UNL     1      -3.711  -2.793  24.594  0.00  0.00    +0.100 C 
ATOM     25  N   UNL     1      -3.572  -3.606  24.564  0.00  0.00    -0.191 NA
ENDBRANCH  21  24
ENDBRANCH  17  18
ENDBRANCH  16  17
ENDBRANCH  13  14
ENDBRANCH  12  13
TORSDOF 10
ENDMDL
MODEL 3
REMARK VINA RESULT:      -8.6      1.544      2.454
REMARK  Name = 
REMARK  10 active torsions:
REMARK  status: ('A' for Active; 'I' for Inactive)
REMARK    1  A    between atoms: O_2  and  C_3
REMARK    2  A    between atoms: C_3  and  C_4
REMARK    3  A    between atoms: N_6  and  C_7
REMARK    4  A    between atoms: C_7  and  C_8
REMARK    5  A    between atoms: C_12  and  C_13
REMARK    6  A    between atoms: C_13  and  C_14
REMARK    7  A    between atoms: N_16  and  C_17
REMARK    8  A    between atoms: C_17  and  C_18
REMARK    9  A    between atoms: C_21  and  C_24
REMARK   10  A    between atoms: C_27  and  C_28
REMARK                            x       y       z     vdW  Elec       q    Type
REMARK                         _______ _______ _______ _____ _____    ______ ____
ROOT
ATOM      8  C   UNL     1      -0.375   1.283  24.564  0.00  0.00    +0.043 C 
ATOM      9  C   UNL     1       0.010   2.012  24.538  0.00  0.00    -0.033 C 
ATOM     10  C   UNL     1      -0.308   2.661  24.937  0.00  0.00    -0.048 C 
ATOM     11  C   UNL     1       0.077   3.389  24.911  0.00  0.00    +0.026 C 
ATOM     12  C   UNL     1      -1.011   2.580  25.362  0.00  0.00    +0.027 C 
ATOM     26  C   UNL     1      -1.395   1.850  25.387  0.00  0.00    +0.005 C 
ATOM     27  C   UNL     1      -1.078   1.202  24.989  0.00  0.00    +0.006 C 
ENDROOT
BRANCH  27  28
ATOM     28  C   UNL     1      -1.463   0.472  25.014  0.00  0.00    +0.000 C 
ATOM     29  C   UNL     1      -1.993   0.264  24.418  0.00  0.00    +0.000 C 
ATOM     30  C   UNL     1      -1.316  -0.049  25.637  0.00  0.00    +0.000 C 
ENDBRANCH  27  28
BRANCH   8   7
ATOM      7  C   UNL     1      -0.057   0.634  24.165  0.00  0.00    +0.119 C 
BRANCH   7   6
ATOM      4  C   UNL     1       0.895   0.098  23.244  0.00  0.00    +0.272 C 
ATOM      5  O   UNL     1       0.690  -0.666  23.477  0.00  0.00    -0.271 OA
ATOM      6  N   UNL     1       0.521   0.749  23.588  0.00  0.00    -0.203 NA
BRANCH   4   3
ATOM      3  C   UNL     1       1.474   0.212  22.668  0.00  0.00    +0.229 C 
BRANCH   3   2
ATOM      1  C   UNL     1       2.853   0.122  22.307  0.00  0.00    +0.175 C 
ATOM      2  O   UNL     1       2.210  -0.152  22.745  0.00  0.00    -0.342 OA
ENDBRANCH   3   2
ENDBRANCH   4   3
ENDBRANCH   7   6
ENDBRANCH   8   7
BRANCH  12  13
ATOM     13  C   UNL     1      -1.328   3.228  25.761  0.00  0.00    +0.091 C 
BRANCH  13  14
ATOM     14  C   UNL     1      -1.999   3.607  25.465  0.00  0.00    +0.242 C 
ATOM     15  O   UNL     1      -1.918   4.256  24.963  0.00  0.00    -0.273 OA
ATOM     16  N   UNL     1      -2.750   3.337  25.672  0.00  0.00    -0.201 NA
BRANCH  16  17
ATOM     17  C   UNL     1      -3.420   3.716  25.376  0.00  0.00    +0.141 C 
BRANCH  17  18
ATOM     18  C   UNL     1      -4.128   3.299  25.293  0.00  0.00    -0.001 A 
ATOM     19  C   UNL     1      -4.635   3.212  25.937  0.00  0.00    -0.002 A 
ATOM     20  C   UNL     1      -5.342   2.796  25.853  0.00  0.00    +0.010 A 
ATOM     21  C   UNL     1      -5.542   2.466  25.124  0.00  0.00    +0.068 A 
ATOM     22  C   UNL     1      -5.035   2.552  24.479  0.00  0.00    +0.010 A 
ATOM     23  C   UNL     1      -4.327   2.969  24.564  0.00  0.00    -0.002 A 
BRANCH  21  24
ATOM     24  C   UNL     1      -6.249   2.049  25.039  0.00  0.00    +0.100 C 
ATOM     25  N   UNL     1      -6.956   1.632  24.955  0.00  0.00    -0.191 NA
ENDBRANCH  21  24
ENDBRANCH  17  18
ENDBRANCH  16  17
ENDBRANCH  13  14
ENDBRANCH  12  13
TORSDOF 10
ENDMDL
MODEL 4
REMARK VINA RESULT:      -8.3      2.471      4.282
REMARK  Name = 
REMARK  10 active torsions:
REMARK  status: ('A' for Active; 'I' for Inactive)
REMARK    1  A    between atoms: O_2  and  C_3
REMARK    2  A    between atoms: C_3  and  C_4
REMARK    3  A    between atoms: N_6  and  C_7
REMARK    4  A    between atoms: C_7  and  C_8
REMARK    5  A    between atoms: C_12  and  C_13
REMARK    6  A    between atoms: C_13  and  C_14
REMARK    7  A    between atoms: N_16  and  C_17
REMARK    8  A    between atoms: C_17  and  C_18
REMARK    9  A    between atoms: C_21  and  C_24
REMARK   10  A    between atoms: C_27  and  C_28
REMARK                            x       y       z     vdW  Elec       q    Type
REMARK                         _______ _______ _______ _____ _____    ______ ____
ROOT
ATOM      8  C   UNL     1      -3.004   3.748  24.885  0.00  0.00    +0.043 C 
ATOM      9  C   UNL     1      -3.150   3.460  24.126  0.00  0.00    -0.033 C 
ATOM     10  C   UNL     1      -3.826   3.010  23.979  0.00  0.00    -0.048 C 
ATOM     11  C   UNL     1      -3.973   2.722  23.220  0.00  0.00    +0.026 C 
ATOM     12  C   UNL     1      -4.355   2.848  24.591  0.00  0.00    +0.027 C 
ATOM     26  C   UNL     1      -4.208   3.137  25.350  0.00  0.00    +0.005 C 
ATOM     27  C   UNL     1      -3.533   3.586  25.497  0.00  0.00    +0.006 C 
ENDROOT
BRANCH  27  28
ATOM     28  C   UNL     1      -3.385   3.875  26.256  0.00  0.00    +0.000 C 
ATOM     29  C   UNL     1      -2.920   3.441  26.780  0.00  0.00    +0.000 C 
ATOM     30  C   UNL     1      -3.704   4.598  26.491  0.00  0.00    +0.000 C 
ENDBRANCH  27  28
BRANCH   8   7
ATOM      7  C   UNL     1      -2.327   4.198  25.032  0.00  0.00    +0.119 C 
BRANCH   7   6
ATOM      4  C   UNL     1      -0.946   4.446  24.762  0.00  0.00    +0.272 C 
ATOM      5  O   UNL     1      -1.039   5.227  25.005  0.00  0.00    -0.271 OA
ATOM      6  N   UNL     1      -1.591   3.930  24.775  0.00  0.00    -0.203 NA
BRANCH   4   3
ATOM      3  C   UNL     1      -0.209   4.177  24.506  0.00  0.00    +0.229 C 
BRANCH   3   2
ATOM      1  C   UNL     1       0.508   2.961  24.287  0.00  0.00    +0.175 C 
ATOM      2  O   UNL     1       0.092   3.464  24.791  0.00  0.00    -0.342 OA
ENDBRANCH   3   2
ENDBRANCH   4   3
ENDBRANCH   7   6
ENDBRANCH   8   7
BRANCH  12  13
ATOM     13  C   UNL     1      -5.031   2.399  24.444  0.00  0.00    +0.091 C 
BRANCH  13  14
ATOM     14  C   UNL     1      -5.162   1.701  24.864  0.00  0.00    +0.242 C 
ATOM     15  O   UNL     1      -5.697   1.692  25.492  0.00  0.00    -0.273 OA
ATOM     16  N   UNL     1      -4.759   1.012  24.657  0.00  0.00    -0.201 NA
BRANCH  16  17
ATOM     17  C   UNL     1      -4.890   0.315  25.077  0.00  0.00    +0.141 C 
BRANCH  17  18
ATOM     18  C   UNL     1      -4.402  -0.339  24.956  0.00  0.00    -0.001 A 
ATOM     19  C   UNL     1      -4.439  -0.758  24.245  0.00  0.00    -0.002 A 
ATOM     20  C   UNL     1      -3.951  -1.411  24.125  0.00  0.00    +0.010 A 
ATOM     21  C   UNL     1      -3.424  -1.646  24.715  0.00  0.00    +0.068 A 
ATOM     22  C   UNL     1      -3.386  -1.229  25.425  0.00  0.00    +0.010 A 
ATOM     23  C   UNL     1      -3.875  -0.575  25.545  0.00  0.00    -0.002 A 
BRANCH  21  24
ATOM     24  C   UNL     1      -2.935  -2.300  24.595  0.00  0.00    +0.100 C 
ATOM     25  N   UNL     1      -2.446  -2.954  24.475  0.00  0.00    -0.191 NA
ENDBRANCH  21  24
ENDBRANCH  17  18
ENDBRANCH  16  17
ENDBRANCH  13  14
ENDBRANCH  12  13
TORSDOF 10
ENDMDL
MODEL 5
REMARK VINA RESULT:      -8.1      1.862      5.193
REMARK  Name = 
REMARK  10 active torsions:
REMARK  status: ('A' for Active; 'I' for Inactive)
REMARK    1  A    between atoms: O_2  and  C_3
REMARK    2  A    between atoms: C_3  and  C_4
REMARK    3  A    between atoms: N_6  and  C_7
REMARK    4  A    between atoms: C_7  and  C_8
REMARK    5  A    between atoms: C_12  and  C_13
REMARK    6  A    between atoms: C_13  and  C_14
REMARK    7  A    between atoms: N_16  and  C_17
REMARK    8  A    between atoms: C_17  and  C_18
REMARK    9  A    between atoms: C_21  and  C_24
REMARK   10  A    between atoms: C_27  and  C_28
REMARK                            x       y       z     vdW  Elec       q    Type
REMARK                         _______ _______ _______ _____ _____    ______ ____
ROOT
ATOM      8  C   UNL     1      -2.368   2.622  24.326  0.00  0.00    +0.043 C 
ATOM      9  C   UNL     1      -1.913   2.743  25.003  0.00  0.00    -0.033 C 
ATOM     10  C   UNL     1      -1.199   2.340  25.098  0.00  0.00    -0.048 C 
ATOM     11  C   UNL     1      -0.745   2.461  25.776  0.00  0.00    +0.026 C 
ATOM     12  C   UNL     1      -0.940   1.817  24.515  0.00  0.00    +0.027 C 
ATOM     26  C   UNL     1      -1.395   1.696  23.838  0.00  0.00    +0.005 C 
ATOM     27  C   UNL     1      -2.108   2.098  23.743  0.00  0.00    +0.006 C 
ENDROOT
BRANCH  27  28
ATOM     28  C   UNL     1      -2.564   1.978  23.065  0.00  0.00    +0.000 C 
ATOM     29  C   UNL     1      -2.436   2.440  22.394  0.00  0.00    +0.000 C 
ATOM     30  C   UNL     1      -3.148   1.395  23.059  0.00  0.00    +0.000 C 
ENDBRANCH  27  28
BRANCH   8   7
ATOM      7  C   UNL     1      -3.082   3.025  24.231  0.00  0.00    +0.119 C 
BRANCH   7   6
ATOM      4  C   UNL     1      -4.220   3.622  24.856  0.00  0.00    +0.272 C 
ATOM      5  O   UNL     1      -4.266   4.173  24.244  0.00  0.00    -0.271 OA
ATOM      6  N   UNL     1      -3.627   3.047  24.849  0.00  0.00    -0.203 NA
BRANCH   4   3
ATOM      3  C   UNL     1      -4.765   3.644  25.474  0.00  0.00    +0.229 C 
BRANCH   3   2
ATOM      1  C   UNL     1      -5.875   2.934  26.026  0.00  0.00    +0.175 C 
ATOM      2  O   UNL     1      -5.507   3.295  25.382  0.00  0.00    -0.342 OA
ENDBRANCH   3   2
ENDBRANCH   4   3
ENDBRANCH   7   6
ENDBRANCH   8   7
BRANCH  12  13
ATOM     13  C   UNL     1      -0.226   1.414  24.610  0.00  0.00    +0.091 C 
BRANCH  13  14
ATOM     14  C   UNL     1      -0.163   0.625  24.379  0.00  0.00    +0.242 C 
ATOM     15  O   UNL     1       0.259   0.427  23.698  0.00  0.00    -0.273 OA
ATOM     16  N   UNL     1      -0.521   0.033  24.828  0.00  0.00    -0.201 NA
BRANCH  16  17
ATOM     17  C   UNL     1      -0.458  -0.755  24.597  0.00  0.00    +0.141 C 
BRANCH  17  18
ATOM     18  C   UNL     1      -1.106  -1.261  24.670  0.00  0.00    -0.001 A 
ATOM     19  C   UNL     1      -1.599  -1.209  25.330  0.00  0.00    -0.002 A 
ATOM     20  C   UNL     1      -2.246  -1.714  25.403  0.00  0.00    +0.010 A 
ATOM     21  C   UNL     1      -2.401  -2.273  24.816  0.00  0.00    +0.068 A 
ATOM     22  C   UNL     1      -1.908  -2.327  24.157  0.00  0.00    +0.010 A 
ATOM     23  C   UNL     1      -1.260  -1.820  24.084  0.00  0.00    -0.002 A 
BRANCH  21  24
ATOM     24  C   UNL     1      -3.048  -2.779  24.889  0.00  0.00    +0.100 C 
ATOM     25  N   UNL     1      -3.696  -3.286  24.961  0.00  0.00    -0.191 NA
ENDBRANCH  21  24
ENDBRANCH  17  18
ENDBRANCH  16  17
ENDBRANCH  13  14
ENDBRANCH  12  13
TORSDOF 10
ENDMDL
MODEL 6
REMARK VINA RESULT:      -7.9      2.024      3.132
REMARK  Name = 
REMARK  10 active torsions:
REMARK  status: ('A' for Active; 'I' for Inactive)
REMARK    1  A    between atoms: O_2  and  C_3
REMARK    2  A    between atoms: C_3  and  C_4
REMARK    3  A    between atoms: N_6  and  C_7
REMARK    4  A    between atoms: C_7  and  C_8
REMARK    5  A    between atoms: C_12  and  C_13
REMARK    6  A    between atoms: C_13  and  C_14
REMARK    7  A    between atoms: N_16  and  C_17
REMARK    8  A    between atoms: C_17  and  C_18
REMARK    9  A    between atoms: C_21  and  C_24
REMARK   10  A    between atoms: C_27  and  C_28
REMARK                            x       y       z     vdW  Elec       q    Type
REMARK                         _______ _______ _______ _____ _____    ______ ____
ROOT
ATOM      8  C   UNL     1      -2.840  -0.689  24.584  0.00  0.00    +0.043 C 
ATOM      9  C   UNL     1      -2.930  -0.172  23.948  0.00  0.00    -0.033 C 
ATOM     10  C   UNL     1      -3.577   0.339  23.921  0.00  0.00    -0.048 C 
ATOM     11  C   UNL     1      -3.667   0.857  23.285  0.00  0.00    +0.026 C 
ATOM     12  C   UNL     1      -4.134   0.333  24.530  0.00  0.00    +0.027 C 
ATOM     26  C   UNL     1      -4.043  -0.185  25.166  0.00  0.00    +0.005 C 
ATOM     27  C   UNL     1      -3.397  -0.696  25.193  0.00  0.00    +0.006 C 
ENDROOT
BRANCH  27  28
ATOM     28  C   UNL     1      -3.306  -1.214  25.829  0.00  0.00    +0.000 C 
ATOM     29  C   UNL     1      -3.582  -1.989  25.773  0.00  0.00    +0.000 C 
ATOM     30  C   UNL     1      -2.939  -0.956  26.521  0.00  0.00    +0.000 C 
ENDBRANCH  27  28
BRANCH   8   7
ATOM      7  C   UNL     1      -2.192  -1.201  24.612  0.00  0.00    +0.119 C 
BRANCH   7   6
ATOM      4  C   UNL     1      -0.827  -1.389  24.232  0.00  0.00    +0.272 C 
ATOM      5  O   UNL     1      -0.991  -2.171  24.032  0.00  0.00    -0.271 OA
ATOM      6  N   UNL     1      -1.428  -0.903  24.522  0.00  0.00    -0.203 NA
BRANCH   4   3
ATOM      3  C   UNL     1      -0.063  -1.091  24.143  0.00  0.00    +0.229 C 
BRANCH   3   2
ATOM      1  C   UNL     1       0.867  -0.330  23.370  0.00  0.00    +0.175 C 
ATOM      2  O   UNL     1       0.172  -0.771  23.419  0.00  0.00    -0.342 OA
ENDBRANCH   3   2
ENDBRANCH   4   3
ENDBRANCH   7   6
ENDBRANCH   8   7
BRANCH  12  13
ATOM     13  C   UNL     1      -4.781   0.843  24.502  0.00  0.00    +0.091 C 
BRANCH  13  14
ATOM     14  C   UNL     1      -4.807   1.504  24.996  0.00  0.00    +0.242 C 
ATOM     15  O   UNL     1      -5.292   1.501  25.663  0.00  0.00    -0.273 OA
ATOM     16  N   UNL     1      -4.349   2.167  24.822  0.00  0.00    -0.201 NA
BRANCH  16  17
ATOM     17  C   UNL     1      -4.375   2.827  25.315  0.00  0.00    +0.141 C 
BRANCH  17  18
ATOM     18  C   UNL     1      -3.764   3.381  25.297  0.00  0.00    -0.001 A 
ATOM     19  C   UNL     1      -3.270   3.474  25.952  0.00  0.00    -0.002 A 
ATOM     20  C   UNL     1      -2.660   4.028  25.934  0.00  0.00    +0.010 A 
ATOM     21  C   UNL     1      -2.542   4.489  25.260  0.00  0.00    +0.068 A 
ATOM     22  C   UNL     1      -3.035   4.398  24.605  0.00  0.00    +0.010 A 
ATOM     23  C   UNL     1      -3.646   3.843  24.624  0.00  0.00    -0.002 A 
BRANCH  21  24
ATOM     24  C   UNL     1      -1.931   5.044  25.241  0.00  0.00    +0.100 C 
ATOM     25  N   UNL     1      -1.320   5.599  25.222  0.00  0.00    -0.191 NA
ENDBRANCH  21  24
ENDBRANCH  17  18
ENDBRANCH  16  17
ENDBRANCH  13  14
ENDBRANCH  12  13
TORSDOF 10
ENDMDL
MODEL 7
REMARK VINA RESULT:      -7.9      1.837      6.450
REMARK  Name = 
REMARK  10 active torsions:
REMARK  status: ('A' for Active; 'I' for Inactive)
REMARK    1  A    between atoms: O_2  and  C_3
REMARK    2  A    between atoms: C_3  and  C_4
REMARK    3  A    between atoms: N_6  and  C_7
REMARK    4  A    between atoms: C_7  and  C_8
REMARK    5  A    between atoms: C_12  and  C_13
REMARK    6  A    between atoms: C_13  and  C_14
REMARK    7  A    between atoms: N_16  and  C_17
REMARK    8  A    between atoms: C_17  and  C_18
REMARK    9  A    between atoms: C_21  and  C_24
REMARK   10  A    between atoms: C_27  and  C_28
REMARK                            x       y       z     vdW  Elec       q    Type
REMARK                         _______ _______ _______ _____ _____    ______ ____
ROOT
ATOM      8  C   UNL     1      -1.590   1.728  24.753  0.00  0.00    +0.043 C 
ATOM      9  C   UNL     1      -1.875   0.975  24.578  0.00  0.00    -0.033 C 
ATOM     10  C   UNL     1      -1.355   0.384  24.328  0.00  0.00    -0.048 C 
ATOM     11  C   UNL     1      -1.641  -0.369  24.153  0.00  0.00    +0.026 C 
ATOM     12  C   UNL     1      -0.550   0.548  24.254  0.00  0.00    +0.027 C 
ATOM     26  C   UNL     1      -0.265   1.303  24.429  0.00  0.00    +0.005 C 
ATOM     27  C   UNL     1      -0.785   1.893  24.678  0.00  0.00    +0.006 C 
ENDROOT
BRANCH  27  28
ATOM     28  C   UNL     1      -0.500   2.647  24.854  0.00  0.00    +0.000 C 
ATOM     29  C   UNL     1      -0.498   3.233  24.274  0.00  0.00    +0.000 C 
ATOM     30  C   UNL     1      -0.217   2.815  25.610  0.00  0.00    +0.000 C 
ENDBRANCH  27  28
BRANCH   8   7
ATOM      7  C   UNL     1      -2.110   2.319  25.003  0.00  0.00    +0.119 C 
BRANCH   7   6
ATOM      4  C   UNL     1      -3.447   2.761  25.245  0.00  0.00    +0.272 C 
ATOM      5  O   UNL     1      -3.157   3.409  25.663  0.00  0.00    -0.271 OA
ATOM      6  N   UNL     1      -2.924   2.215  24.914  0.00  0.00    -0.203 NA
BRANCH   4   3
ATOM      3  C   UNL     1      -4.261   2.657  25.156  0.00  0.00    +0.229 C 
BRANCH   3   2
ATOM      1  C   UNL     1      -5.576   2.813  25.691  0.00  0.00    +0.175 C 
ATOM      2  O   UNL     1      -4.783   3.038  25.669  0.00  0.00    -0.342 OA
ENDBRANCH   3   2
ENDBRANCH   4   3
ENDBRANCH   7   6
ENDBRANCH   8   7
BRANCH  12  13
ATOM     13  C   UNL     1      -0.031  -0.041  24.004  0.00  0.00    +0.091 C 
BRANCH  13  14
ATOM     14  C   UNL     1       0.461   0.089  23.354  0.00  0.00    +0.242 C 
ATOM     15  O   UNL     1       0.132   0.236  22.612  0.00  0.00    -0.273 OA
ATOM     16  N   UNL     1       1.280   0.071  23.446  0.00  0.00    -0.201 NA
BRANCH  16  17
ATOM     17  C   UNL     1       1.771   0.201  22.797  0.00  0.00    +0.141 C 
BRANCH  17  18
ATOM     18  C   UNL     1       2.590   0.203  22.892  0.00  0.00    -0.001 A 
ATOM     19  C   UNL     1       3.018   0.901  22.786  0.00  0.00    -0.002 A 
ATOM     20  C   UNL     1       3.837   0.902  22.880  0.00  0.00    +0.010 A 
ATOM     21  C   UNL     1       4.229   0.205  23.082  0.00  0.00    +0.068 A 
ATOM     22  C   UNL     1       3.803  -0.493  23.188  0.00  0.00    +0.010 A 
ATOM     23  C   UNL     1       2.983  -0.494  23.093  0.00  0.00    -0.002 A 
BRANCH  21  24
ATOM     24  C   UNL     1       5.049   0.205  23.177  0.00  0.00    +0.100 C 
ATOM     25  N   UNL     1       5.869   0.205  23.273  0.00  0.00    -0.191 NA
ENDBRANCH  21  24
ENDBRANCH  17  18
ENDBRANCH  16  17
ENDBRANCH  13  14
ENDBRANCH  12  13
TORSDOF 10
ENDMDL
MODEL 8
REMARK VINA RESULT:      -7.8      2.168      5.844
REMARK  Name = 
REMARK  10 active torsions:
REMARK  status: ('A' for Active; 'I' for Inactive)
REMARK    1  A    between atoms: O_2  and  C_3
REMARK    2  A    between atoms: C_3  and  C_4
REMARK    3  A    between atoms: N_6  and  C_7
REMARK    4  A    between atoms: C_7  and  C_8
REMARK    5  A    between atoms: C_12  and  C_13
REMARK    6  A    between atoms: C_13  and  C_14
REMARK    7  A    between atoms: N_16  and  C_17
REMARK    8  A    between atoms: C_17  and  C_18
REMARK    9  A    between atoms: C_21  and  C_24
REMARK   10  A    between atoms: C_27  and  C_28
REMARK                            x       y       z     vdW  Elec       q    Type
REMARK                         _______ _______ _______ _____ _____    ______ ____
ROOT
ATOM      8  C   UNL     1      -3.492   3.385  24.824  0.00  0.00    +0.043 C 
ATOM      9  C   UNL     1      -3.579   2.943  24.134  0.00  0.00    -0.033 C 
ATOM     10  C   UNL     1      -2.912   2.718  23.702  0.00  0.00    -0.048 C 
ATOM     11  C   UNL     1      -2.999   2.275  23.011  0.00  0.00    +0.026 C 
ATOM     12  C   UNL     1      -2.160   2.936  23.961  0.00  0.00    +0.027 C 
ATOM     26  C   UNL     1      -2.074   3.379  24.652  0.00  0.00    +0.005 C 
ATOM     27  C   UNL     1      -2.740   3.604  25.083  0.00  0.00    +0.006 C 
ENDROOT
BRANCH  27  28
ATOM     28  C   UNL     1      -2.654   4.047  25.774  0.00  0.00    +0.000 C 
ATOM     29  C   UNL     1      -2.594   3.667  26.503  0.00  0.00    +0.000 C 
ATOM     30  C   UNL     1      -2.629   4.870  25.735  0.00  0.00    +0.000 C 
ENDBRANCH  27  28
BRANCH   8   7
ATOM      7  C   UNL     1      -4.159   3.610  25.256  0.00  0.00    +0.119 C 
BRANCH   7   6
ATOM      4  C   UNL     1      -5.510   3.328  25.626  0.00  0.00    +0.272 C 
ATOM      5  O   UNL     1      -5.654   4.135  25.716  0.00  0.00    -0.271 OA
ATOM      6  N   UNL     1      -4.762   3.065  25.396  0.00  0.00    -0.203 NA
BRANCH   4   3
ATOM      3  C   UNL     1      -6.113   2.783  25.765  0.00  0.00    +0.229 C 
BRANCH   3   2
ATOM      1  C   UNL     1      -6.591   1.729  26.603  0.00  0.00    +0.175 C 
ATOM      2  O   UNL     1      -6.204   2.452  26.516  0.00  0.00    -0.342 OA
ENDBRANCH   3   2
ENDBRANCH   4   3
ENDBRANCH   7   6
ENDBRANCH   8   7
BRANCH  12  13
ATOM     13  C   UNL     1      -1.494   2.712  23.529  0.00  0.00    +0.091 C 
BRANCH  13  14
ATOM     14  C   UNL     1      -0.890   2.284  23.894  0.00  0.00    +0.242 C 
ATOM     15  O   UNL     1      -0.218   2.675  24.170  0.00  0.00    -0.273 OA
ATOM     16  N   UNL     1      -0.957   1.468  23.983  0.00  0.00    -0.201 NA
BRANCH  16  17
ATOM     17  C   UNL     1      -0.353   1.041  24.348  0.00  0.00    +0.141 C 
BRANCH  17  18
ATOM     18  C   UNL     1      -0.466   0.247  24.541  0.00  0.00    -0.001 A 
ATOM     19  C   UNL     1      -0.199  -0.345  24.032  0.00  0.00    -0.002 A 
ATOM     20  C   UNL     1      -0.312  -1.138  24.226  0.00  0.00    +0.010 A 
ATOM     21  C   UNL     1      -0.693  -1.341  24.929  0.00  0.00    +0.068 A 
ATOM     22  C   UNL     1      -0.960  -0.750  25.439  0.00  0.00    +0.010 A 
ATOM     23  C   UNL     1      -0.847   0.045  25.244  0.00  0.00    -0.002 A 
BRANCH  21  24
ATOM     24  C   UNL     1      -0.806  -2.134  25.123  0.00  0.00    +0.100 C 
ATOM     25  N   UNL     1      -0.920  -2.928  25.318  0.00  0.00    -0.191 NA
ENDBRANCH  21  24
ENDBRANCH  17  18
ENDBRANCH  16  17
ENDBRANCH  13  14
ENDBRANCH  12  13
TORSDOF 10
ENDMDL
MODEL 9
REMARK VINA RESULT:      -7.8      3.085      4.953
REMARK  Name = 
REMARK  10 active torsions:
REMARK  status: ('A' for Active; 'I' for Inactive)
REMARK    1  A    between atoms: O_2  and  C_3
REMARK    2  A    between atoms: C_3  and  C_4
REMARK    3  A    between atoms: N_6  and  C_7
REMARK    4  A    between atoms: C_7  and  C_8
REMARK    5  A    between atoms: C_12  and  C_13
REMARK    6  A    between atoms: C_13  and  C_14
REMARK    7  A    between atoms: N_16  and  C_17
REMARK    8  A    between atoms: C_17  and  C_18
REMARK    9  A    between atoms: C_21  and  C_24
REMARK   10  A    between atoms: C_27  and  C_28
REMARK                            x       y       z     vdW  Elec       q    Type
REMARK                         _______ _______ _______ _____ _____    ______ ____
ROOT
ATOM      8  C   UNL     1      -4.202   0.715  24.089  0.00  0.00    +0.043 C 
ATOM      9  C   UNL     1      -3.637   0.852  23.503  0.00  0.00    -0.033 C 
ATOM     10  C   UNL     1      -3.416   1.625  23.316  0.00  0.00    -0.048 C 
ATOM     11  C   UNL     1      -2.852   1.761  22.730  0.00  0.00    +0.026 C 
ATOM     12  C   UNL     1      -3.760   2.260  23.714  0.00  0.00    +0.027 C 
ATOM     26  C   UNL     1      -4.324   2.123  24.300  0.00  0.00    +0.005 C 
ATOM     27  C   UNL     1      -4.545   1.351  24.487  0.00  0.00    +0.006 C 
ENDROOT
BRANCH  27  28
ATOM     28  C   UNL     1      -5.110   1.213  25.073  0.00  0.00    +0.000 C 
ATOM     29  C   UNL     1      -5.913   1.255  24.891  0.00  0.00    +0.000 C 
ATOM     30  C   UNL     1      -4.870   1.033  25.842  0.00  0.00    +0.000 C 
ENDBRANCH  27  28
BRANCH   8   7
ATOM      7  C   UNL     1      -4.423  -0.058  24.276  0.00  0.00    +0.119 C 
BRANCH   7   6
ATOM      4  C   UNL     1      -4.070  -1.439  24.169  0.00  0.00    +0.272 C 
ATOM      5  O   UNL     1      -4.856  -1.626  24.006  0.00  0.00    -0.271 OA
ATOM      6  N   UNL     1      -3.853  -0.654  24.305  0.00  0.00    -0.203 NA
BRANCH   4   3
ATOM      3  C   UNL     1      -3.501  -2.034  24.197  0.00  0.00    +0.229 C 
BRANCH   3   2
ATOM      1  C   UNL     1      -3.094  -3.335  24.628  0.00  0.00    +0.175 C 
ATOM      2  O   UNL     1      -3.681  -2.761  24.546  0.00  0.00    -0.342 OA
ENDBRANCH   3   2
ENDBRANCH   4   3
ENDBRANCH   7   6
ENDBRANCH   8   7
BRANCH  12  13
ATOM     13  C   UNL     1      -3.539   3.032  23.527  0.00  0.00    +0.091 C 
BRANCH  13  14
ATOM     14  C   UNL     1      -3.199   3.516  24.102  0.00  0.00    +0.242 C 
ATOM     15  O   UNL     1      -3.636   4.133  24.432  0.00  0.00    -0.273 OA
ATOM     16  N   UNL     1      -2.423   3.384  24.347  0.00  0.00    -0.201 NA
BRANCH  16  17
ATOM     17  C   UNL     1      -2.084   3.867  24.922  0.00  0.00    +0.141 C 
BRANCH  17  18
ATOM     18  C   UNL     1      -1.444   3.595  25.367  0.00  0.00    -0.001 A 
ATOM     19  C   UNL     1      -0.679   3.643  25.062  0.00  0.00    -0.002 A 
ATOM     20  C   UNL     1      -0.040   3.370  25.506  0.00  0.00    +0.010 A 
ATOM     21  C   UNL     1      -0.166   3.051  26.256  0.00  0.00    +0.068 A 
ATOM     22  C   UNL     1      -0.931   3.003  26.562  0.00  0.00    +0.010 A 
ATOM     23  C   UNL     1      -1.570   3.275  26.117  0.00  0.00    -0.002 A 
BRANCH  21  24
ATOM     24  C   UNL     1       0.473   2.778  26.702  0.00  0.00    +0.100 C 
ATOM     25  N   UNL     1       1.112   2.506  27.147  0.00  0.00    -0.191 NA
ENDBRANCH  21  24
ENDBRANCH  17  18
ENDBRANCH  16  17
ENDBRANCH  13  14
ENDBRANCH  12  13
TORSDOF 10
ENDMDL
MODEL 10
REMARK VINA RESULT:      -7.8      2.854      4.680
REMARK  Name = 
REMARK  10 active torsions:
REMARK  status: ('A' for Active; 'I' for Inactive)
REMARK    1  A    between atoms: O_2  and  C_3
REMARK    2  A    between atoms: C_3  and  C_4
REMARK    3  A    between atoms: N_6  and  C_7
REMARK    4  A    between atoms: C_7  and  C_8
REMARK    5  A    between atoms: C_12  and  C_13
REMARK    6  A    between atoms: C_13  and  C_14
REMARK    7  A    between atoms: N_16  and  C_17
REMARK    8  A    between atoms: C_17  and  C_18
REMARK    9  A    between atoms: C_21  and  C_24
REMARK   10  A    between atoms: C_27  and  C_28
REMARK                            x       y       z     vdW  Elec       q    Type
REMARK                         _______ _______ _______ _____ _____    ______ ____
ROOT
ATOM      8  C   UNL     1      -4.252   0.549  24.271  0.00  0.00    +0.043 C 
ATOM      9  C   UNL     1      -4.937   0.581  24.729  0.00  0.00    -0.033 C 
ATOM     10  C   UNL     1      -5.199   1.304  25.029  0.00  0.00    -0.048 C 
ATOM     11  C   UNL     1      -5.884   1.336  25.487  0.00  0.00    +0.026 C 
ATOM     12  C   UNL     1      -4.776   1.995  24.870  0.00  0.00    +0.027 C 
ATOM     26  C   UNL     1      -4.091   1.961  24.411  0.00  0.00    +0.005 C 
ATOM     27  C   UNL     1      -3.829   1.239  24.112  0.00  0.00    +0.006 C 
ENDROOT
BRANCH  27  28
ATOM     28  C   UNL     1      -3.144   1.206  23.653  0.00  0.00    +0.000 C 
ATOM     29  C   UNL     1      -3.174   1.398  22.852  0.00  0.00    +0.000 C 
ATOM     30  C   UNL     1      -2.429   0.981  23.997  0.00  0.00    +0.000 C 
ENDBRANCH  27  28
BRANCH   8   7
ATOM      7  C   UNL     1      -3.990  -0.174  23.971  0.00  0.00    +0.119 C 
BRANCH   7   6
ATOM      4  C   UNL     1      -4.029  -1.597  24.095  0.00  0.00    +0.272 C 
ATOM      5  O   UNL     1      -4.018  -1.669  23.274  0.00  0.00    -0.271 OA
ATOM      6  N   UNL     1      -4.016  -0.849  24.444  0.00  0.00    -0.203 NA
BRANCH   4   3
ATOM      3  C   UNL     1      -4.055  -2.273  24.568  0.00  0.00    +0.229 C 
BRANCH   3   2
ATOM      1  C   UNL     1      -3.316  -3.428  24.969  0.00  0.00    +0.175 C 
ATOM      2  O   UNL     1      -3.594  -2.930  24.373  0.00  0.00    -0.342 OA
ENDBRANCH   3   2
ENDBRANCH   4   3
ENDBRANCH   7   6
ENDBRANCH   8   7
BRANCH  12  13
ATOM     13  C   UNL     1      -5.038   2.717  25.169  0.00  0.00    +0.091 C 
BRANCH  13  14
ATOM     14  C   UNL     1      -4.556   3.153  25.677  0.00  0.00    +0.242 C 
ATOM     15  O   UNL     1      -4.641   3.075  26.494  0.00  0.00    -0.273 OA
ATOM     16  N   UNL     1      -3.988   3.666  25.369  0.00  0.00    -0.201 NA
BRANCH  16  17
ATOM     17  C   UNL     1      -3.507   4.101  25.877  0.00  0.00    +0.141 C 
BRANCH  17  18
ATOM     18  C   UNL     1      -2.772   4.374  25.618  0.00  0.00    -0.001 A 
ATOM     19  C   UNL     1      -2.727   5.027  25.117  0.00  0.00    -0.002 A 
ATOM     20  C   UNL     1      -1.993   5.299  24.858  0.00  0.00    +0.010 A 
ATOM     21  C   UNL     1      -1.303   4.918  25.101  0.00  0.00    +0.068 A 
ATOM     22  C   UNL     1      -1.347   4.264  25.602  0.00  0.00    +0.010 A 
ATOM     23  C   UNL     1      -2.082   3.992  25.861  0.00  0.00    -0.002 A 
BRANCH  21  24
ATOM     24  C   UNL     1      -0.568   5.189  24.842  0.00  0.00    +0.100 C 
ATOM     25  N   UNL     1       0.168   5.461  24.584  0.00  0.00    -0.191 NA
ENDBRANCH  21  24
ENDBRANCH  17  18
ENDBRANCH  16  17
ENDBRANCH  13  14
ENDBRANCH  12  13
TORSDOF 10
ENDMDL
