MODEL 1
REMARK VINA RESULT:      -9.3      0.000      0.000
REMARK  Name = 
REMARK  9 active torsions:
REMARK  status: ('A' for Active; 'I' for Inactive)
REMARK    1  A    between atoms: O_2  and  C_3
REMARK    2  A    between atoms: C_3  and  C_4
REMARK    3  A    between atoms: C_4  and  O_5
REMARK    4  A    between atoms: O_5  and  C_6
REMARK    5  A    between atoms: C_9  and  C_12
REMARK    6  A    between atoms: C_15  and  C_17
REMARK    7  A    between atoms: N_21  and  C_22
REMARK    8  A    between atoms: C_22  and  C_23
REMARK    9  A    between atoms: C_27  and  C_29
REMARK                            x       y       z     vdW  Elec       q    Type
REMARK                         _______ _______ _______ _____ _____    ______ ____
ROOT
ATOM     12  C   UNL     1      -0.921  -0.028  24.445  0.00  0.00    +0.205 A 
ATOM     13  N   UNL     1      -0.964  -0.143  25.261  0.00  0.00    -0.056 NA
ATOM     14  O   UNL     1      -1.761  -0.148  25.477  0.00  0.00    -0.336 OA
ATOM     15  C   UNL     1      -2.210  -0.034  24.794  0.00  0.00    +0.251 A 
ATOM     16  N   UNL     1      -1.690   0.040  24.157  0.00  0.00    -0.190 NA
ENDROOT
BRANCH  12   9
ATOM      6  C   UNL     1       1.154   0.095  23.101  0.00  0.00    +0.225 A 
ATOM      7  C   UNL     1       0.779   0.789  23.347  0.00  0.00    +0.058 A 
ATOM      8  C   UNL     1       0.088   0.748  23.795  0.00  0.00    +0.010 A 
ATOM      9  C   UNL     1      -0.229   0.013  23.997  0.00  0.00    +0.058 A 
ATOM     10  C   UNL     1       0.144  -0.679  23.752  0.00  0.00    +0.105 A 
ATOM     11  N   UNL     1       0.836  -0.638  23.304  0.00  0.00    -0.210 NA
BRANCH   6   5
ATOM      5  O   UNL     1       1.845   0.136  22.653  0.00  0.00    -0.457 OA
BRANCH   5   4
ATOM      4  C   UNL     1       2.537   0.435  22.990  0.00  0.00    +0.239 C 
BRANCH   4   3
ATOM      3  C   UNL     1       3.253   0.372  22.586  0.00  0.00    +0.189 C 
BRANCH   3   2
ATOM      1  C   UNL     1       4.629   0.505  22.948  0.00  0.00    +0.174 C 
ATOM      2  O   UNL     1       3.893   0.846  22.802  0.00  0.00    -0.347 OA
ENDBRANCH   3   2
ENDBRANCH   4   3
ENDBRANCH   5   4
ENDBRANCH   6   5
ENDBRANCH  12   9
BRANCH  15  17
ATOM     17  C   UNL     1      -3.033  -0.001  24.755  0.00  0.00    +0.138 C 
ATOM     18  C   UNL     1      -3.539  -0.643  24.642  0.00  0.00    +0.027 C 
ATOM     19  C   UNL     1      -4.314  -0.358  24.639  0.00  0.00    +0.019 C 
ATOM     20  C   UNL     1      -4.286   0.458  24.750  0.00  0.00    +0.073 C 
ATOM     21  N   UNL     1      -3.494   0.679  24.821  0.00  0.00    -0.263 NA
BRANCH  21  22
ATOM     22  C   UNL     1      -3.214   1.446  24.939  0.00  0.00    +0.099 C 
BRANCH  22  23
ATOM     23  C   UNL     1      -3.654   2.091  24.675  0.00  0.00    -0.005 A 
ATOM     24  C   UNL     1      -3.562   2.365  23.902  0.00  0.00    -0.003 A 
ATOM     25  C   UNL     1      -4.002   3.010  23.637  0.00  0.00    +0.000 A 
ATOM     26  C   UNL     1      -4.535   3.383  24.146  0.00  0.00    +0.010 A 
ATOM     27  C   UNL     1      -4.627   3.110  24.919  0.00  0.00    +0.068 A 
ATOM     28  C   UNL     1      -4.187   2.464  25.183  0.00  0.00    +0.007 A 
BRANCH  27  29
ATOM     29  C   UNL     1      -5.160   3.482  25.428  0.00  0.00    +0.100 C 
ATOM     30  N   UNL     1      -5.692   3.854  25.936  0.00  0.00    -0.191 NA
ENDBRANCH  27  29
ENDBRANCH  22  23
ENDBRANCH  21  22
ENDBRANCH  15  17
TORSDOF 9
ENDMDL
MODEL 2
REMARK VINA RESULT:      -8.8      1.802      2.090
REMARK  Name = 
REMARK  9 active torsions:
REMARK  status: ('A' for Active; 'I' for Inactive)
REMARK    1  A    between atoms: O_2  and  C_3
REMARK    2  A    between atoms: C_3  and  C_4
REMARK    3  A    between atoms: C_4  and  O_5
REMARK    4  A    between atoms: O_5  and  C_6
REMARK    5  A    between atoms: C_9  and  C_12
REMARK    6  A    between atoms: C_15  and  C_17
REMARK    7  A    between atoms: N_21  and  C_22
REMARK    8  A    between atoms: C_22  and  C_23
REMARK    9  A    between atoms: C_27  and  C_29
REMARK                            x       y       z     vdW  Elec       q    Type
REMARK                         _______ _______ _______ _____ _____    ______ ____
ROOT
ATOM     12  C   UNL     1      -0.414   0.519  23.861  0.00  0.00    +0.205 A 
ATOM     13  N   UNL     1      -0.720   0.056  24.473  0.00  0.00    -0.056 NA
ATOM     14  O   UNL     1      -1.492   0.308  24.620  0.00  0.00    -0.336 OA
ATOM     15  C   UNL     1      -1.663   0.925  24.100  0.00  0.00    +0.251 A 
ATOM     16  N   UNL     1      -0.996   1.055  23.631  0.00  0.00    -0.190 NA
ENDROOT
BRANCH  12   9
ATOM      6  C   UNL     1       1.854   0.328  22.889  0.00  0.00    +0.225 A 
ATOM      7  C   UNL     1       1.299  -0.269  22.761  0.00  0.00    +0.058 A 
ATOM      8  C   UNL     1       0.543  -0.206  23.085  0.00  0.00    +0.010 A 
ATOM      9  C   UNL     1       0.342   0.455  23.537  0.00  0.00    +0.058 A 
ATOM     10  C   UNL     1       0.897   1.052  23.664  0.00  0.00    +0.105 A 
ATOM     11  N   UNL     1       1.653   0.988  23.340  0.00  0.00    -0.210 NA
BRANCH   6   5
ATOM      5  O   UNL     1       2.610   0.265  22.564  0.00  0.00    -0.457 OA
BRANCH   5   4
ATOM      4  C   UNL     1       3.265   0.528  22.991  0.00  0.00    +0.239 C 
BRANCH   4   3
ATOM      3  C   UNL     1       4.027   0.363  22.723  0.00  0.00    +0.189 C 
BRANCH   3   2
ATOM      1  C   UNL     1       5.313   0.168  23.314  0.00  0.00    +0.174 C 
ATOM      2  O   UNL     1       4.681   0.663  23.127  0.00  0.00    -0.347 OA
ENDBRANCH   3   2
ENDBRANCH   4   3
ENDBRANCH   5   4
ENDBRANCH   6   5
ENDBRANCH  12   9
BRANCH  15  17
ATOM     17  C   UNL     1      -2.375   1.339  24.057  0.00  0.00    +0.138 C 
ATOM     18  C   UNL     1      -2.985   1.200  23.518  0.00  0.00    +0.027 C 
ATOM     19  C   UNL     1      -3.589   1.740  23.673  0.00  0.00    +0.019 C 
ATOM     20  C   UNL     1      -3.353   2.213  24.306  0.00  0.00    +0.073 C 
ATOM     21  N   UNL     1      -2.602   1.965  24.543  0.00  0.00    -0.263 NA
BRANCH  21  22
ATOM     22  C   UNL     1      -2.158   2.287  25.159  0.00  0.00    +0.099 C 
BRANCH  22  23
ATOM     23  C   UNL     1      -2.264   3.075  25.377  0.00  0.00    -0.005 A 
ATOM     24  C   UNL     1      -2.900   3.289  25.858  0.00  0.00    -0.003 A 
ATOM     25  C   UNL     1      -3.006   4.077  26.075  0.00  0.00    +0.000 A 
ATOM     26  C   UNL     1      -2.478   4.653  25.812  0.00  0.00    +0.010 A 
ATOM     27  C   UNL     1      -1.842   4.440  25.331  0.00  0.00    +0.068 A 
ATOM     28  C   UNL     1      -1.736   3.651  25.113  0.00  0.00    +0.007 A 
BRANCH  27  29
ATOM     29  C   UNL     1      -1.313   5.016  25.067  0.00  0.00    +0.100 C 
ATOM     30  N   UNL     1      -0.784   5.591  24.803  0.00  0.00    -0.191 NA
ENDBRANCH  27  29
ENDBRANCH  22  23
ENDBRANCH  21  22
ENDBRANCH  15  17
TORSDOF 9
ENDMDL
MODEL 3
REMARK VINA RESULT:      -8.6      2.353      3.918
REMARK  Name = 
REMARK  9 active torsions:
REMARK  status: ('A' for Active; 'I' for Inactive)
REMARK    1  A    between atoms: O_2  and  C_3
REMARK    2  A    between atoms: C_3  and  C_4
REMARK    3  A    between atoms: C_4  and  O_5
REMARK    4  A    between atoms: O_5  and  C_6
REMARK    5  A    between atoms: C_9  and  C_12
REMARK    6  A    between atoms: C_15  and  C_17
REMARK    7  A    between atoms: N_21  and  C_22
REMARK    8  A    between atoms: C_22  and  C_23
REMARK    9  A    between atoms: C_27  and  C_29
REMARK                            x       y       z     vdW  Elec       q    Type
REMARK                         _______ _______ _______ _____ _____    ______ ____
ROOT
ATOM     12  C   UNL     1      -0.544   1.583  25.322  0.00  0.00    +0.205 A 
ATOM     13  N   UNL     1       0.069   1.884  25.786  0.00  0.00    -0.056 NA
ATOM     14  O   UNL     1      -0.010   2.705  25.812  0.00  0.00    -0.336 OA
ATOM     15  C   UNL     1      -0.672   2.912  25.365  0.00  0.00    +0.251 A 
ATOM     16  N   UNL     1      -1.002   2.218  25.062  0.00  0.00    -0.190 NA
ENDROOT
BRANCH  12   9
ATOM      6  C   UNL     1      -0.938  -0.804  24.803  0.00  0.00    +0.225 A 
ATOM      7  C   UNL     1      -1.125  -0.508  25.551  0.00  0.00    +0.058 A 
ATOM      8  C   UNL     1      -0.993   0.288  25.724  0.00  0.00    +0.010 A 
ATOM      9  C   UNL     1      -0.675   0.787  25.149  0.00  0.00    +0.058 A 
ATOM     10  C   UNL     1      -0.488   0.492  24.402  0.00  0.00    +0.105 A 
ATOM     11  N   UNL     1      -0.620  -0.304  24.229  0.00  0.00    -0.210 NA
BRANCH   6   5
ATOM      5  O   UNL     1      -1.069  -1.600  24.630  0.00  0.00    -0.457 OA
BRANCH   5   4
ATOM      4  C   UNL     1      -1.806  -1.939  24.782  0.00  0.00    +0.239 C 
BRANCH   4   3
ATOM      3  C   UNL     1      -2.070  -2.574  24.327  0.00  0.00    +0.189 C 
BRANCH   3   2
ATOM      1  C   UNL     1      -3.454  -2.917  24.226  0.00  0.00    +0.174 C 
ATOM      2  O   UNL     1      -2.716  -3.022  24.579  0.00  0.00    -0.347 OA
ENDBRANCH   3   2
ENDBRANCH   4   3
ENDBRANCH   5   4
ENDBRANCH   6   5
ENDBRANCH  12   9
BRANCH  15  17
ATOM     17  C   UNL     1      -0.955   3.676  25.242  0.00  0.00    +0.138 C 
ATOM     18  C   UNL     1      -0.573   4.272  24.817  0.00  0.00    +0.027 C 
ATOM     19  C   UNL     1      -1.052   4.945  24.835  0.00  0.00    +0.019 C 
ATOM     20  C   UNL     1      -1.729   4.764  25.270  0.00  0.00    +0.073 C 
ATOM     21  N   UNL     1      -1.669   3.980  25.521  0.00  0.00    -0.263 NA
BRANCH  21  22
ATOM     22  C   UNL     1      -2.226   3.573  25.973  0.00  0.00    +0.099 C 
BRANCH  22  23
ATOM     23  C   UNL     1      -3.031   3.699  25.848  0.00  0.00    -0.005 A 
ATOM     24  C   UNL     1      -3.401   4.360  26.178  0.00  0.00    -0.003 A 
ATOM     25  C   UNL     1      -4.206   4.486  26.053  0.00  0.00    +0.000 A 
ATOM     26  C   UNL     1      -4.642   3.953  25.599  0.00  0.00    +0.010 A 
ATOM     27  C   UNL     1      -4.273   3.293  25.270  0.00  0.00    +0.068 A 
ATOM     28  C   UNL     1      -3.467   3.166  25.395  0.00  0.00    +0.007 A 
BRANCH  27  29
ATOM     29  C   UNL     1      -4.710   2.759  24.816  0.00  0.00    +0.100 C 
ATOM     30  N   UNL     1      -5.145   2.226  24.362  0.00  0.00    -0.191 NA
ENDBRANCH  27  29
ENDBRANCH  22  23
ENDBRANCH  21  22
ENDBRANCH  15  17
TORSDOF 9
ENDMDL
MODEL 4
REMARK VINA RESULT:      -8.5      3.148      4.810
REMARK  Name = 
REMARK  9 active torsions:
REMARK  status: ('A' for Active; 'I' for Inactive)
REMARK    1  A    between atoms: O_2  and  C_3
REMARK    2  A    between atoms: C_3  and  C_4
REMARK    3  A    between atoms: C_4  and  O_5
REMARK    4  A    between atoms: O_5  and  C_6
REMARK    5  A    between atoms: C_9  and  C_12
REMARK    6  A    between atoms: C_15  and  C_17
REMARK    7  A    between atoms: N_21  and  C_22
REMARK    8  A    between atoms: C_22  and  C_23
REMARK    9  A    between atoms: C_27  and  C_29
REMARK                            x       y       z     vdW  Elec       q    Type
REMARK                         _______ _______ _______ _____ _____    ______ ____
ROOT
ATOM     12  C   UNL     1      -4.350   1.526  24.700  0.00  0.00    +0.205 A 
ATOM     13  N   UNL     1      -4.882   2.004  24.288  0.00  0.00    -0.056 NA
ATOM     14  O   UNL     1      -4.808   2.774  24.574  0.00  0.00    -0.336 OA
ATOM     15  C   UNL     1      -4.230   2.773  25.163  0.00  0.00    +0.251 A 
ATOM     16  N   UNL     1      -3.947   2.001  25.241  0.00  0.00    -0.190 NA
ENDROOT
BRANCH  12   9
ATOM      6  C   UNL     1      -4.022  -0.905  24.372  0.00  0.00    +0.225 A 
ATOM      7  C   UNL     1      -4.302  -0.620  25.095  0.00  0.00    +0.058 A 
ATOM      8  C   UNL     1      -4.411   0.191  25.204  0.00  0.00    +0.010 A 
ATOM      9  C   UNL     1      -4.240   0.716  24.591  0.00  0.00    +0.058 A 
ATOM     10  C   UNL     1      -3.960   0.432  23.870  0.00  0.00    +0.105 A 
ATOM     11  N   UNL     1      -3.851  -0.379  23.760  0.00  0.00    -0.210 NA
BRANCH   6   5
ATOM      5  O   UNL     1      -3.912  -1.715  24.263  0.00  0.00    -0.457 OA
BRANCH   5   4
ATOM      4  C   UNL     1      -3.257  -2.091  24.596  0.00  0.00    +0.239 C 
BRANCH   4   3
ATOM      3  C   UNL     1      -2.944  -2.766  24.241  0.00  0.00    +0.189 C 
BRANCH   3   2
ATOM      1  C   UNL     1      -1.520  -2.828  24.341  0.00  0.00    +0.174 C 
ATOM      2  O   UNL     1      -2.263  -3.117  24.549  0.00  0.00    -0.347 OA
ENDBRANCH   3   2
ENDBRANCH   4   3
ENDBRANCH   5   4
ENDBRANCH   6   5
ENDBRANCH  12   9
BRANCH  15  17
ATOM     17  C   UNL     1      -3.979   3.427  25.597  0.00  0.00    +0.138 C 
ATOM     18  C   UNL     1      -4.366   3.754  26.249  0.00  0.00    +0.027 C 
ATOM     19  C   UNL     1      -3.922   4.399  26.512  0.00  0.00    +0.019 C 
ATOM     20  C   UNL     1      -3.262   4.470  26.023  0.00  0.00    +0.073 C 
ATOM     21  N   UNL     1      -3.297   3.870  25.458  0.00  0.00    -0.263 NA
BRANCH  21  22
ATOM     22  C   UNL     1      -2.746   3.736  24.858  0.00  0.00    +0.099 C 
BRANCH  22  23
ATOM     23  C   UNL     1      -1.954   3.935  24.974  0.00  0.00    -0.005 A 
ATOM     24  C   UNL     1      -1.693   4.701  24.809  0.00  0.00    -0.003 A 
ATOM     25  C   UNL     1      -0.901   4.900  24.924  0.00  0.00    +0.000 A 
ATOM     26  C   UNL     1      -0.370   4.334  25.204  0.00  0.00    +0.010 A 
ATOM     27  C   UNL     1      -0.630   3.569  25.369  0.00  0.00    +0.068 A 
ATOM     28  C   UNL     1      -1.423   3.370  25.253  0.00  0.00    +0.007 A 
BRANCH  27  29
ATOM     29  C   UNL     1      -0.099   3.003  25.649  0.00  0.00    +0.100 C 
ATOM     30  N   UNL     1       0.432   2.437  25.928  0.00  0.00    -0.191 NA
ENDBRANCH  27  29
ENDBRANCH  22  23
ENDBRANCH  21  22
ENDBRANCH  15  17
TORSDOF 9
ENDMDL
MODEL 5
REMARK VINA RESULT:      -8.3      2.558      5.067
REMARK  Name = 
REMARK  9 active torsions:
REMARK  status: ('A' for Active; 'I' for Inactive)
REMARK    1  A    between atoms: O_2  and  C_3
REMARK    2  A    between atoms: C_3  and  C_4
REMARK    3  A    between atoms: C_4  and  O_5
REMARK    4  A    between atoms: O_5  and  C_6
REMARK    5  A    between atoms: C_9  and  C_12
REMARK    6  A    between atoms: C_15  and  C_17
REMARK    7  A    between atoms: N_21  and  C_22
REMARK    8  A    between atoms: C_22  and  C_23
REMARK    9  A    between atoms: C_27  and  C_29
REMARK                            x       y       z     vdW  Elec       q    Type
REMARK                         _______ _______ _______ _____ _____    ______ ____
ROOT
ATOM     12  C   UNL     1      -4.229   1.137  24.760  0.00  0.00    +0.205 A 
ATOM     13  N   UNL     1      -4.943   0.872  25.079  0.00  0.00    -0.056 NA
ATOM     14  O   UNL     1      -4.989   0.057  24.960  0.00  0.00    -0.336 OA
ATOM     15  C   UNL     1      -4.303  -0.183  24.569  0.00  0.00    +0.251 A 
ATOM     16  N   UNL     1      -3.834   0.485  24.445  0.00  0.00    -0.190 NA
ENDROOT
BRANCH  12   9
ATOM      6  C   UNL     1      -3.418   3.475  24.751  0.00  0.00    +0.225 A 
ATOM      7  C   UNL     1      -3.500   3.064  24.040  0.00  0.00    +0.058 A 
ATOM      8  C   UNL     1      -3.771   2.284  24.043  0.00  0.00    +0.010 A 
ATOM      9  C   UNL     1      -3.959   1.916  24.757  0.00  0.00    +0.058 A 
ATOM     10  C   UNL     1      -3.876   2.326  25.467  0.00  0.00    +0.105 A 
ATOM     11  N   UNL     1      -3.605   3.105  25.465  0.00  0.00    -0.210 NA
BRANCH   6   5
ATOM      5  O   UNL     1      -3.147   4.254  24.749  0.00  0.00    -0.457 OA
BRANCH   5   4
ATOM      4  C   UNL     1      -2.428   4.442  25.108  0.00  0.00    +0.239 C 
BRANCH   4   3
ATOM      3  C   UNL     1      -2.038   5.141  24.910  0.00  0.00    +0.189 C 
BRANCH   3   2
ATOM      1  C   UNL     1      -0.626   5.307  24.769  0.00  0.00    +0.174 C 
ATOM      2  O   UNL     1      -1.302   5.311  25.241  0.00  0.00    -0.347 OA
ENDBRANCH   3   2
ENDBRANCH   4   3
ENDBRANCH   5   4
ENDBRANCH   6   5
ENDBRANCH  12   9
BRANCH  15  17
ATOM     17  C   UNL     1      -4.119  -0.954  24.341  0.00  0.00    +0.138 C 
ATOM     18  C   UNL     1      -4.558  -1.425  23.824  0.00  0.00    +0.027 C 
ATOM     19  C   UNL     1      -4.174  -2.152  23.753  0.00  0.00    +0.019 C 
ATOM     20  C   UNL     1      -3.498  -2.130  24.225  0.00  0.00    +0.073 C 
ATOM     21  N   UNL     1      -3.464  -1.389  24.589  0.00  0.00    -0.263 NA
BRANCH  21  22
ATOM     22  C   UNL     1      -2.878  -1.131  25.108  0.00  0.00    +0.099 C 
BRANCH  22  23
ATOM     23  C   UNL     1      -2.101  -1.393  25.017  0.00  0.00    -0.005 A 
ATOM     24  C   UNL     1      -1.874  -2.125  25.323  0.00  0.00    -0.003 A 
ATOM     25  C   UNL     1      -1.097  -2.387  25.233  0.00  0.00    +0.000 A 
ATOM     26  C   UNL     1      -0.547  -1.917  24.836  0.00  0.00    +0.010 A 
ATOM     27  C   UNL     1      -0.774  -1.185  24.530  0.00  0.00    +0.068 A 
ATOM     28  C   UNL     1      -1.551  -0.923  24.621  0.00  0.00    +0.007 A 
BRANCH  27  29
ATOM     29  C   UNL     1      -0.223  -0.715  24.133  0.00  0.00    +0.100 C 
ATOM     30  N   UNL     1       0.326  -0.245  23.736  0.00  0.00    -0.191 NA
ENDBRANCH  27  29
ENDBRANCH  22  23
ENDBRANCH  21  22
ENDBRANCH  15  17
TORSDOF 9
ENDMDL
MODEL 6
REMARK VINA RESULT:      -8.1      1.773      2.750
REMARK  Name = 
REMARK  9 active torsions:
REMARK  status: ('A' for Active; 'I' for Inactive)
REMARK    1  A    between atoms: O_2  and  C_3
REMARK    2  A    between atoms: C_3  and  C_4
REMARK    3  A    between atoms: C_4  and  O_5
REMARK    4  A    between atoms: O_5  and  C_6
REMARK    5  A    between atoms: C_9  and  C_12
REMARK    6  A    between atoms: C_15  and  C_17
REMARK    7  A    between atoms: N_21  and  C_22
REMARK    8  A    between atoms: C_22  and  C_23
REMARK    9  A    between atoms: C_27  and  C_29
REMARK                            x       y       z     vdW  Elec       q    Type
REMARK                         _______ _______ _______ _____ _____    ______ ____
ROOT
ATOM     12  C   UNL     1      -1.043   2.727  24.362  0.00  0.00    +0.205 A 
ATOM     13  N   UNL     1      -1.124   3.458  23.988  0.00  0.00    -0.056 NA
ATOM     14  O   UNL     1      -1.742   3.864  24.355  0.00  0.00    -0.336 OA
ATOM     15  C   UNL     1      -2.042   3.384  24.955  0.00  0.00    +0.251 A 
ATOM     16  N   UNL     1      -1.609   2.681  24.959  0.00  0.00    -0.190 NA
ENDROOT
BRANCH  12   9
ATOM      6  C   UNL     1       0.613   0.978  23.790  0.00  0.00    +0.225 A 
ATOM      7  C   UNL     1      -0.173   0.898  23.548  0.00  0.00    +0.058 A 
ATOM      8  C   UNL     1      -0.724   1.481  23.738  0.00  0.00    +0.010 A 
ATOM      9  C   UNL     1      -0.491   2.144  24.172  0.00  0.00    +0.058 A 
ATOM     10  C   UNL     1       0.293   2.223  24.414  0.00  0.00    +0.105 A 
ATOM     11  N   UNL     1       0.845   1.640  24.223  0.00  0.00    -0.210 NA
BRANCH   6   5
ATOM      5  O   UNL     1       1.164   0.395  23.600  0.00  0.00    -0.457 OA
BRANCH   5   4
ATOM      4  C   UNL     1       1.656   0.491  22.944  0.00  0.00    +0.239 C 
BRANCH   4   3
ATOM      3  C   UNL     1       2.346   0.045  22.876  0.00  0.00    +0.189 C 
BRANCH   3   2
ATOM      1  C   UNL     1       3.671   0.333  22.427  0.00  0.00    +0.174 C 
ATOM      2  O   UNL     1       2.876   0.194  22.261  0.00  0.00    -0.347 OA
ENDBRANCH   3   2
ENDBRANCH   4   3
ENDBRANCH   5   4
ENDBRANCH   6   5
ENDBRANCH  12   9
BRANCH  15  17
ATOM     17  C   UNL     1      -2.664   3.573  25.462  0.00  0.00    +0.138 C 
ATOM     18  C   UNL     1      -2.600   3.978  26.179  0.00  0.00    +0.027 C 
ATOM     19  C   UNL     1      -3.357   4.046  26.501  0.00  0.00    +0.019 C 
ATOM     20  C   UNL     1      -3.888   3.684  25.985  0.00  0.00    +0.073 C 
ATOM     21  N   UNL     1      -3.460   3.392  25.342  0.00  0.00    -0.263 NA
BRANCH  21  22
ATOM     22  C   UNL     1      -3.773   2.990  24.694  0.00  0.00    +0.099 C 
BRANCH  22  23
ATOM     23  C   UNL     1      -4.367   2.428  24.804  0.00  0.00    -0.005 A 
ATOM     24  C   UNL     1      -5.149   2.671  24.910  0.00  0.00    -0.003 A 
ATOM     25  C   UNL     1      -5.743   2.109  25.021  0.00  0.00    +0.000 A 
ATOM     26  C   UNL     1      -5.556   1.306  25.025  0.00  0.00    +0.010 A 
ATOM     27  C   UNL     1      -4.775   1.063  24.920  0.00  0.00    +0.068 A 
ATOM     28  C   UNL     1      -4.180   1.625  24.809  0.00  0.00    +0.007 A 
BRANCH  27  29
ATOM     29  C   UNL     1      -4.588   0.259  24.924  0.00  0.00    +0.100 C 
ATOM     30  N   UNL     1      -4.400  -0.544  24.928  0.00  0.00    -0.191 NA
ENDBRANCH  27  29
ENDBRANCH  22  23
ENDBRANCH  21  22
ENDBRANCH  15  17
TORSDOF 9
ENDMDL
MODEL 7
REMARK VINA RESULT:      -7.9      2.871      4.196
REMARK  Name = 
REMARK  9 active torsions:
REMARK  status: ('A' for Active; 'I' for Inactive)
REMARK    1  A    between atoms: O_2  and  C_3
REMARK    2  A    between atoms: C_3  and  C_4
REMARK    3  A    between atoms: C_4  and  O_5
REMARK    4  A    between atoms: O_5  and  C_6
REMARK    5  A    between atoms: C_9  and  C_12
REMARK    6  A    between atoms: C_15  and  C_17
REMARK    7  A    between atoms: N_21  and  C_22
REMARK    8  A    between atoms: C_22  and  C_23
REMARK    9  A    between atoms: C_27  and  C_29
REMARK                            x       y       z     vdW  Elec       q    Type
REMARK                         _______ _______ _______ _____ _____    ______ ____
ROOT
ATOM     12  C   UNL     1      -2.040   2.179  25.025  0.00  0.00    +0.205 A 
ATOM     13  N   UNL     1      -2.233   2.481  24.281  0.00  0.00    -0.056 NA
ATOM     14  O   UNL     1      -2.987   2.208  24.083  0.00  0.00    -0.336 OA
ATOM     15  C   UNL     1      -3.259   1.739  24.705  0.00  0.00    +0.251 A 
ATOM     16  N   UNL     1      -2.674   1.721  25.286  0.00  0.00    -0.190 NA
ENDROOT
BRANCH  12   9
ATOM      6  C   UNL     1       0.071   2.580  26.253  0.00  0.00    +0.225 A 
ATOM      7  C   UNL     1      -0.466   3.197  26.142  0.00  0.00    +0.058 A 
ATOM      8  C   UNL     1      -1.170   3.063  25.733  0.00  0.00    +0.010 A 
ATOM      9  C   UNL     1      -1.337   2.313  25.434  0.00  0.00    +0.058 A 
ATOM     10  C   UNL     1      -0.801   1.696  25.544  0.00  0.00    +0.105 A 
ATOM     11  N   UNL     1      -0.097   1.830  25.954  0.00  0.00    -0.210 NA
BRANCH   6   5
ATOM      5  O   UNL     1       0.774   2.713  26.662  0.00  0.00    -0.457 OA
BRANCH   5   4
ATOM      4  C   UNL     1       0.798   2.623  27.482  0.00  0.00    +0.239 C 
BRANCH   4   3
ATOM      3  C   UNL     1       1.508   2.720  27.889  0.00  0.00    +0.189 C 
BRANCH   3   2
ATOM      1  C   UNL     1       2.243   2.707  29.114  0.00  0.00    +0.174 C 
ATOM      2  O   UNL     1       1.548   2.557  28.697  0.00  0.00    -0.347 OA
ENDBRANCH   3   2
ENDBRANCH   4   3
ENDBRANCH   5   4
ENDBRANCH   6   5
ENDBRANCH  12   9
BRANCH  15  17
ATOM     17  C   UNL     1      -3.988   1.355  24.739  0.00  0.00    +0.138 C 
ATOM     18  C   UNL     1      -4.667   1.635  25.115  0.00  0.00    +0.027 C 
ATOM     19  C   UNL     1      -5.266   1.076  25.012  0.00  0.00    +0.019 C 
ATOM     20  C   UNL     1      -4.957   0.451  24.572  0.00  0.00    +0.073 C 
ATOM     21  N   UNL     1      -4.167   0.623  24.403  0.00  0.00    -0.263 NA
BRANCH  21  22
ATOM     22  C   UNL     1      -3.649   0.146  23.973  0.00  0.00    +0.099 C 
BRANCH  22  23
ATOM     23  C   UNL     1      -3.684  -0.674  24.048  0.00  0.00    -0.005 A 
ATOM     24  C   UNL     1      -4.367  -1.080  23.824  0.00  0.00    -0.003 A 
ATOM     25  C   UNL     1      -4.402  -1.900  23.899  0.00  0.00    +0.000 A 
ATOM     26  C   UNL     1      -3.755  -2.316  24.198  0.00  0.00    +0.010 A 
ATOM     27  C   UNL     1      -3.072  -1.911  24.423  0.00  0.00    +0.068 A 
ATOM     28  C   UNL     1      -3.037  -1.089  24.347  0.00  0.00    +0.007 A 
BRANCH  27  29
ATOM     29  C   UNL     1      -2.425  -2.326  24.722  0.00  0.00    +0.100 C 
ATOM     30  N   UNL     1      -1.778  -2.741  25.021  0.00  0.00    -0.191 NA
ENDBRANCH  27  29
ENDBRANCH  22  23
ENDBRANCH  21  22
ENDBRANCH  15  17
TORSDOF 9
ENDMDL
MODEL 8
REMARK VINA RESULT:      -7.9      2.147      5.681
REMARK  Name = 
REMARK  9 active torsions:
REMARK  status: ('A' for Active; 'I' for Inactive)
REMARK    1  A    between atoms: O_2  and  C_3
REMARK    2  A    between atoms: C_3  and  C_4
REMARK    3  A    between atoms: C_4  and  O_5
REMARK    4  A    between atoms: O_5  and  C_6
REMARK    5  A    between atoms: C_9  and  C_12
REMARK    6  A    between atoms: C_15  and  C_17
REMARK    7  A    between atoms: N_21  and  C_22
REMARK    8  A    between atoms: C_22  and  C_23
REMARK    9  A    between atoms: C_27  and  C_29
REMARK                            x       y       z     vdW  Elec       q    Type
REMARK                         _______ _______ _______ _____ _____    ______ ____
ROOT
ATOM     12  C   UNL     1      -1.087   2.271  24.747  0.00  0.00    +0.205 A 
ATOM     13  N   UNL     1      -0.324   2.438  25.014  0.00  0.00    -0.056 NA
ATOM     14  O   UNL     1       0.174   1.834  24.755  0.00  0.00    -0.336 OA
ATOM     15  C   UNL     1      -0.281   1.294  24.328  0.00  0.00    +0.251 A 
ATOM     16  N   UNL     1      -1.060   1.564  24.323  0.00  0.00    -0.190 NA
ENDROOT
BRANCH  12   9
ATOM      6  C   UNL     1      -3.103   3.651  25.149  0.00  0.00    +0.225 A 
ATOM      7  C   UNL     1      -2.529   3.577  25.738  0.00  0.00    +0.058 A 
ATOM      8  C   UNL     1      -1.857   3.117  25.604  0.00  0.00    +0.010 A 
ATOM      9  C   UNL     1      -1.759   2.731  24.881  0.00  0.00    +0.058 A 
ATOM     10  C   UNL     1      -2.332   2.805  24.292  0.00  0.00    +0.105 A 
ATOM     11  N   UNL     1      -3.003   3.265  24.426  0.00  0.00    -0.210 NA
BRANCH   6   5
ATOM      5  O   UNL     1      -3.774   4.111  25.282  0.00  0.00    -0.457 OA
BRANCH   5   4
ATOM      4  C   UNL     1      -4.447   3.770  25.617  0.00  0.00    +0.239 C 
BRANCH   4   3
ATOM      3  C   UNL     1      -5.195   4.054  25.420  0.00  0.00    +0.189 C 
BRANCH   3   2
ATOM      1  C   UNL     1      -6.146   3.031  25.722  0.00  0.00    +0.174 C 
ATOM      2  O   UNL     1      -5.859   3.795  25.837  0.00  0.00    -0.347 OA
ENDBRANCH   3   2
ENDBRANCH   4   3
ENDBRANCH   5   4
ENDBRANCH   6   5
ENDBRANCH  12   9
BRANCH  15  17
ATOM     17  C   UNL     1      -0.005   0.604  23.969  0.00  0.00    +0.138 C 
ATOM     18  C   UNL     1       0.498   0.566  23.315  0.00  0.00    +0.027 C 
ATOM     19  C   UNL     1       0.630  -0.231  23.142  0.00  0.00    +0.019 C 
ATOM     20  C   UNL     1       0.209  -0.683  23.688  0.00  0.00    +0.073 C 
ATOM     21  N   UNL     1      -0.183  -0.168  24.199  0.00  0.00    -0.263 NA
BRANCH  21  22
ATOM     22  C   UNL     1      -0.669  -0.386  24.829  0.00  0.00    +0.099 C 
BRANCH  22  23
ATOM     23  C   UNL     1      -1.077  -1.102  24.807  0.00  0.00    -0.005 A 
ATOM     24  C   UNL     1      -0.689  -1.804  24.999  0.00  0.00    -0.003 A 
ATOM     25  C   UNL     1      -1.098  -2.520  24.976  0.00  0.00    +0.000 A 
ATOM     26  C   UNL     1      -1.894  -2.534  24.762  0.00  0.00    +0.010 A 
ATOM     27  C   UNL     1      -2.283  -1.832  24.570  0.00  0.00    +0.068 A 
ATOM     28  C   UNL     1      -1.874  -1.116  24.593  0.00  0.00    +0.007 A 
BRANCH  27  29
ATOM     29  C   UNL     1      -3.080  -1.846  24.356  0.00  0.00    +0.100 C 
ATOM     30  N   UNL     1      -3.876  -1.860  24.142  0.00  0.00    -0.191 NA
ENDBRANCH  27  29
ENDBRANCH  22  23
ENDBRANCH  21  22
ENDBRANCH  15  17
TORSDOF 9
ENDMDL
MODEL 9
REMARK VINA RESULT:      -7.8      1.298      2.857
REMARK  Name = 
REMARK  9 active torsions:
REMARK  status: ('A' for Active; 'I' for Inactive)
REMARK    1  A    between atoms: O_2  and  C_3
REMARK    2  A    between atoms: C_3  and  C_4
REMARK    3  A    between atoms: C_4  and  O_5
REMARK    4  A    between atoms: O_5  and  C_6
REMARK    5  A    between atoms: C_9  and  C_12
REMARK    6  A    between atoms: C_15  and  C_17
REMARK    7  A    between atoms: N_21  and  C_22
REMARK    8  A    between atoms: C_22  and  C_23
REMARK    9  A    between atoms: C_27  and  C_29
REMARK                            x       y       z     vdW  Elec       q    Type
REMARK                         _______ _______ _______ _____ _____    ______ ____
ROOT
ATOM     12  C   UNL     1      -0.478   1.219  24.270  0.00  0.00    +0.205 A 
ATOM     13  N   UNL     1      -0.562   1.427  25.065  0.00  0.00    -0.056 NA
ATOM     14  O   UNL     1      -1.359   1.590  25.203  0.00  0.00    -0.336 OA
ATOM     15  C   UNL     1      -1.768   1.482  24.494  0.00  0.00    +0.251 A 
ATOM     16  N   UNL     1      -1.223   1.252  23.918  0.00  0.00    -0.190 NA
ENDROOT
BRANCH  12   9
ATOM      6  C   UNL     1       1.637   0.600  23.145  0.00  0.00    +0.225 A 
ATOM      7  C   UNL     1       0.993   0.084  23.125  0.00  0.00    +0.058 A 
ATOM      8  C   UNL     1       0.288   0.290  23.500  0.00  0.00    +0.010 A 
ATOM      9  C   UNL     1       0.227   1.012  23.895  0.00  0.00    +0.058 A 
ATOM     10  C   UNL     1       0.870   1.528  23.915  0.00  0.00    +0.105 A 
ATOM     11  N   UNL     1       1.575   1.322  23.540  0.00  0.00    -0.210 NA
BRANCH   6   5
ATOM      5  O   UNL     1       2.343   0.394  22.770  0.00  0.00    -0.457 OA
BRANCH   5   4
ATOM      4  C   UNL     1       3.062   0.675  23.061  0.00  0.00    +0.239 C 
BRANCH   4   3
ATOM      3  C   UNL     1       3.772   0.384  22.759  0.00  0.00    +0.189 C 
BRANCH   3   2
ATOM      1  C   UNL     1       5.120   0.238  23.208  0.00  0.00    +0.174 C 
ATOM      2  O   UNL     1       4.488   0.721  22.992  0.00  0.00    -0.347 OA
ENDBRANCH   3   2
ENDBRANCH   4   3
ENDBRANCH   5   4
ENDBRANCH   6   5
ENDBRANCH  12   9
BRANCH  15  17
ATOM     17  C   UNL     1      -2.578   1.585  24.381  0.00  0.00    +0.138 C 
ATOM     18  C   UNL     1      -2.939   2.236  24.023  0.00  0.00    +0.027 C 
ATOM     19  C   UNL     1      -3.755   2.109  24.027  0.00  0.00    +0.019 C 
ATOM     20  C   UNL     1      -3.898   1.380  24.386  0.00  0.00    +0.073 C 
ATOM     21  N   UNL     1      -3.171   1.057  24.605  0.00  0.00    -0.263 NA
BRANCH  21  22
ATOM     22  C   UNL     1      -3.057   0.332  24.982  0.00  0.00    +0.099 C 
BRANCH  22  23
ATOM     23  C   UNL     1      -3.454  -0.339  24.714  0.00  0.00    -0.005 A 
ATOM     24  C   UNL     1      -4.250  -0.290  24.499  0.00  0.00    -0.003 A 
ATOM     25  C   UNL     1      -4.647  -0.961  24.231  0.00  0.00    +0.000 A 
ATOM     26  C   UNL     1      -4.250  -1.682  24.178  0.00  0.00    +0.010 A 
ATOM     27  C   UNL     1      -3.455  -1.732  24.393  0.00  0.00    +0.068 A 
ATOM     28  C   UNL     1      -3.057  -1.060  24.661  0.00  0.00    +0.007 A 
BRANCH  27  29
ATOM     29  C   UNL     1      -3.058  -2.454  24.341  0.00  0.00    +0.100 C 
ATOM     30  N   UNL     1      -2.661  -3.175  24.289  0.00  0.00    -0.191 NA
ENDBRANCH  27  29
ENDBRANCH  22  23
ENDBRANCH  21  22
ENDBRANCH  15  17
TORSDOF 9
ENDMDL
