MODEL 1
REMARK VINA RESULT:     -10.0      0.000      0.000
REMARK  Name = 
REMARK  9 active torsions:
REMARK  status: ('A' for Active; 'I' for Inactive)
REMARK    1  A    between atoms: C_5  and  S_7
REMARK    2  A    between atoms: S_7  and  N_10
REMARK    3  A    between atoms: N_10  and  C_11
REMARK    4  A    between atoms: C_15  and  C_17
REMARK    5  A    between atoms: N_19  and  C_20
REMARK    6  A    between atoms: C_20  and  C_21
REMARK    7  A    between atoms: C_20  and  C_27
REMARK    8  A    between atoms: C_21  and  C_22
REMARK    9  A    between atoms: C_30  and  C_32
REMARK                            x       y       z     vdW  Elec       q    Type
REMARK                         _______ _______ _______ _____ _____    ______ ____
ROOT
ATOM     11  C   UNL     1      -2.194  -0.237  25.416  0.00  0.00    +0.102 C 
ATOM     12  C   UNL     1      -1.396  -0.346  25.238  0.00  0.00    +0.041 C 
ATOM     13  C   UNL     1      -0.975   0.250  24.852  0.00  0.00    +0.096 C 
ATOM     14  N   UNL     1      -1.353   0.953  24.643  0.00  0.00    -0.268 N 
ATOM     15  C   UNL     1      -2.151   1.061  24.821  0.00  0.00    +0.155 C 
ATOM     16  C   UNL     1      -2.572   0.465  25.208  0.00  0.00    +0.049 C 
ATOM     30  C   UNL     1      -0.932   1.548  24.256  0.00  0.00    +0.267 C 
ATOM     31  O   UNL     1      -1.310   2.251  24.048  0.00  0.00    -0.268 OA
ENDROOT
BRANCH  30  32
ATOM     32  C   UNL     1      -0.135   1.440  24.079  0.00  0.00    +0.133 A 
ATOM     33  C   UNL     1       0.175   0.877  23.562  0.00  0.00    +0.040 A 
ATOM     34  C   UNL     1       0.996   0.965  23.550  0.00  0.00    +0.081 A 
ATOM     35  C   UNL     1       1.525   0.515  23.107  0.00  0.00    +0.054 C 
ATOM     36  N   UNL     1       1.193   1.583  24.060  0.00  0.00    -0.173 NA
ATOM     37  N   UNL     1       0.494   1.876  24.387  0.00  0.00    -0.245 N 
ATOM     38  C   UNL     1       0.435   2.497  24.927  0.00  0.00    +0.154 C 
ENDBRANCH  30  32
BRANCH  15  17
ATOM     17  C   UNL     1      -2.529   1.763  24.612  0.00  0.00    +0.260 C 
ATOM     18  O   UNL     1      -2.454   2.062  23.846  0.00  0.00    -0.272 OA
ATOM     19  N   UNL     1      -2.983   2.169  25.170  0.00  0.00    -0.196 NA
BRANCH  19  20
ATOM     20  C   UNL     1      -3.361   2.872  24.961  0.00  0.00    +0.179 C 
BRANCH  20  27
ATOM     27  C   UNL     1      -3.042   3.596  25.193  0.00  0.00    +0.281 C 
ATOM     28  N   UNL     1      -2.975   4.211  24.646  0.00  0.00    -0.086 NA
ATOM     29  O   UNL     1      -2.791   3.707  25.971  0.00  0.00    -0.270 OA
ENDBRANCH  20  27
BRANCH  20  21
ATOM     21  C   UNL     1      -4.058   2.850  24.520  0.00  0.00    +0.064 C 
BRANCH  21  22
ATOM     22  C   UNL     1      -4.779   2.701  24.895  0.00  0.00    +0.010 A 
ATOM     23  C   UNL     1      -5.273   2.055  24.756  0.00  0.00    +0.003 A 
ATOM     24  C   UNL     1      -5.930   2.128  25.249  0.00  0.00    +0.007 A 
ATOM     25  C   UNL     1      -5.842   2.818  25.692  0.00  0.00    +0.035 A 
ATOM     26  S   UNL     1      -5.131   3.172  25.473  0.00  0.00    -0.091 S 
ENDBRANCH  21  22
ENDBRANCH  20  21
ENDBRANCH  19  20
ENDBRANCH  15  17
BRANCH  11  10
ATOM     10  N   UNL     1      -2.615  -0.833  25.803  0.00  0.00    -0.078 NA
BRANCH  10   7
ATOM      7  S   UNL     1      -2.998  -1.418  25.365  0.00  0.00    +0.095 S 
ATOM      8  O   UNL     1      -2.273  -1.780  25.215  0.00  0.00    -0.150 OA
ATOM      9  O   UNL     1      -3.724  -1.056  25.515  0.00  0.00    -0.150 OA
BRANCH   7   5
ATOM      1  C   UNL     1      -4.684  -2.746  23.409  0.00  0.00    +0.132 C 
ATOM      2  N   UNL     1      -4.155  -2.614  24.028  0.00  0.00    -0.305 N 
ATOM      3  C   UNL     1      -3.782  -3.195  24.478  0.00  0.00    +0.180 A 
ATOM      4  N   UNL     1      -3.303  -2.818  25.034  0.00  0.00    -0.204 NA
ATOM      5  C   UNL     1      -3.381  -2.003  24.927  0.00  0.00    +0.223 A 
ATOM      6  C   UNL     1      -3.908  -1.877  24.305  0.00  0.00    +0.117 A 
ENDBRANCH   7   5
ENDBRANCH  10   7
ENDBRANCH  11  10
TORSDOF 9
ENDMDL
MODEL 2
REMARK VINA RESULT:      -9.9      1.945      3.874
REMARK  Name = 
REMARK  9 active torsions:
REMARK  status: ('A' for Active; 'I' for Inactive)
REMARK    1  A    between atoms: C_5  and  S_7
REMARK    2  A    between atoms: S_7  and  N_10
REMARK    3  A    between atoms: N_10  and  C_11
REMARK    4  A    between atoms: C_15  and  C_17
REMARK    5  A    between atoms: N_19  and  C_20
REMARK    6  A    between atoms: C_20  and  C_21
REMARK    7  A    between atoms: C_20  and  C_27
REMARK    8  A    between atoms: C_21  and  C_22
REMARK    9  A    between atoms: C_30  and  C_32
REMARK                            x       y       z     vdW  Elec       q    Type
REMARK                         _______ _______ _______ _____ _____    ______ ____
ROOT
ATOM     11  C   UNL     1      -3.452   1.091  24.105  0.00  0.00    +0.102 C 
ATOM     12  C   UNL     1      -3.408   0.271  24.183  0.00  0.00    +0.041 C 
ATOM     13  C   UNL     1      -2.698  -0.084  24.408  0.00  0.00    +0.096 C 
ATOM     14  N   UNL     1      -2.033   0.381  24.555  0.00  0.00    -0.268 N 
ATOM     15  C   UNL     1      -2.076   1.200  24.476  0.00  0.00    +0.155 C 
ATOM     16  C   UNL     1      -2.786   1.556  24.251  0.00  0.00    +0.049 C 
ATOM     30  C   UNL     1      -1.323   0.025  24.780  0.00  0.00    +0.267 C 
ATOM     31  O   UNL     1      -0.657   0.489  24.926  0.00  0.00    -0.268 OA
ENDROOT
BRANCH  30  32
ATOM     32  C   UNL     1      -1.279  -0.795  24.858  0.00  0.00    +0.133 A 
ATOM     33  C   UNL     1      -1.368  -1.346  24.250  0.00  0.00    +0.040 A 
ATOM     34  C   UNL     1      -1.283  -2.100  24.574  0.00  0.00    +0.081 A 
ATOM     35  C   UNL     1      -1.331  -2.813  24.163  0.00  0.00    +0.054 C 
ATOM     36  N   UNL     1      -1.141  -2.015  25.383  0.00  0.00    -0.173 NA
ATOM     37  N   UNL     1      -1.138  -1.209  25.558  0.00  0.00    -0.245 N 
ATOM     38  C   UNL     1      -1.017  -0.874  26.302  0.00  0.00    +0.154 C 
ENDBRANCH  30  32
BRANCH  15  17
ATOM     17  C   UNL     1      -1.411   1.665  24.623  0.00  0.00    +0.260 C 
ATOM     18  O   UNL     1      -0.716   1.538  24.196  0.00  0.00    -0.272 OA
ATOM     19  N   UNL     1      -1.439   2.257  25.196  0.00  0.00    -0.196 NA
BRANCH  19  20
ATOM     20  C   UNL     1      -0.774   2.722  25.342  0.00  0.00    +0.179 C 
BRANCH  20  27
ATOM     27  C   UNL     1      -0.305   2.575  26.005  0.00  0.00    +0.281 C 
ATOM     28  N   UNL     1       0.512   2.493  25.923  0.00  0.00    -0.086 NA
ATOM     29  O   UNL     1      -0.654   2.512  26.751  0.00  0.00    -0.270 OA
ENDBRANCH  20  27
BRANCH  20  21
ATOM     21  C   UNL     1      -0.576   3.334  24.825  0.00  0.00    +0.064 C 
BRANCH  21  22
ATOM     22  C   UNL     1      -0.905   4.084  24.928  0.00  0.00    +0.010 A 
ATOM     23  C   UNL     1      -1.592   4.258  25.350  0.00  0.00    +0.003 A 
ATOM     24  C   UNL     1      -1.716   5.073  25.310  0.00  0.00    +0.007 A 
ATOM     25  C   UNL     1      -1.105   5.402  24.864  0.00  0.00    +0.035 A 
ATOM     26  S   UNL     1      -0.604   4.791  24.628  0.00  0.00    -0.091 S 
ENDBRANCH  21  22
ENDBRANCH  20  21
ENDBRANCH  19  20
ENDBRANCH  15  17
BRANCH  11  10
ATOM     10  N   UNL     1      -4.162   1.447  23.880  0.00  0.00    -0.078 NA
BRANCH  10   7
ATOM      7  S   UNL     1      -4.584   1.902  24.423  0.00  0.00    +0.095 S 
ATOM      8  O   UNL     1      -4.350   2.589  24.030  0.00  0.00    -0.150 OA
ATOM      9  O   UNL     1      -4.819   1.217  24.816  0.00  0.00    -0.150 OA
BRANCH   7   5
ATOM      1  C   UNL     1      -5.719   4.175  25.831  0.00  0.00    +0.132 C 
ATOM      2  N   UNL     1      -5.529   3.402  25.613  0.00  0.00    -0.305 N 
ATOM      3  C   UNL     1      -5.787   2.716  25.988  0.00  0.00    +0.180 A 
ATOM      4  N   UNL     1      -5.465   2.070  25.588  0.00  0.00    -0.204 NA
ATOM      5  C   UNL     1      -5.007   2.358  24.965  0.00  0.00    +0.223 A 
ATOM      6  C   UNL     1      -5.047   3.183  24.981  0.00  0.00    +0.117 A 
ENDBRANCH   7   5
ENDBRANCH  10   7
ENDBRANCH  11  10
TORSDOF 9
ENDMDL
MODEL 3
REMARK VINA RESULT:      -9.7      1.482      3.959
REMARK  Name = 
REMARK  9 active torsions:
REMARK  status: ('A' for Active; 'I' for Inactive)
REMARK    1  A    between atoms: C_5  and  S_7
REMARK    2  A    between atoms: S_7  and  N_10
REMARK    3  A    between atoms: N_10  and  C_11
REMARK    4  A    between atoms: C_15  and  C_17
REMARK    5  A    between atoms: N_19  and  C_20
REMARK    6  A    between atoms: C_20  and  C_21
REMARK    7  A    between atoms: C_20  and  C_27
REMARK    8  A    between atoms: C_21  and  C_22
REMARK    9  A    between atoms: C_30  and  C_32
REMARK                            x       y       z     vdW  Elec       q    Type
REMARK                         _______ _______ _______ _____ _____    ______ ____
ROOT
ATOM     11  C   UNL     1      -0.867   0.415  24.465  0.00  0.00    +0.102 C 
ATOM     12  C   UNL     1      -1.029  -0.357  24.711  0.00  0.00    +0.041 C 
ATOM     13  C   UNL     1      -1.803  -0.643  24.687  0.00  0.00    +0.096 C 
ATOM     14  N   UNL     1      -2.414  -0.158  24.418  0.00  0.00    -0.268 N 
ATOM     15  C   UNL     1      -2.252   0.612  24.172  0.00  0.00    +0.155 C 
ATOM     16  C   UNL     1      -1.478   0.899  24.195  0.00  0.00    +0.049 C 
ATOM     30  C   UNL     1      -3.187  -0.445  24.394  0.00  0.00    +0.267 C 
ATOM     31  O   UNL     1      -3.798   0.039  24.125  0.00  0.00    -0.268 OA
ENDROOT
BRANCH  30  32
ATOM     32  C   UNL     1      -3.349  -1.216  24.640  0.00  0.00    +0.133 A 
ATOM     33  C   UNL     1      -3.220  -1.902  24.201  0.00  0.00    +0.040 A 
ATOM     34  C   UNL     1      -3.460  -2.546  24.657  0.00  0.00    +0.081 A 
ATOM     35  C   UNL     1      -3.428  -3.339  24.432  0.00  0.00    +0.054 C 
ATOM     36  N   UNL     1      -3.736  -2.258  25.379  0.00  0.00    -0.173 NA
ATOM     37  N   UNL     1      -3.668  -1.436  25.368  0.00  0.00    -0.245 N 
ATOM     38  C   UNL     1      -3.881  -0.923  25.979  0.00  0.00    +0.154 C 
ENDBRANCH  30  32
BRANCH  15  17
ATOM     17  C   UNL     1      -2.863   1.096  23.903  0.00  0.00    +0.260 C 
ATOM     18  O   UNL     1      -3.331   0.856  23.267  0.00  0.00    -0.272 OA
ATOM     19  N   UNL     1      -3.007   1.821  24.269  0.00  0.00    -0.196 NA
BRANCH  19  20
ATOM     20  C   UNL     1      -3.618   2.305  24.000  0.00  0.00    +0.179 C 
BRANCH  20  27
ATOM     27  C   UNL     1      -3.471   2.870  23.418  0.00  0.00    +0.281 C 
ATOM     28  N   UNL     1      -3.960   2.916  22.755  0.00  0.00    -0.086 NA
ATOM     29  O   UNL     1      -2.834   3.389  23.497  0.00  0.00    -0.270 OA
ENDBRANCH  20  27
BRANCH  20  21
ATOM     21  C   UNL     1      -4.377   2.224  24.314  0.00  0.00    +0.064 C 
BRANCH  21  22
ATOM     22  C   UNL     1      -4.598   2.664  24.977  0.00  0.00    +0.010 A 
ATOM     23  C   UNL     1      -4.129   3.214  25.373  0.00  0.00    +0.003 A 
ATOM     24  C   UNL     1      -4.569   3.520  26.000  0.00  0.00    +0.007 A 
ATOM     25  C   UNL     1      -5.310   3.159  25.991  0.00  0.00    +0.035 A 
ATOM     26  S   UNL     1      -5.329   2.630  25.359  0.00  0.00    -0.091 S 
ENDBRANCH  21  22
ENDBRANCH  20  21
ENDBRANCH  19  20
ENDBRANCH  15  17
BRANCH  11  10
ATOM     10  N   UNL     1      -0.094   0.701  24.488  0.00  0.00    -0.078 NA
BRANCH  10   7
ATOM      7  S   UNL     1       0.441   0.493  23.896  0.00  0.00    +0.095 S 
ATOM      8  O   UNL     1       0.375   1.248  23.570  0.00  0.00    -0.150 OA
ATOM      9  O   UNL     1       0.508  -0.262  24.220  0.00  0.00    -0.150 OA
BRANCH   7   5
ATOM      1  C   UNL     1       2.890   0.204  22.362  0.00  0.00    +0.132 C 
ATOM      2  N   UNL     1       2.101   0.152  22.597  0.00  0.00    -0.305 N 
ATOM      3  C   UNL     1       1.496  -0.223  22.182  0.00  0.00    +0.180 A 
ATOM      4  N   UNL     1       0.800  -0.141  22.618  0.00  0.00    -0.204 NA
ATOM      5  C   UNL     1       0.976   0.285  23.303  0.00  0.00    +0.223 A 
ATOM      6  C   UNL     1       1.781   0.466  23.290  0.00  0.00    +0.117 A 
ENDBRANCH   7   5
ENDBRANCH  10   7
ENDBRANCH  11  10
TORSDOF 9
ENDMDL
MODEL 4
REMARK VINA RESULT:      -9.6      1.792      4.020
REMARK  Name = 
REMARK  9 active torsions:
REMARK  status: ('A' for Active; 'I' for Inactive)
REMARK    1  A    between atoms: C_5  and  S_7
REMARK    2  A    between atoms: S_7  and  N_10
REMARK    3  A    between atoms: N_10  and  C_11
REMARK    4  A    between atoms: C_15  and  C_17
REMARK    5  A    between atoms: N_19  and  C_20
REMARK    6  A    between atoms: C_20  and  C_21
REMARK    7  A    between atoms: C_20  and  C_27
REMARK    8  A    between atoms: C_21  and  C_22
REMARK    9  A    between atoms: C_30  and  C_32
REMARK                            x       y       z     vdW  Elec       q    Type
REMARK                         _______ _______ _______ _____ _____    ______ ____
ROOT
ATOM     11  C   UNL     1      -0.742   1.025  24.922  0.00  0.00    +0.102 C 
ATOM     12  C   UNL     1      -0.553   1.803  25.122  0.00  0.00    +0.041 C 
ATOM     13  C   UNL     1      -1.140   2.382  25.123  0.00  0.00    +0.096 C 
ATOM     14  N   UNL     1      -1.915   2.184  24.924  0.00  0.00    -0.268 N 
ATOM     15  C   UNL     1      -2.104   1.407  24.724  0.00  0.00    +0.155 C 
ATOM     16  C   UNL     1      -1.517   0.827  24.723  0.00  0.00    +0.049 C 
ATOM     30  C   UNL     1      -2.503   2.764  24.925  0.00  0.00    +0.267 C 
ATOM     31  O   UNL     1      -3.278   2.566  24.726  0.00  0.00    -0.268 OA
ENDROOT
BRANCH  30  32
ATOM     32  C   UNL     1      -2.314   3.542  25.125  0.00  0.00    +0.133 A 
ATOM     33  C   UNL     1      -1.746   4.013  24.757  0.00  0.00    +0.040 A 
ATOM     34  C   UNL     1      -1.741   4.747  25.133  0.00  0.00    +0.081 A 
ATOM     35  C   UNL     1      -1.256   5.387  24.942  0.00  0.00    +0.054 C 
ATOM     36  N   UNL     1      -2.306   4.730  25.734  0.00  0.00    -0.173 NA
ATOM     37  N   UNL     1      -2.659   3.985  25.729  0.00  0.00    -0.245 N 
ATOM     38  C   UNL     1      -3.255   3.727  26.239  0.00  0.00    +0.154 C 
ENDBRANCH  30  32
BRANCH  15  17
ATOM     17  C   UNL     1      -2.879   1.209  24.524  0.00  0.00    +0.260 C 
ATOM     18  O   UNL     1      -3.272   1.624  23.929  0.00  0.00    -0.272 OA
ATOM     19  N   UNL     1      -3.263   0.595  24.920  0.00  0.00    -0.196 NA
BRANCH  19  20
ATOM     20  C   UNL     1      -4.038   0.396  24.721  0.00  0.00    +0.179 C 
BRANCH  20  27
ATOM     27  C   UNL     1      -4.669   0.719  25.144  0.00  0.00    +0.281 C 
ATOM     28  N   UNL     1      -5.279   1.104  24.744  0.00  0.00    -0.086 NA
ATOM     29  O   UNL     1      -4.689   0.656  25.966  0.00  0.00    -0.270 OA
ENDBRANCH  20  27
BRANCH  20  21
ATOM     21  C   UNL     1      -4.183  -0.125  24.098  0.00  0.00    +0.064 C 
BRANCH  21  22
ATOM     22  C   UNL     1      -4.080  -0.937  24.206  0.00  0.00    +0.010 A 
ATOM     23  C   UNL     1      -3.890  -1.311  24.916  0.00  0.00    +0.003 A 
ATOM     24  C   UNL     1      -3.841  -2.122  24.772  0.00  0.00    +0.007 A 
ATOM     25  C   UNL     1      -3.999  -2.249  23.973  0.00  0.00    +0.035 A 
ATOM     26  S   UNL     1      -4.147  -1.517  23.623  0.00  0.00    -0.091 S 
ENDBRANCH  21  22
ENDBRANCH  20  21
ENDBRANCH  19  20
ENDBRANCH  15  17
BRANCH  11  10
ATOM     10  N   UNL     1      -0.155   0.445  24.921  0.00  0.00    -0.078 NA
BRANCH  10   7
ATOM      7  S   UNL     1       0.271   0.291  24.231  0.00  0.00    +0.095 S 
ATOM      8  O   UNL     1      -0.103  -0.441  24.164  0.00  0.00    -0.150 OA
ATOM      9  O   UNL     1       0.646   1.023  24.298  0.00  0.00    -0.150 OA
BRANCH   7   5
ATOM      1  C   UNL     1       2.436   0.108  22.304  0.00  0.00    +0.132 C 
ATOM      2  N   UNL     1       1.691   0.052  22.655  0.00  0.00    -0.305 N 
ATOM      3  C   UNL     1       1.012  -0.255  22.304  0.00  0.00    +0.180 A 
ATOM      4  N   UNL     1       0.397  -0.203  22.852  0.00  0.00    -0.204 NA
ATOM      5  C   UNL     1       0.697   0.137  23.541  0.00  0.00    +0.223 A 
ATOM      6  C   UNL     1       1.498   0.294  23.420  0.00  0.00    +0.117 A 
ENDBRANCH   7   5
ENDBRANCH  10   7
ENDBRANCH  11  10
TORSDOF 9
ENDMDL
MODEL 5
REMARK VINA RESULT:      -9.3      1.434      4.342
REMARK  Name = 
REMARK  9 active torsions:
REMARK  status: ('A' for Active; 'I' for Inactive)
REMARK    1  A    between atoms: C_5  and  S_7
REMARK    2  A    between atoms: S_7  and  N_10
REMARK    3  A    between atoms: N_10  and  C_11
REMARK    4  A    between atoms: C_15  and  C_17
REMARK    5  A    between atoms: N_19  and  C_20
REMARK    6  A    between atoms: C_20  and  C_21
REMARK    7  A    between atoms: C_20  and  C_27
REMARK    8  A    between atoms: C_21  and  C_22
REMARK    9  A    between atoms: C_30  and  C_32
REMARK                            x       y       z     vdW  Elec       q    Type
REMARK                         _______ _______ _______ _____ _____    ______ ____
ROOT
ATOM     11  C   UNL     1      -3.188   1.744  24.343  0.00  0.00    +0.102 C 
ATOM     12  C   UNL     1      -2.600   2.303  24.498  0.00  0.00    +0.041 C 
ATOM     13  C   UNL     1      -1.887   2.066  24.838  0.00  0.00    +0.096 C 
ATOM     14  N   UNL     1      -1.760   1.272  25.021  0.00  0.00    -0.268 N 
ATOM     15  C   UNL     1      -2.347   0.714  24.866  0.00  0.00    +0.155 C 
ATOM     16  C   UNL     1      -3.062   0.950  24.526  0.00  0.00    +0.049 C 
ATOM     30  C   UNL     1      -1.046   1.036  25.361  0.00  0.00    +0.267 C 
ATOM     31  O   UNL     1      -0.920   0.242  25.544  0.00  0.00    -0.268 OA
ENDROOT
BRANCH  30  32
ATOM     32  C   UNL     1      -0.459   1.593  25.516  0.00  0.00    +0.133 A 
ATOM     33  C   UNL     1      -0.442   2.114  26.156  0.00  0.00    +0.040 A 
ATOM     34  C   UNL     1       0.242   2.571  26.095  0.00  0.00    +0.081 A 
ATOM     35  C   UNL     1       0.479   3.162  26.618  0.00  0.00    +0.054 C 
ATOM     36  N   UNL     1       0.648   2.334  25.416  0.00  0.00    -0.173 NA
ATOM     37  N   UNL     1       0.214   1.730  25.059  0.00  0.00    -0.245 N 
ATOM     38  C   UNL     1       0.418   1.330  24.366  0.00  0.00    +0.154 C 
ENDBRANCH  30  32
BRANCH  15  17
ATOM     17  C   UNL     1      -2.221  -0.080  25.049  0.00  0.00    +0.260 C 
ATOM     18  O   UNL     1      -2.009  -0.298  25.817  0.00  0.00    -0.272 OA
ATOM     19  N   UNL     1      -2.307  -0.657  24.466  0.00  0.00    -0.196 NA
BRANCH  19  20
ATOM     20  C   UNL     1      -2.181  -1.451  24.650  0.00  0.00    +0.179 C 
BRANCH  20  27
ATOM     27  C   UNL     1      -1.465  -1.811  24.456  0.00  0.00    +0.281 C 
ATOM     28  N   UNL     1      -1.056  -2.248  25.025  0.00  0.00    -0.086 NA
ATOM     29  O   UNL     1      -1.156  -1.734  23.695  0.00  0.00    -0.270 OA
ENDBRANCH  20  27
BRANCH  20  21
ATOM     21  C   UNL     1      -2.773  -1.886  25.027  0.00  0.00    +0.064 C 
BRANCH  21  22
ATOM     22  C   UNL     1      -3.363  -2.252  24.582  0.00  0.00    +0.010 A 
ATOM     23  C   UNL     1      -3.960  -1.870  24.160  0.00  0.00    +0.003 A 
ATOM     24  C   UNL     1      -4.426  -2.447  23.798  0.00  0.00    +0.007 A 
ATOM     25  C   UNL     1      -4.117  -3.186  23.997  0.00  0.00    +0.035 A 
ATOM     26  S   UNL     1      -3.461  -3.065  24.481  0.00  0.00    -0.091 S 
ENDBRANCH  21  22
ENDBRANCH  20  21
ENDBRANCH  19  20
ENDBRANCH  15  17
BRANCH  11  10
ATOM     10  N   UNL     1      -3.902   1.981  24.003  0.00  0.00    -0.078 NA
BRANCH  10   7
ATOM      7  S   UNL     1      -4.469   2.367  24.462  0.00  0.00    +0.095 S 
ATOM      8  O   UNL     1      -4.805   1.640  24.659  0.00  0.00    -0.150 OA
ATOM      9  O   UNL     1      -4.133   3.094  24.266  0.00  0.00    -0.150 OA
BRANCH   7   5
ATOM      1  C   UNL     1      -5.998   4.448  25.790  0.00  0.00    +0.132 C 
ATOM      2  N   UNL     1      -5.739   3.709  25.532  0.00  0.00    -0.305 N 
ATOM      3  C   UNL     1      -6.077   2.982  25.724  0.00  0.00    +0.180 A 
ATOM      4  N   UNL     1      -5.642   2.391  25.347  0.00  0.00    -0.204 NA
ATOM      5  C   UNL     1      -5.036   2.753  24.921  0.00  0.00    +0.223 A 
ATOM      6  C   UNL     1      -5.095   3.568  25.035  0.00  0.00    +0.117 A 
ENDBRANCH   7   5
ENDBRANCH  10   7
ENDBRANCH  11  10
TORSDOF 9
ENDMDL
MODEL 6
REMARK VINA RESULT:      -9.3      1.676      4.173
REMARK  Name = 
REMARK  9 active torsions:
REMARK  status: ('A' for Active; 'I' for Inactive)
REMARK    1  A    between atoms: C_5  and  S_7
REMARK    2  A    between atoms: S_7  and  N_10
REMARK    3  A    between atoms: N_10  and  C_11
REMARK    4  A    between atoms: C_15  and  C_17
REMARK    5  A    between atoms: N_19  and  C_20
REMARK    6  A    between atoms: C_20  and  C_21
REMARK    7  A    between atoms: C_20  and  C_27
REMARK    8  A    between atoms: C_21  and  C_22
REMARK    9  A    between atoms: C_30  and  C_32
REMARK                            x       y       z     vdW  Elec       q    Type
REMARK                         _______ _______ _______ _____ _____    ______ ____
ROOT
ATOM     11  C   UNL     1      -1.124   2.190  25.573  0.00  0.00    +0.102 C 
ATOM     12  C   UNL     1      -0.409   1.848  25.342  0.00  0.00    +0.041 C 
ATOM     13  C   UNL     1      -0.411   1.183  24.853  0.00  0.00    +0.096 C 
ATOM     14  N   UNL     1      -1.125   0.861  24.596  0.00  0.00    -0.268 N 
ATOM     15  C   UNL     1      -1.839   1.202  24.827  0.00  0.00    +0.155 C 
ATOM     16  C   UNL     1      -1.839   1.867  25.316  0.00  0.00    +0.049 C 
ATOM     30  C   UNL     1      -1.125   0.196  24.107  0.00  0.00    +0.267 C 
ATOM     31  O   UNL     1      -1.839  -0.127  23.850  0.00  0.00    -0.268 OA
ENDROOT
BRANCH  30  32
ATOM     32  C   UNL     1      -0.411  -0.146  23.875  0.00  0.00    +0.133 A 
ATOM     33  C   UNL     1       0.138   0.183  23.355  0.00  0.00    +0.040 A 
ATOM     34  C   UNL     1       0.768  -0.345  23.281  0.00  0.00    +0.081 A 
ATOM     35  C   UNL     1       1.439  -0.236  22.815  0.00  0.00    +0.054 C 
ATOM     36  N   UNL     1       0.608  -1.000  23.757  0.00  0.00    -0.173 NA
ATOM     37  N   UNL     1      -0.120  -0.877  24.123  0.00  0.00    -0.245 N 
ATOM     38  C   UNL     1      -0.494  -1.395  24.647  0.00  0.00    +0.154 C 
ENDBRANCH  30  32
BRANCH  15  17
ATOM     17  C   UNL     1      -2.553   0.880  24.571  0.00  0.00    +0.260 C 
ATOM     18  O   UNL     1      -2.654   0.679  23.776  0.00  0.00    -0.272 OA
ATOM     19  N   UNL     1      -3.168   0.759  25.107  0.00  0.00    -0.196 NA
BRANCH  19  20
ATOM     20  C   UNL     1      -3.882   0.436  24.851  0.00  0.00    +0.179 C 
BRANCH  20  27
ATOM     27  C   UNL     1      -4.057  -0.354  25.005  0.00  0.00    +0.281 C 
ATOM     28  N   UNL     1      -4.361  -0.835  24.406  0.00  0.00    -0.086 NA
ATOM     29  O   UNL     1      -3.930  -0.666  25.759  0.00  0.00    -0.270 OA
ENDBRANCH  20  27
BRANCH  20  21
ATOM     21  C   UNL     1      -4.422   0.906  24.439  0.00  0.00    +0.064 C 
BRANCH  21  22
ATOM     22  C   UNL     1      -4.921   1.419  24.850  0.00  0.00    +0.010 A 
ATOM     23  C   UNL     1      -5.398   1.220  25.492  0.00  0.00    +0.003 A 
ATOM     24  C   UNL     1      -5.802   1.899  25.730  0.00  0.00    +0.007 A 
ATOM     25  C   UNL     1      -5.573   2.518  25.234  0.00  0.00    +0.035 A 
ATOM     26  S   UNL     1      -5.029   2.221  24.691  0.00  0.00    -0.091 S 
ENDBRANCH  21  22
ENDBRANCH  20  21
ENDBRANCH  19  20
ENDBRANCH  15  17
BRANCH  11  10
ATOM     10  N   UNL     1      -1.124   2.855  26.062  0.00  0.00    -0.078 NA
BRANCH  10   7
ATOM      7  S   UNL     1      -1.165   3.609  25.731  0.00  0.00    +0.095 S 
ATOM      8  O   UNL     1      -1.951   3.672  25.972  0.00  0.00    -0.150 OA
ATOM      9  O   UNL     1      -0.378   3.548  25.491  0.00  0.00    -0.150 OA
BRANCH   7   5
ATOM      1  C   UNL     1      -2.145   6.221  24.922  0.00  0.00    +0.132 C 
ATOM      2  N   UNL     1      -1.656   5.564  25.029  0.00  0.00    -0.305 N 
ATOM      3  C   UNL     1      -0.883   5.487  24.755  0.00  0.00    +0.180 A 
ATOM      4  N   UNL     1      -0.604   4.745  24.984  0.00  0.00    -0.204 NA
ATOM      5  C   UNL     1      -1.206   4.364  25.401  0.00  0.00    +0.223 A 
ATOM      6  C   UNL     1      -1.857   4.871  25.428  0.00  0.00    +0.117 A 
ENDBRANCH   7   5
ENDBRANCH  10   7
ENDBRANCH  11  10
TORSDOF 9
ENDMDL
MODEL 7
REMARK VINA RESULT:      -8.7      1.543      5.018
REMARK  Name = 
REMARK  9 active torsions:
REMARK  status: ('A' for Active; 'I' for Inactive)
REMARK    1  A    between atoms: C_5  and  S_7
REMARK    2  A    between atoms: S_7  and  N_10
REMARK    3  A    between atoms: N_10  and  C_11
REMARK    4  A    between atoms: C_15  and  C_17
REMARK    5  A    between atoms: N_19  and  C_20
REMARK    6  A    between atoms: C_20  and  C_21
REMARK    7  A    between atoms: C_20  and  C_27
REMARK    8  A    between atoms: C_21  and  C_22
REMARK    9  A    between atoms: C_30  and  C_32
REMARK                            x       y       z     vdW  Elec       q    Type
REMARK                         _______ _______ _______ _____ _____    ______ ____
ROOT
ATOM     11  C   UNL     1      -3.435   1.326  23.876  0.00  0.00    +0.102 C 
ATOM     12  C   UNL     1      -3.867   0.631  23.981  0.00  0.00    +0.041 C 
ATOM     13  C   UNL     1      -3.496  -0.042  24.282  0.00  0.00    +0.096 C 
ATOM     14  N   UNL     1      -2.696  -0.020  24.479  0.00  0.00    -0.268 N 
ATOM     15  C   UNL     1      -2.265   0.675  24.374  0.00  0.00    +0.155 C 
ATOM     16  C   UNL     1      -2.634   1.349  24.072  0.00  0.00    +0.049 C 
ATOM     30  C   UNL     1      -2.326  -0.693  24.780  0.00  0.00    +0.267 C 
ATOM     31  O   UNL     1      -1.526  -0.671  24.977  0.00  0.00    -0.268 OA
ENDROOT
BRANCH  30  32
ATOM     32  C   UNL     1      -2.757  -1.388  24.885  0.00  0.00    +0.133 A 
ATOM     33  C   UNL     1      -2.995  -1.906  24.289  0.00  0.00    +0.040 A 
ATOM     34  C   UNL     1      -3.411  -2.526  24.639  0.00  0.00    +0.081 A 
ATOM     35  C   UNL     1      -3.748  -3.168  24.246  0.00  0.00    +0.054 C 
ATOM     36  N   UNL     1      -3.432  -2.391  25.453  0.00  0.00    -0.173 NA
ATOM     37  N   UNL     1      -3.028  -1.688  25.604  0.00  0.00    -0.245 N 
ATOM     38  C   UNL     1      -2.914  -1.344  26.346  0.00  0.00    +0.154 C 
ENDBRANCH  30  32
BRANCH  15  17
ATOM     17  C   UNL     1      -1.464   0.698  24.571  0.00  0.00    +0.260 C 
ATOM     18  O   UNL     1      -1.223   0.525  25.341  0.00  0.00    -0.272 OA
ATOM     19  N   UNL     1      -0.904   0.894  23.998  0.00  0.00    -0.196 NA
BRANCH  19  20
ATOM     20  C   UNL     1      -0.103   0.916  24.194  0.00  0.00    +0.179 C 
BRANCH  20  27
ATOM     27  C   UNL     1       0.233   1.614  24.476  0.00  0.00    +0.281 C 
ATOM     28  N   UNL     1       0.119   2.322  24.066  0.00  0.00    -0.086 NA
ATOM     29  O   UNL     1       0.685   1.606  25.167  0.00  0.00    -0.270 OA
ENDBRANCH  20  27
BRANCH  20  21
ATOM     21  C   UNL     1       0.362   0.239  24.109  0.00  0.00    +0.064 C 
BRANCH  21  22
ATOM     22  C   UNL     1       0.777   0.109  23.408  0.00  0.00    +0.010 A 
ATOM     23  C   UNL     1       0.472  -0.223  22.718  0.00  0.00    +0.003 A 
ATOM     24  C   UNL     1       1.078  -0.248  22.158  0.00  0.00    +0.007 A 
ATOM     25  C   UNL     1       1.757   0.068  22.503  0.00  0.00    +0.035 A 
ATOM     26  S   UNL     1       1.572   0.289  23.275  0.00  0.00    -0.091 S 
ENDBRANCH  21  22
ENDBRANCH  20  21
ENDBRANCH  19  20
ENDBRANCH  15  17
BRANCH  11  10
ATOM     10  N   UNL     1      -3.804   2.000  23.574  0.00  0.00    -0.078 NA
BRANCH  10   7
ATOM      7  S   UNL     1      -4.114   2.565  24.089  0.00  0.00    +0.095 S 
ATOM      8  O   UNL     1      -4.749   2.067  24.255  0.00  0.00    -0.150 OA
ATOM      9  O   UNL     1      -3.479   3.065  23.923  0.00  0.00    -0.150 OA
BRANCH   7   5
ATOM      1  C   UNL     1      -5.941   4.034  25.803  0.00  0.00    +0.132 C 
ATOM      2  N   UNL     1      -5.263   3.806  25.392  0.00  0.00    -0.305 N 
ATOM      3  C   UNL     1      -4.537   4.196  25.401  0.00  0.00    +0.180 A 
ATOM      4  N   UNL     1      -4.018   3.779  24.914  0.00  0.00    -0.204 NA
ATOM      5  C   UNL     1      -4.424   3.131  24.604  0.00  0.00    +0.223 A 
ATOM      6  C   UNL     1      -5.194   3.148  24.900  0.00  0.00    +0.117 A 
ENDBRANCH   7   5
ENDBRANCH  10   7
ENDBRANCH  11  10
TORSDOF 9
ENDMDL
MODEL 8
REMARK VINA RESULT:      -8.6      1.417      3.989
REMARK  Name = 
REMARK  9 active torsions:
REMARK  status: ('A' for Active; 'I' for Inactive)
REMARK    1  A    between atoms: C_5  and  S_7
REMARK    2  A    between atoms: S_7  and  N_10
REMARK    3  A    between atoms: N_10  and  C_11
REMARK    4  A    between atoms: C_15  and  C_17
REMARK    5  A    between atoms: N_19  and  C_20
REMARK    6  A    between atoms: C_20  and  C_21
REMARK    7  A    between atoms: C_20  and  C_27
REMARK    8  A    between atoms: C_21  and  C_22
REMARK    9  A    between atoms: C_30  and  C_32
REMARK                            x       y       z     vdW  Elec       q    Type
REMARK                         _______ _______ _______ _____ _____    ______ ____
ROOT
ATOM     11  C   UNL     1      -4.163   0.570  24.331  0.00  0.00    +0.102 C 
ATOM     12  C   UNL     1      -4.701   1.104  24.659  0.00  0.00    +0.041 C 
ATOM     13  C   UNL     1      -4.446   1.853  24.894  0.00  0.00    +0.096 C 
ATOM     14  N   UNL     1      -3.656   2.068  24.800  0.00  0.00    -0.268 N 
ATOM     15  C   UNL     1      -3.119   1.535  24.472  0.00  0.00    +0.155 C 
ATOM     16  C   UNL     1      -3.373   0.786  24.237  0.00  0.00    +0.049 C 
ATOM     30  C   UNL     1      -3.402   2.818  25.034  0.00  0.00    +0.267 C 
ATOM     31  O   UNL     1      -2.612   3.033  24.940  0.00  0.00    -0.268 OA
ENDROOT
BRANCH  30  32
ATOM     32  C   UNL     1      -3.939   3.351  25.362  0.00  0.00    +0.133 A 
ATOM     33  C   UNL     1      -4.678   3.547  25.054  0.00  0.00    +0.040 A 
ATOM     34  C   UNL     1      -5.027   4.099  25.557  0.00  0.00    +0.081 A 
ATOM     35  C   UNL     1      -5.769   4.445  25.458  0.00  0.00    +0.054 C 
ATOM     36  N   UNL     1      -4.503   4.245  26.178  0.00  0.00    -0.173 NA
ATOM     37  N   UNL     1      -3.831   3.783  26.057  0.00  0.00    -0.245 N 
ATOM     38  C   UNL     1      -3.166   3.756  26.545  0.00  0.00    +0.154 C 
ENDBRANCH  30  32
BRANCH  15  17
ATOM     17  C   UNL     1      -2.329   1.751  24.378  0.00  0.00    +0.260 C 
ATOM     18  O   UNL     1      -2.132   2.420  23.936  0.00  0.00    -0.272 OA
ATOM     19  N   UNL     1      -1.733   1.297  24.725  0.00  0.00    -0.196 NA
BRANCH  19  20
ATOM     20  C   UNL     1      -0.943   1.512  24.631  0.00  0.00    +0.179 C 
BRANCH  20  27
ATOM     27  C   UNL     1      -0.531   1.855  25.257  0.00  0.00    +0.281 C 
ATOM     28  N   UNL     1      -0.074   2.531  25.131  0.00  0.00    -0.086 NA
ATOM     29  O   UNL     1      -0.575   1.522  26.012  0.00  0.00    -0.270 OA
ENDBRANCH  20  27
BRANCH  20  21
ATOM     21  C   UNL     1      -0.564   1.384  23.909  0.00  0.00    +0.064 C 
BRANCH  21  22
ATOM     22  C   UNL     1      -0.174   0.670  23.768  0.00  0.00    +0.010 A 
ATOM     23  C   UNL     1      -0.314  -0.043  24.157  0.00  0.00    +0.003 A 
ATOM     24  C   UNL     1       0.198  -0.609  23.842  0.00  0.00    +0.007 A 
ATOM     25  C   UNL     1       0.654  -0.245  23.259  0.00  0.00    +0.035 A 
ATOM     26  S   UNL     1       0.424   0.546  23.213  0.00  0.00    -0.091 S 
ENDBRANCH  21  22
ENDBRANCH  20  21
ENDBRANCH  19  20
ENDBRANCH  15  17
BRANCH  11  10
ATOM     10  N   UNL     1      -4.417  -0.179  24.096  0.00  0.00    -0.078 NA
BRANCH  10   7
ATOM      7  S   UNL     1      -4.043  -0.852  24.392  0.00  0.00    +0.095 S 
ATOM      8  O   UNL     1      -3.720  -0.999  23.648  0.00  0.00    -0.150 OA
ATOM      9  O   UNL     1      -4.366  -0.706  25.137  0.00  0.00    -0.150 OA
BRANCH   7   5
ATOM      1  C   UNL     1      -2.495  -3.304  24.558  0.00  0.00    +0.132 C 
ATOM      2  N   UNL     1      -2.957  -2.652  24.764  0.00  0.00    -0.305 N 
ATOM      3  C   UNL     1      -3.227  -2.470  25.521  0.00  0.00    +0.180 A 
ATOM      4  N   UNL     1      -3.667  -1.774  25.475  0.00  0.00    -0.204 NA
ATOM      5  C   UNL     1      -3.668  -1.526  24.688  0.00  0.00    +0.223 A 
ATOM      6  C   UNL     1      -3.229  -2.069  24.248  0.00  0.00    +0.117 A 
ENDBRANCH   7   5
ENDBRANCH  10   7
ENDBRANCH  11  10
TORSDOF 9
ENDMDL
MODEL 9
REMARK VINA RESULT:      -8.6      1.715      4.152
REMARK  Name = 
REMARK  9 active torsions:
REMARK  status: ('A' for Active; 'I' for Inactive)
REMARK    1  A    between atoms: C_5  and  S_7
REMARK    2  A    between atoms: S_7  and  N_10
REMARK    3  A    between atoms: N_10  and  C_11
REMARK    4  A    between atoms: C_15  and  C_17
REMARK    5  A    between atoms: N_19  and  C_20
REMARK    6  A    between atoms: C_20  and  C_21
REMARK    7  A    between atoms: C_20  and  C_27
REMARK    8  A    between atoms: C_21  and  C_22
REMARK    9  A    between atoms: C_30  and  C_32
REMARK                            x       y       z     vdW  Elec       q    Type
REMARK                         _______ _______ _______ _____ _____    ______ ____
ROOT
ATOM     11  C   UNL     1      -1.142   1.413  25.465  0.00  0.00    +0.102 C 
ATOM     12  C   UNL     1      -0.997   0.607  25.565  0.00  0.00    +0.041 C 
ATOM     13  C   UNL     1      -1.527   0.052  25.262  0.00  0.00    +0.096 C 
ATOM     14  N   UNL     1      -2.201   0.304  24.859  0.00  0.00    -0.268 N 
ATOM     15  C   UNL     1      -2.346   1.109  24.758  0.00  0.00    +0.155 C 
ATOM     16  C   UNL     1      -1.816   1.665  25.062  0.00  0.00    +0.049 C 
ATOM     30  C   UNL     1      -2.731  -0.252  24.555  0.00  0.00    +0.267 C 
ATOM     31  O   UNL     1      -3.406  -0.001  24.152  0.00  0.00    -0.268 OA
ENDROOT
BRANCH  30  32
ATOM     32  C   UNL     1      -2.587  -1.057  24.656  0.00  0.00    +0.133 A 
ATOM     33  C   UNL     1      -1.980  -1.489  24.301  0.00  0.00    +0.040 A 
ATOM     34  C   UNL     1      -2.041  -2.272  24.554  0.00  0.00    +0.081 A 
ATOM     35  C   UNL     1      -1.546  -2.893  24.335  0.00  0.00    +0.054 C 
ATOM     36  N   UNL     1      -2.687  -2.324  25.066  0.00  0.00    -0.173 NA
ATOM     37  N   UNL     1      -3.023  -1.574  25.128  0.00  0.00    -0.245 N 
ATOM     38  C   UNL     1      -3.682  -1.374  25.584  0.00  0.00    +0.154 C 
ENDBRANCH  30  32
BRANCH  15  17
ATOM     17  C   UNL     1      -3.020   1.360  24.355  0.00  0.00    +0.260 C 
ATOM     18  O   UNL     1      -3.196   1.050  23.611  0.00  0.00    -0.272 OA
ATOM     19  N   UNL     1      -3.520   1.922  24.696  0.00  0.00    -0.196 NA
BRANCH  19  20
ATOM     20  C   UNL     1      -4.194   2.173  24.293  0.00  0.00    +0.179 C 
BRANCH  20  27
ATOM     27  C   UNL     1      -4.138   2.770  23.727  0.00  0.00    +0.281 C 
ATOM     28  N   UNL     1      -3.854   3.515  23.940  0.00  0.00    -0.086 NA
ATOM     29  O   UNL     1      -4.365   2.622  22.947  0.00  0.00    -0.270 OA
ENDBRANCH  20  27
BRANCH  20  21
ATOM     21  C   UNL     1      -4.925   1.827  24.457  0.00  0.00    +0.064 C 
BRANCH  21  22
ATOM     22  C   UNL     1      -5.356   2.066  25.119  0.00  0.00    +0.010 A 
ATOM     23  C   UNL     1      -5.264   2.777  25.526  0.00  0.00    +0.003 A 
ATOM     24  C   UNL     1      -5.806   2.785  26.149  0.00  0.00    +0.007 A 
ATOM     25  C   UNL     1      -6.232   2.080  26.126  0.00  0.00    +0.035 A 
ATOM     26  S   UNL     1      -5.954   1.635  25.489  0.00  0.00    -0.091 S 
ENDBRANCH  21  22
ENDBRANCH  20  21
ENDBRANCH  19  20
ENDBRANCH  15  17
BRANCH  11  10
ATOM     10  N   UNL     1      -0.612   1.969  25.768  0.00  0.00    -0.078 NA
BRANCH  10   7
ATOM      7  S   UNL     1      -0.577   2.726  25.442  0.00  0.00    +0.095 S 
ATOM      8  O   UNL     1      -0.110   2.439  24.826  0.00  0.00    -0.150 OA
ATOM      9  O   UNL     1      -1.044   3.013  26.058  0.00  0.00    -0.150 OA
BRANCH   7   5
ATOM      1  C   UNL     1      -1.012   5.561  24.989  0.00  0.00    +0.132 C 
ATOM      2  N   UNL     1      -0.742   4.786  24.908  0.00  0.00    -0.305 N 
ATOM      3  C   UNL     1      -0.235   4.510  24.319  0.00  0.00    +0.180 A 
ATOM      4  N   UNL     1      -0.112   3.704  24.448  0.00  0.00    -0.204 NA
ATOM      5  C   UNL     1      -0.543   3.483  25.116  0.00  0.00    +0.223 A 
ATOM      6  C   UNL     1      -0.933   4.153  25.400  0.00  0.00    +0.117 A 
ENDBRANCH   7   5
ENDBRANCH  10   7
ENDBRANCH  11  10
TORSDOF 9
ENDMDL
