MODEL 1
REMARK VINA RESULT:     -13.8      0.000      0.000
REMARK  Name = 
REMARK  3 active torsions:
REMARK  status: ('A' for Active; 'I' for Inactive)
REMARK    1  A    between atoms: C_7  and  C_9
REMARK    2  A    between atoms: N_12  and  C_13
REMARK    3  A    between atoms: C_13  and  C_14
REMARK                            x       y       z     vdW  Elec       q    Type
REMARK                         _______ _______ _______ _____ _____    ______ ____
ROOT
ATOM      9  C   UNL     1      -4.532   0.839  24.800  0.00  0.00    +0.094 C 
ATOM     10  C   UNL     1      -5.129   1.143  25.283  0.00  0.00    +0.028 C 
ATOM     11  C   UNL     1      -5.135   1.963  25.193  0.00  0.00    +0.073 C 
ATOM     12  N   UNL     1      -4.542   2.167  24.656  0.00  0.00    -0.268 NA
ATOM     24  C   UNL     1      -4.169   1.472  24.414  0.00  0.00    +0.082 C 
ENDROOT
BRANCH   9   7
ATOM      1  C   UNL     1      -3.105  -3.224  25.101  0.00  0.00    +0.031 C 
ATOM      2  C   UNL     1      -3.480  -2.548  24.813  0.00  0.00    -0.020 A 
ATOM      3  C   UNL     1      -3.449  -1.845  25.242  0.00  0.00    +0.018 A 
ATOM      4  C   UNL     1      -3.824  -1.169  24.953  0.00  0.00    +0.118 A 
ATOM      5  C   UNL     1      -4.230  -1.197  24.235  0.00  0.00    +0.164 A 
ATOM      6  O   UNL     1      -4.544  -0.448  24.090  0.00  0.00    -0.438 OA
ATOM      7  C   UNL     1      -4.333   0.042  24.719  0.00  0.00    +0.207 A 
ATOM      8  N   UNL     1      -3.888  -0.403  25.252  0.00  0.00    -0.212 NA
ATOM     25  C   UNL     1      -4.260  -1.902  23.806  0.00  0.00    +0.039 A 
ATOM     26  C   UNL     1      -3.885  -2.577  24.095  0.00  0.00    -0.001 A 
ENDBRANCH   9   7
BRANCH  12  13
ATOM     13  C   UNL     1      -4.355   2.930  24.407  0.00  0.00    +0.101 C 
BRANCH  13  14
ATOM     14  C   UNL     1      -3.705   3.322  24.729  0.00  0.00    +0.013 A 
ATOM     15  C   UNL     1      -2.964   3.255  24.374  0.00  0.00    +0.000 A 
ATOM     16  C   UNL     1      -2.313   3.647  24.696  0.00  0.00    +0.017 A 
ATOM     17  C   UNL     1      -2.405   4.108  25.376  0.00  0.00    +0.081 A 
ATOM     18  C   UNL     1      -1.756   4.500  25.699  0.00  0.00    +0.019 A 
ATOM     19  C   UNL     1      -1.015   4.433  25.343  0.00  0.00    +0.002 A 
ATOM     20  C   UNL     1      -0.923   3.972  24.664  0.00  0.00    +0.000 A 
ATOM     21  C   UNL     1      -1.573   3.580  24.341  0.00  0.00    +0.001 A 
ATOM     22  N   UNL     1      -3.147   4.175  25.731  0.00  0.00    -0.244 NA
ATOM     23  C   UNL     1      -3.797   3.782  25.409  0.00  0.00    +0.096 A 
ENDBRANCH  13  14
ENDBRANCH  12  13
TORSDOF 3
ENDMDL
MODEL 2
REMARK VINA RESULT:     -13.4      1.066      5.354
REMARK  Name = 
REMARK  3 active torsions:
REMARK  status: ('A' for Active; 'I' for Inactive)
REMARK    1  A    between atoms: C_7  and  C_9
REMARK    2  A    between atoms: N_12  and  C_13
REMARK    3  A    between atoms: C_13  and  C_14
REMARK                            x       y       z     vdW  Elec       q    Type
REMARK                         _______ _______ _______ _____ _____    ______ ____
ROOT
ATOM      9  C   UNL     1      -3.523   2.251  24.686  0.00  0.00    +0.094 C 
ATOM     10  C   UNL     1      -4.101   2.249  24.096  0.00  0.00    +0.028 C 
ATOM     11  C   UNL     1      -4.604   1.610  24.236  0.00  0.00    +0.073 C 
ATOM     12  N   UNL     1      -4.338   1.218  24.912  0.00  0.00    -0.268 NA
ATOM     24  C   UNL     1      -3.670   1.615  25.190  0.00  0.00    +0.082 C 
ENDROOT
BRANCH   9   7
ATOM      1  C   UNL     1      -0.903   5.666  25.029  0.00  0.00    +0.031 C 
ATOM      2  C   UNL     1      -1.165   4.885  24.980  0.00  0.00    -0.020 A 
ATOM      3  C   UNL     1      -1.970   4.724  24.904  0.00  0.00    +0.018 A 
ATOM      4  C   UNL     1      -2.232   3.942  24.855  0.00  0.00    +0.118 A 
ATOM      5  C   UNL     1      -1.688   3.323  24.883  0.00  0.00    +0.164 A 
ATOM      6  O   UNL     1      -2.105   2.614  24.822  0.00  0.00    -0.438 OA
ATOM      7  C   UNL     1      -2.907   2.796  24.758  0.00  0.00    +0.207 A 
ATOM      8  N   UNL     1      -2.985   3.617  24.778  0.00  0.00    -0.212 NA
ATOM     25  C   UNL     1      -0.882   3.485  24.959  0.00  0.00    +0.039 A 
ATOM     26  C   UNL     1      -0.621   4.266  25.008  0.00  0.00    -0.001 A 
ENDBRANCH   9   7
BRANCH  12  13
ATOM     13  C   UNL     1      -4.679   0.548  25.250  0.00  0.00    +0.101 C 
BRANCH  13  14
ATOM     14  C   UNL     1      -4.304  -0.183  25.187  0.00  0.00    +0.013 A 
ATOM     15  C   UNL     1      -4.464  -0.675  24.544  0.00  0.00    +0.000 A 
ATOM     16  C   UNL     1      -4.088  -1.407  24.480  0.00  0.00    +0.017 A 
ATOM     17  C   UNL     1      -3.551  -1.648  25.061  0.00  0.00    +0.081 A 
ATOM     18  C   UNL     1      -3.176  -2.379  24.997  0.00  0.00    +0.019 A 
ATOM     19  C   UNL     1      -3.336  -2.870  24.355  0.00  0.00    +0.002 A 
ATOM     20  C   UNL     1      -3.873  -2.630  23.775  0.00  0.00    +0.000 A 
ATOM     21  C   UNL     1      -4.248  -1.899  23.838  0.00  0.00    +0.001 A 
ATOM     22  N   UNL     1      -3.392  -1.155  25.703  0.00  0.00    -0.244 NA
ATOM     23  C   UNL     1      -3.767  -0.423  25.767  0.00  0.00    +0.096 A 
ENDBRANCH  13  14
ENDBRANCH  12  13
TORSDOF 3
ENDMDL
MODEL 3
REMARK VINA RESULT:     -13.1      1.880      2.573
REMARK  Name = 
REMARK  3 active torsions:
REMARK  status: ('A' for Active; 'I' for Inactive)
REMARK    1  A    between atoms: C_7  and  C_9
REMARK    2  A    between atoms: N_12  and  C_13
REMARK    3  A    between atoms: C_13  and  C_14
REMARK                            x       y       z     vdW  Elec       q    Type
REMARK                         _______ _______ _______ _____ _____    ______ ____
ROOT
ATOM      9  C   UNL     1      -1.444   0.197  24.811  0.00  0.00    +0.094 C 
ATOM     10  C   UNL     1      -0.723   0.257  24.414  0.00  0.00    +0.028 C 
ATOM     11  C   UNL     1      -0.292   0.868  24.762  0.00  0.00    +0.073 C 
ATOM     12  N   UNL     1      -0.746   1.186  25.374  0.00  0.00    -0.268 NA
ATOM     24  C   UNL     1      -1.458   0.770  25.404  0.00  0.00    +0.082 C 
ENDROOT
BRANCH   9   7
ATOM      1  C   UNL     1      -4.044  -3.193  24.188  0.00  0.00    +0.031 C 
ATOM      2  C   UNL     1      -3.768  -2.416  24.215  0.00  0.00    -0.020 A 
ATOM      3  C   UNL     1      -3.002  -2.259  24.478  0.00  0.00    +0.018 A 
ATOM      4  C   UNL     1      -2.726  -1.482  24.505  0.00  0.00    +0.118 A 
ATOM      5  C   UNL     1      -3.216  -0.862  24.269  0.00  0.00    +0.164 A 
ATOM      6  O   UNL     1      -2.796  -0.157  24.354  0.00  0.00    -0.438 OA
ATOM      7  C   UNL     1      -2.046  -0.343  24.644  0.00  0.00    +0.207 A 
ATOM      8  N   UNL     1      -2.003  -1.161  24.737  0.00  0.00    -0.212 NA
ATOM     25  C   UNL     1      -3.983  -1.020  24.005  0.00  0.00    +0.039 A 
ATOM     26  C   UNL     1      -4.258  -1.797  23.979  0.00  0.00    -0.001 A 
ENDBRANCH   9   7
BRANCH  12  13
ATOM     13  C   UNL     1      -0.526   1.808  25.869  0.00  0.00    +0.101 C 
BRANCH  13  14
ATOM     14  C   UNL     1      -0.630   2.588  25.621  0.00  0.00    +0.013 A 
ATOM     15  C   UNL     1      -1.325   2.992  25.809  0.00  0.00    +0.000 A 
ATOM     16  C   UNL     1      -1.429   3.772  25.561  0.00  0.00    +0.017 A 
ATOM     17  C   UNL     1      -0.837   4.149  25.126  0.00  0.00    +0.081 A 
ATOM     18  C   UNL     1      -0.941   4.929  24.879  0.00  0.00    +0.019 A 
ATOM     19  C   UNL     1      -1.635   5.332  25.066  0.00  0.00    +0.002 A 
ATOM     20  C   UNL     1      -2.227   4.954  25.501  0.00  0.00    +0.000 A 
ATOM     21  C   UNL     1      -2.123   4.175  25.748  0.00  0.00    +0.001 A 
ATOM     22  N   UNL     1      -0.142   3.746  24.939  0.00  0.00    -0.244 NA
ATOM     23  C   UNL     1      -0.038   2.965  25.186  0.00  0.00    +0.096 A 
ENDBRANCH  13  14
ENDBRANCH  12  13
TORSDOF 3
ENDMDL
MODEL 4
REMARK VINA RESULT:     -12.9      2.069      5.906
REMARK  Name = 
REMARK  3 active torsions:
REMARK  status: ('A' for Active; 'I' for Inactive)
REMARK    1  A    between atoms: C_7  and  C_9
REMARK    2  A    between atoms: N_12  and  C_13
REMARK    3  A    between atoms: C_13  and  C_14
REMARK                            x       y       z     vdW  Elec       q    Type
REMARK                         _______ _______ _______ _____ _____    ______ ____
ROOT
ATOM      9  C   UNL     1      -0.936   1.337  25.059  0.00  0.00    +0.094 C 
ATOM     10  C   UNL     1      -0.413   0.975  24.534  0.00  0.00    +0.028 C 
ATOM     11  C   UNL     1      -0.424   0.164  24.684  0.00  0.00    +0.073 C 
ATOM     12  N   UNL     1      -0.954   0.024  25.301  0.00  0.00    -0.268 NA
ATOM     24  C   UNL     1      -1.270   0.750  25.533  0.00  0.00    +0.082 C 
ENDROOT
BRANCH   9   7
ATOM      1  C   UNL     1      -1.041   5.651  24.919  0.00  0.00    +0.031 C 
ATOM      2  C   UNL     1      -1.263   4.870  25.062  0.00  0.00    -0.020 A 
ATOM      3  C   UNL     1      -0.761   4.252  24.844  0.00  0.00    +0.018 A 
ATOM      4  C   UNL     1      -0.984   3.470  24.988  0.00  0.00    +0.118 A 
ATOM      5  C   UNL     1      -1.707   3.307  25.349  0.00  0.00    +0.164 A 
ATOM      6  O   UNL     1      -1.778   2.488  25.420  0.00  0.00    -0.438 OA
ATOM      7  C   UNL     1      -1.097   2.146  25.102  0.00  0.00    +0.207 A 
ATOM      8  N   UNL     1      -0.607   2.753  24.835  0.00  0.00    -0.212 NA
ATOM     25  C   UNL     1      -2.208   3.926  25.567  0.00  0.00    +0.039 A 
ATOM     26  C   UNL     1      -1.985   4.706  25.423  0.00  0.00    -0.001 A 
ENDBRANCH   9   7
BRANCH  12  13
ATOM     13  C   UNL     1      -1.134  -0.710  25.629  0.00  0.00    +0.101 C 
BRANCH  13  14
ATOM     14  C   UNL     1      -1.645  -1.223  25.234  0.00  0.00    +0.013 A 
ATOM     15  C   UNL     1      -2.455  -1.068  25.217  0.00  0.00    +0.000 A 
ATOM     16  C   UNL     1      -2.966  -1.582  24.822  0.00  0.00    +0.017 A 
ATOM     17  C   UNL     1      -2.666  -2.252  24.444  0.00  0.00    +0.081 A 
ATOM     18  C   UNL     1      -3.177  -2.765  24.049  0.00  0.00    +0.019 A 
ATOM     19  C   UNL     1      -3.986  -2.610  24.032  0.00  0.00    +0.002 A 
ATOM     20  C   UNL     1      -4.286  -1.939  24.410  0.00  0.00    +0.000 A 
ATOM     21  C   UNL     1      -3.776  -1.426  24.804  0.00  0.00    +0.001 A 
ATOM     22  N   UNL     1      -1.856  -2.407  24.462  0.00  0.00    -0.244 NA
ATOM     23  C   UNL     1      -1.345  -1.894  24.857  0.00  0.00    +0.096 A 
ENDBRANCH  13  14
ENDBRANCH  12  13
TORSDOF 3
ENDMDL
MODEL 5
REMARK VINA RESULT:     -10.8      2.224      3.442
REMARK  Name = 
REMARK  3 active torsions:
REMARK  status: ('A' for Active; 'I' for Inactive)
REMARK    1  A    between atoms: C_7  and  C_9
REMARK    2  A    between atoms: N_12  and  C_13
REMARK    3  A    between atoms: C_13  and  C_14
REMARK                            x       y       z     vdW  Elec       q    Type
REMARK                         _______ _______ _______ _____ _____    ______ ____
ROOT
ATOM      9  C   UNL     1      -1.453   2.071  24.780  0.00  0.00    +0.094 C 
ATOM     10  C   UNL     1      -1.043   2.737  25.044  0.00  0.00    +0.028 C 
ATOM     11  C   UNL     1      -1.552   3.384  24.998  0.00  0.00    +0.073 C 
ATOM     12  N   UNL     1      -2.277   3.119  24.706  0.00  0.00    -0.268 NA
ATOM     24  C   UNL     1      -2.216   2.307  24.572  0.00  0.00    +0.082 C 
ENDROOT
BRANCH   9   7
ATOM      1  C   UNL     1      -0.311  -2.067  25.236  0.00  0.00    +0.031 C 
ATOM      2  C   UNL     1      -0.371  -1.304  24.929  0.00  0.00    -0.020 A 
ATOM      3  C   UNL     1      -0.831  -0.739  25.317  0.00  0.00    +0.018 A 
ATOM      4  C   UNL     1      -0.891   0.025  25.009  0.00  0.00    +0.118 A 
ATOM      5  C   UNL     1      -0.492   0.223  24.315  0.00  0.00    +0.164 A 
ATOM      6  O   UNL     1      -0.654   1.014  24.145  0.00  0.00    -0.438 OA
ATOM      7  C   UNL     1      -1.153   1.304  24.734  0.00  0.00    +0.207 A 
ATOM      8  N   UNL     1      -1.300   0.692  25.269  0.00  0.00    -0.212 NA
ATOM     25  C   UNL     1      -0.033  -0.343  23.928  0.00  0.00    +0.039 A 
ATOM     26  C   UNL     1       0.027  -1.106  24.235  0.00  0.00    -0.001 A 
ENDBRANCH   9   7
BRANCH  12  13
ATOM     13  C   UNL     1      -2.945   3.584  24.572  0.00  0.00    +0.101 C 
BRANCH  13  14
ATOM     14  C   UNL     1      -3.660   3.394  24.937  0.00  0.00    +0.013 A 
ATOM     15  C   UNL     1      -4.168   2.844  24.590  0.00  0.00    +0.000 A 
ATOM     16  C   UNL     1      -4.883   2.654  24.955  0.00  0.00    +0.017 A 
ATOM     17  C   UNL     1      -5.091   3.015  25.669  0.00  0.00    +0.081 A 
ATOM     18  C   UNL     1      -5.805   2.825  26.034  0.00  0.00    +0.019 A 
ATOM     19  C   UNL     1      -6.312   2.275  25.687  0.00  0.00    +0.002 A 
ATOM     20  C   UNL     1      -6.104   1.914  24.974  0.00  0.00    +0.000 A 
ATOM     21  C   UNL     1      -5.390   2.104  24.609  0.00  0.00    +0.001 A 
ATOM     22  N   UNL     1      -4.583   3.565  26.015  0.00  0.00    -0.244 NA
ATOM     23  C   UNL     1      -3.867   3.755  25.650  0.00  0.00    +0.096 A 
ENDBRANCH  13  14
ENDBRANCH  12  13
TORSDOF 3
ENDMDL
MODEL 6
REMARK VINA RESULT:     -10.4      3.439      5.642
REMARK  Name = 
REMARK  3 active torsions:
REMARK  status: ('A' for Active; 'I' for Inactive)
REMARK    1  A    between atoms: C_7  and  C_9
REMARK    2  A    between atoms: N_12  and  C_13
REMARK    3  A    between atoms: C_13  and  C_14
REMARK                            x       y       z     vdW  Elec       q    Type
REMARK                         _______ _______ _______ _____ _____    ______ ____
ROOT
ATOM      9  C   UNL     1      -0.413   0.813  24.046  0.00  0.00    +0.094 C 
ATOM     10  C   UNL     1      -0.854   1.509  24.006  0.00  0.00    +0.028 C 
ATOM     11  C   UNL     1      -1.545   1.398  24.444  0.00  0.00    +0.073 C 
ATOM     12  N   UNL     1      -1.531   0.633  24.755  0.00  0.00    -0.268 NA
ATOM     24  C   UNL     1      -0.831   0.272  24.509  0.00  0.00    +0.082 C 
ENDROOT
BRANCH   9   7
ATOM      1  C   UNL     1       3.661   0.770  22.618  0.00  0.00    +0.031 C 
ATOM      2  C   UNL     1       2.868   0.567  22.721  0.00  0.00    -0.020 A 
ATOM      3  C   UNL     1       2.396   0.999  23.241  0.00  0.00    +0.018 A 
ATOM      4  C   UNL     1       1.602   0.795  23.343  0.00  0.00    +0.118 A 
ATOM      5  C   UNL     1       1.282   0.161  22.924  0.00  0.00    +0.164 A 
ATOM      6  O   UNL     1       0.488   0.090  23.136  0.00  0.00    -0.438 OA
ATOM      7  C   UNL     1       0.318   0.681  23.687  0.00  0.00    +0.207 A 
ATOM      8  N   UNL     1       1.007   1.117  23.814  0.00  0.00    -0.212 NA
ATOM     25  C   UNL     1       1.755  -0.270  22.403  0.00  0.00    +0.039 A 
ATOM     26  C   UNL     1       2.548  -0.067  22.302  0.00  0.00    -0.001 A 
ENDBRANCH   9   7
BRANCH  12  13
ATOM     13  C   UNL     1      -2.113   0.291  25.228  0.00  0.00    +0.101 C 
BRANCH  13  14
ATOM     14  C   UNL     1      -2.674  -0.211  24.893  0.00  0.00    +0.013 A 
ATOM     15  C   UNL     1      -2.599  -1.028  24.974  0.00  0.00    +0.000 A 
ATOM     16  C   UNL     1      -3.161  -1.531  24.639  0.00  0.00    +0.017 A 
ATOM     17  C   UNL     1      -3.800  -1.215  24.221  0.00  0.00    +0.081 A 
ATOM     18  C   UNL     1      -4.361  -1.717  23.886  0.00  0.00    +0.019 A 
ATOM     19  C   UNL     1      -4.285  -2.534  23.967  0.00  0.00    +0.002 A 
ATOM     20  C   UNL     1      -3.647  -2.850  24.385  0.00  0.00    +0.000 A 
ATOM     21  C   UNL     1      -3.085  -2.348  24.720  0.00  0.00    +0.001 A 
ATOM     22  N   UNL     1      -3.875  -0.398  24.140  0.00  0.00    -0.244 NA
ATOM     23  C   UNL     1      -3.313   0.105  24.475  0.00  0.00    +0.096 A 
ENDBRANCH  13  14
ENDBRANCH  12  13
TORSDOF 3
ENDMDL
