REMARK  Name = 
REMARK  5 active torsions:
REMARK  status: ('A' for Active; 'I' for Inactive)
REMARK    1  A    between atoms: O_2  and  C_3
REMARK    2  A    between atoms: C_6  and  C_9
REMARK    3  A    between atoms: C_12  and  C_14
REMARK    4  A    between atoms: C_16  and  N_20
REMARK    5  A    between atoms: N_23  and  C_24
REMARK                            x       y       z     vdW  Elec       q    Type
REMARK                         _______ _______ _______ _____ _____    ______ ____
ROOT
ATOM     14  C   UNL     1       2.760  -6.510   0.000  0.00  0.00    +0.139 C 
ATOM     15  C   UNL     1       3.015  -7.294   0.000  0.00  0.00    +0.049 C 
ATOM     16  C   UNL     1       2.348  -7.779   0.000  0.00  0.00    +0.115 C 
ATOM     17  C   UNL     1       1.680  -7.294   0.000  0.00  0.00    +0.094 C 
ATOM     18  N   UNL     1       1.935  -6.510   0.000  0.00  0.00    -0.264 NA
ATOM     19  C   UNL     1       1.450  -5.842   0.000  0.00  0.00    +0.090 C 
ENDROOT
BRANCH  14  12
ATOM      9  C   UNL     1       3.658  -4.572   0.000  0.00  0.00    +0.203 A 
ATOM     10  N   UNL     1       4.325  -5.057   0.000  0.00  0.00    -0.056 NA
ATOM     11  O   UNL     1       4.070  -5.842   0.000  0.00  0.00    -0.336 OA
ATOM     12  C   UNL     1       3.245  -5.842   0.000  0.00  0.00    +0.251 A 
ATOM     13  N   UNL     1       2.990  -5.057   0.000  0.00  0.00    -0.190 NA
BRANCH   9   6
ATOM      3  C   UNL     1       3.658  -2.098   0.000  0.00  0.00    +0.139 A 
ATOM      4  C   UNL     1       4.372  -2.510   0.000  0.00  0.00    +0.037 A 
ATOM      5  C   UNL     1       4.372  -3.335   0.000  0.00  0.00    +0.006 A 
ATOM      6  C   UNL     1       3.658  -3.748   0.000  0.00  0.00    +0.039 A 
ATOM      7  C   UNL     1       2.943  -3.335   0.000  0.00  0.00    +0.006 A 
ATOM      8  C   UNL     1       2.943  -2.510   0.000  0.00  0.00    +0.037 A 
BRANCH   3   2
ATOM      1  C   UNL     1       2.943  -0.860   0.000  0.00  0.00    +0.252 C 
ATOM      2  O   UNL     1       3.658  -1.272   0.000  0.00  0.00    -0.471 OA
ENDBRANCH   3   2
ENDBRANCH   9   6
ENDBRANCH  14  12
BRANCH  16  20
ATOM     20  N   UNL     1       2.348  -8.604   0.000  0.00  0.00    -0.187 NA
ATOM     21  C   UNL     1       1.633  -9.017   0.000  0.00  0.00    +0.343 C 
ATOM     22  O   UNL     1       0.919  -8.604   0.000  0.00  0.00    -0.249 OA
ATOM     23  N   UNL     1       1.633  -9.841   0.000  0.00  0.00    -0.161 NA
BRANCH  23  24
ATOM     24  C   UNL     1       0.919 -10.254   0.000  0.00  0.00    +0.075 A 
ATOM     25  C   UNL     1       0.919 -11.079   0.000  0.00  0.00    +0.018 A 
ATOM     26  C   UNL     1       0.204 -11.492   0.000  0.00  0.00    +0.013 A 
ATOM     27  C   UNL     1      -0.510 -11.079   0.000  0.00  0.00    +0.058 A 
ATOM     28 CL   UNL     1      -1.225 -11.492   0.000  0.00  0.00    -0.082 Cl
ATOM     29  C   UNL     1      -0.510 -10.254   0.000  0.00  0.00    +0.013 A 
ATOM     30  C   UNL     1       0.204  -9.841   0.000  0.00  0.00    +0.018 A 
ENDBRANCH  23  24
ENDBRANCH  16  20
TORSDOF 5
