MODEL 1
REMARK VINA RESULT:     -12.6      0.000      0.000
REMARK  Name = 
REMARK  3 active torsions:
REMARK  status: ('A' for Active; 'I' for Inactive)
REMARK    1  A    between atoms: C_7  and  C_9
REMARK    2  A    between atoms: N_12  and  C_13
REMARK    3  A    between atoms: C_13  and  C_14
REMARK                            x       y       z     vdW  Elec       q    Type
REMARK                         _______ _______ _______ _____ _____    ______ ____
ROOT
ATOM      9  C   UNL     1      -4.358   1.008  24.717  0.00  0.00    +0.076 C 
ATOM     10  C   UNL     1      -5.049   1.358  24.999  0.00  0.00    +0.026 C 
ATOM     11  C   UNL     1      -4.974   2.176  24.917  0.00  0.00    +0.073 C 
ATOM     12  N   UNL     1      -4.235   2.331  24.583  0.00  0.00    -0.272 NA
ATOM     20  C   UNL     1      -3.855   1.609  24.459  0.00  0.00    +0.080 C 
ENDROOT
BRANCH   9   7
ATOM      1  F   UNL     1      -3.241  -3.110  25.373  0.00  0.00    -0.204 F 
ATOM      2  C   UNL     1      -3.528  -2.428  25.008  0.00  0.00    +0.142 A 
ATOM      3  C   UNL     1      -3.518  -1.709  25.411  0.00  0.00    +0.050 A 
ATOM      4  C   UNL     1      -3.804  -1.027  25.046  0.00  0.00    +0.102 A 
ATOM      5  C   UNL     1      -4.101  -1.065  24.277  0.00  0.00    +0.100 A 
ATOM      6  N   UNL     1      -4.345  -0.308  24.060  0.00  0.00    -0.229 NA
ATOM      7  C   UNL     1      -4.199   0.199  24.695  0.00  0.00    +0.140 A 
ATOM      8  N   UNL     1      -3.865  -0.246  25.303  0.00  0.00    -0.229 NA
ATOM     21  C   UNL     1      -4.112  -1.785  23.874  0.00  0.00    +0.023 A 
ATOM     22  C   UNL     1      -3.825  -2.466  24.239  0.00  0.00    +0.031 A 
ENDBRANCH   9   7
BRANCH  12  13
ATOM     13  C   UNL     1      -3.930   3.076  24.405  0.00  0.00    +0.072 C 
BRANCH  13  14
ATOM     14  C   UNL     1      -3.422   3.452  24.935  0.00  0.00    +0.016 C 
ATOM     15  C   UNL     1      -3.728   3.843  25.594  0.00  0.00    +0.001 C 
ATOM     16  C   UNL     1      -3.220   4.219  26.123  0.00  0.00    +0.000 C 
ATOM     17  C   UNL     1      -2.405   4.205  25.995  0.00  0.00    +0.000 C 
ATOM     18  C   UNL     1      -2.099   3.814  25.336  0.00  0.00    +0.000 C 
ATOM     19  C   UNL     1      -2.607   3.437  24.805  0.00  0.00    +0.001 C 
ENDBRANCH  13  14
ENDBRANCH  12  13
TORSDOF 3
ENDMDL
MODEL 2
REMARK VINA RESULT:     -12.5      2.135      5.071
REMARK  Name = 
REMARK  3 active torsions:
REMARK  status: ('A' for Active; 'I' for Inactive)
REMARK    1  A    between atoms: C_7  and  C_9
REMARK    2  A    between atoms: N_12  and  C_13
REMARK    3  A    between atoms: C_13  and  C_14
REMARK                            x       y       z     vdW  Elec       q    Type
REMARK                         _______ _______ _______ _____ _____    ______ ____
ROOT
ATOM      9  C   UNL     1      -3.047   1.662  24.354  0.00  0.00    +0.076 C 
ATOM     10  C   UNL     1      -3.130   1.350  23.595  0.00  0.00    +0.026 C 
ATOM     11  C   UNL     1      -3.611   0.681  23.645  0.00  0.00    +0.073 C 
ATOM     12  N   UNL     1      -3.825   0.580  24.435  0.00  0.00    -0.272 NA
ATOM     20  C   UNL     1      -3.476   1.186  24.873  0.00  0.00    +0.080 C 
ENDROOT
BRANCH   9   7
ATOM      1  F   UNL     1      -1.505   5.544  25.441  0.00  0.00    -0.204 F 
ATOM      2  C   UNL     1      -1.534   4.744  25.244  0.00  0.00    +0.142 A 
ATOM      3  C   UNL     1      -2.259   4.384  25.088  0.00  0.00    +0.050 A 
ATOM      4  C   UNL     1      -2.289   3.583  24.891  0.00  0.00    +0.102 A 
ATOM      5  C   UNL     1      -1.593   3.143  24.850  0.00  0.00    +0.100 A 
ATOM      6  N   UNL     1      -1.792   2.370  24.644  0.00  0.00    -0.229 NA
ATOM      7  C   UNL     1      -2.611   2.332  24.557  0.00  0.00    +0.140 A 
ATOM      8  N   UNL     1      -2.918   3.082  24.710  0.00  0.00    -0.229 NA
ATOM     21  C   UNL     1      -0.866   3.503  25.006  0.00  0.00    +0.023 A 
ATOM     22  C   UNL     1      -0.838   4.304  25.203  0.00  0.00    +0.031 A 
ENDBRANCH   9   7
BRANCH  12  13
ATOM     13  C   UNL     1      -4.303  -0.022  24.735  0.00  0.00    +0.072 C 
BRANCH  13  14
ATOM     14  C   UNL     1      -4.020  -0.796  24.769  0.00  0.00    +0.016 C 
ATOM     15  C   UNL     1      -3.599  -1.053  25.431  0.00  0.00    +0.001 C 
ATOM     16  C   UNL     1      -3.317  -1.827  25.464  0.00  0.00    +0.000 C 
ATOM     17  C   UNL     1      -3.455  -2.345  24.837  0.00  0.00    +0.000 C 
ATOM     18  C   UNL     1      -3.876  -2.088  24.175  0.00  0.00    +0.000 C 
ATOM     19  C   UNL     1      -4.159  -1.313  24.141  0.00  0.00    +0.001 C 
ENDBRANCH  13  14
ENDBRANCH  12  13
TORSDOF 3
ENDMDL
MODEL 3
REMARK VINA RESULT:     -11.8      1.738      2.320
REMARK  Name = 
REMARK  3 active torsions:
REMARK  status: ('A' for Active; 'I' for Inactive)
REMARK    1  A    between atoms: C_7  and  C_9
REMARK    2  A    between atoms: N_12  and  C_13
REMARK    3  A    between atoms: C_13  and  C_14
REMARK                            x       y       z     vdW  Elec       q    Type
REMARK                         _______ _______ _______ _____ _____    ______ ____
ROOT
ATOM      9  C   UNL     1      -1.649   0.850  24.780  0.00  0.00    +0.076 C 
ATOM     10  C   UNL     1      -1.030   1.047  24.273  0.00  0.00    +0.026 C 
ATOM     11  C   UNL     1      -0.656   1.719  24.574  0.00  0.00    +0.073 C 
ATOM     12  N   UNL     1      -1.045   1.937  25.268  0.00  0.00    -0.272 NA
ATOM     20  C   UNL     1      -1.659   1.400  25.395  0.00  0.00    +0.080 C 
ENDROOT
BRANCH   9   7
ATOM      1  F   UNL     1      -4.803  -1.943  23.838  0.00  0.00    -0.204 F 
ATOM      2  C   UNL     1      -4.109  -1.627  24.153  0.00  0.00    +0.142 A 
ATOM      3  C   UNL     1      -3.905  -0.844  23.996  0.00  0.00    +0.050 A 
ATOM      4  C   UNL     1      -3.211  -0.527  24.312  0.00  0.00    +0.102 A 
ATOM      5  C   UNL     1      -2.722  -0.995  24.784  0.00  0.00    +0.100 A 
ATOM      6  N   UNL     1      -2.078  -0.536  25.017  0.00  0.00    -0.229 NA
ATOM      7  C   UNL     1      -2.168   0.215  24.689  0.00  0.00    +0.140 A 
ATOM      8  N   UNL     1      -2.868   0.220  24.253  0.00  0.00    -0.229 NA
ATOM     21  C   UNL     1      -2.927  -1.779  24.941  0.00  0.00    +0.023 A 
ATOM     22  C   UNL     1      -3.620  -2.095  24.625  0.00  0.00    +0.031 A 
ENDBRANCH   9   7
BRANCH  12  13
ATOM     13  C   UNL     1      -0.855   2.578  25.750  0.00  0.00    +0.072 C 
BRANCH  13  14
ATOM     14  C   UNL     1      -1.149   3.329  25.573  0.00  0.00    +0.016 C 
ATOM     15  C   UNL     1      -1.898   3.552  25.839  0.00  0.00    +0.001 C 
ATOM     16  C   UNL     1      -2.190   4.303  25.662  0.00  0.00    +0.000 C 
ATOM     17  C   UNL     1      -1.736   4.830  25.220  0.00  0.00    +0.000 C 
ATOM     18  C   UNL     1      -0.987   4.607  24.955  0.00  0.00    +0.000 C 
ATOM     19  C   UNL     1      -0.693   3.856  25.131  0.00  0.00    +0.001 C 
ENDBRANCH  13  14
ENDBRANCH  12  13
TORSDOF 3
ENDMDL
