MODEL 1
REMARK VINA RESULT:      -8.2      0.000      0.000
REMARK  Name = 
REMARK  6 active torsions:
REMARK  status: ('A' for Active; 'I' for Inactive)
REMARK    1  A    between atoms: C_2  and  N_3
REMARK    2  A    between atoms: N_13  and  C_14
REMARK    3  A    between atoms: C_14  and  C_15
REMARK    4  A    between atoms: C_15  and  C_16
REMARK    5  A    between atoms: C_17  and  O_18
REMARK    6  A    between atoms: C_20  and  O_21
REMARK                            x       y       z     vdW  Elec       q    Type
REMARK                         _______ _______ _______ _____ _____    ______ ____
ROOT
ATOM      3  N   UNL     1       1.900   0.471  23.116  0.00  0.00    -0.188 NA
ATOM      4  C   UNL     1       1.077   0.429  23.097  0.00  0.00    +0.323 C 
ATOM      5  O   UNL     1       0.704  -0.152  22.646  0.00  0.00    -0.251 OA
ATOM      6  N   UNL     1       0.626   0.969  23.529  0.00  0.00    -0.263 N 
ATOM      7  C   UNL     1       1.000   1.550  23.980  0.00  0.00    +0.095 C 
ATOM      8  C   UNL     1       0.550   2.091  24.412  0.00  0.00    +0.022 C 
ATOM      9  C   UNL     1      -0.274   2.049  24.392  0.00  0.00    +0.012 C 
ATOM     10  C   UNL     1      -0.616   2.637  24.860  0.00  0.00    +0.085 C 
ATOM     11  C   UNL     1      -1.417   2.788  24.992  0.00  0.00    +0.226 C 
ATOM     12  O   UNL     1      -1.583   3.422  25.492  0.00  0.00    -0.275 OA
ATOM     13  N   UNL     1      -2.072   2.389  24.689  0.00  0.00    -0.279 N 
ATOM     26  C   UNL     1      -2.089   1.741  24.179  0.00  0.00    +0.093 C 
ATOM     27  C   UNL     1      -1.456   1.331  23.847  0.00  0.00    +0.023 C 
ATOM     28  C   UNL     1      -0.648   1.468  23.941  0.00  0.00    +0.022 C 
ATOM     29  C   UNL     1      -0.197   0.928  23.510  0.00  0.00    +0.095 C 
ENDROOT
BRANCH   3   2
ATOM      1  C   UNL     1       3.163   0.046  22.599  0.00  0.00    +0.025 C 
ATOM      2  C   UNL     1       2.351  -0.069  22.685  0.00  0.00    +0.117 C 
ENDBRANCH   3   2
BRANCH  13  14
ATOM     14  C   UNL     1      -2.808   2.677  24.927  0.00  0.00    +0.098 C 
BRANCH  14  15
ATOM     15  C   UNL     1      -3.478   2.203  24.857  0.00  0.00    +0.051 C 
BRANCH  15  16
ATOM     16  C   UNL     1      -4.212   2.486  25.106  0.00  0.00    +0.017 A 
ATOM     17  C   UNL     1      -4.787   1.960  25.378  0.00  0.00    +0.168 A 
ATOM     20  C   UNL     1      -5.521   2.244  25.627  0.00  0.00    +0.172 A 
ATOM     23  C   UNL     1      -5.679   3.053  25.604  0.00  0.00    +0.040 A 
ATOM     24  C   UNL     1      -5.105   3.579  25.332  0.00  0.00    +0.003 A 
ATOM     25  C   UNL     1      -4.371   3.295  25.083  0.00  0.00    -0.001 A 
BRANCH  17  18
ATOM     18  O   UNL     1      -4.628   1.151  25.401  0.00  0.00    -0.469 OA
ATOM     19  C   UNL     1      -4.992   0.644  24.861  0.00  0.00    +0.253 C 
ENDBRANCH  17  18
BRANCH  20  21
ATOM     21  O   UNL     1      -6.095   1.718  25.899  0.00  0.00    -0.468 OA
ATOM     22  C   UNL     1      -6.668   1.974  26.435  0.00  0.00    +0.253 C 
ENDBRANCH  20  21
ENDBRANCH  15  16
ENDBRANCH  14  15
ENDBRANCH  13  14
TORSDOF 6
ENDMDL
MODEL 2
REMARK VINA RESULT:      -7.9      2.840      4.652
REMARK  Name = 
REMARK  6 active torsions:
REMARK  status: ('A' for Active; 'I' for Inactive)
REMARK    1  A    between atoms: C_2  and  N_3
REMARK    2  A    between atoms: N_13  and  C_14
REMARK    3  A    between atoms: C_14  and  C_15
REMARK    4  A    between atoms: C_15  and  C_16
REMARK    5  A    between atoms: C_17  and  O_18
REMARK    6  A    between atoms: C_20  and  O_21
REMARK                            x       y       z     vdW  Elec       q    Type
REMARK                         _______ _______ _______ _____ _____    ______ ____
ROOT
ATOM      3  N   UNL     1      -1.795   5.096  25.050  0.00  0.00    -0.188 NA
ATOM      4  C   UNL     1      -1.699   4.293  24.892  0.00  0.00    +0.323 C 
ATOM      5  O   UNL     1      -0.949   3.992  24.725  0.00  0.00    -0.251 OA
ATOM      6  N   UNL     1      -2.352   3.788  24.901  0.00  0.00    -0.263 N 
ATOM      7  C   UNL     1      -3.102   4.089  25.068  0.00  0.00    +0.095 C 
ATOM      8  C   UNL     1      -3.756   3.586  25.077  0.00  0.00    +0.022 C 
ATOM      9  C   UNL     1      -3.659   2.781  24.918  0.00  0.00    +0.012 C 
ATOM     10  C   UNL     1      -4.379   2.379  24.955  0.00  0.00    +0.085 C 
ATOM     11  C   UNL     1      -4.525   1.576  24.834  0.00  0.00    +0.226 C 
ATOM     12  O   UNL     1      -5.312   1.341  24.911  0.00  0.00    -0.275 OA
ATOM     13  N   UNL     1      -3.989   0.978  24.646  0.00  0.00    -0.279 N 
ATOM     26  C   UNL     1      -3.174   1.035  24.533  0.00  0.00    +0.093 C 
ATOM     27  C   UNL     1      -2.693   1.704  24.580  0.00  0.00    +0.023 C 
ATOM     28  C   UNL     1      -2.909   2.481  24.751  0.00  0.00    +0.022 C 
ATOM     29  C   UNL     1      -2.256   2.985  24.743  0.00  0.00    +0.095 C 
ENDROOT
BRANCH   3   2
ATOM      1  C   UNL     1      -1.251   6.416  25.008  0.00  0.00    +0.025 C 
ATOM      2  C   UNL     1      -1.142   5.600  25.041  0.00  0.00    +0.117 C 
ENDBRANCH   3   2
BRANCH  13  14
ATOM     14  C   UNL     1      -4.311   0.223  24.560  0.00  0.00    +0.098 C 
BRANCH  14  15
ATOM     15  C   UNL     1      -3.978  -0.415  24.962  0.00  0.00    +0.051 C 
BRANCH  15  16
ATOM     16  C   UNL     1      -3.990  -1.167  24.624  0.00  0.00    +0.017 A 
ATOM     17  C   UNL     1      -3.497  -1.761  24.918  0.00  0.00    +0.168 A 
ATOM     20  C   UNL     1      -3.509  -2.513  24.580  0.00  0.00    +0.172 A 
ATOM     23  C   UNL     1      -4.015  -2.672  23.948  0.00  0.00    +0.040 A 
ATOM     24  C   UNL     1      -4.508  -2.080  23.654  0.00  0.00    +0.003 A 
ATOM     25  C   UNL     1      -4.496  -1.328  23.992  0.00  0.00    -0.001 A 
BRANCH  17  18
ATOM     18  O   UNL     1      -2.991  -1.600  25.549  0.00  0.00    -0.469 OA
ATOM     19  C   UNL     1      -3.208  -1.818  26.316  0.00  0.00    +0.253 C 
ENDBRANCH  17  18
BRANCH  20  21
ATOM     21  O   UNL     1      -3.016  -3.105  24.873  0.00  0.00    -0.468 OA
ATOM     22  C   UNL     1      -2.615  -3.604  24.353  0.00  0.00    +0.253 C 
ENDBRANCH  20  21
ENDBRANCH  15  16
ENDBRANCH  14  15
ENDBRANCH  13  14
TORSDOF 6
ENDMDL
MODEL 3
REMARK VINA RESULT:      -7.6      2.608      4.600
REMARK  Name = 
REMARK  6 active torsions:
REMARK  status: ('A' for Active; 'I' for Inactive)
REMARK    1  A    between atoms: C_2  and  N_3
REMARK    2  A    between atoms: N_13  and  C_14
REMARK    3  A    between atoms: C_14  and  C_15
REMARK    4  A    between atoms: C_15  and  C_16
REMARK    5  A    between atoms: C_17  and  O_18
REMARK    6  A    between atoms: C_20  and  O_21
REMARK                            x       y       z     vdW  Elec       q    Type
REMARK                         _______ _______ _______ _____ _____    ______ ____
ROOT
ATOM      3  N   UNL     1      -3.791  -2.835  24.236  0.00  0.00    -0.188 NA
ATOM      4  C   UNL     1      -3.272  -2.243  24.482  0.00  0.00    +0.323 C 
ATOM      5  O   UNL     1      -2.512  -2.441  24.734  0.00  0.00    -0.251 OA
ATOM      6  N   UNL     1      -3.513  -1.454  24.477  0.00  0.00    -0.263 N 
ATOM      7  C   UNL     1      -4.273  -1.257  24.225  0.00  0.00    +0.095 C 
ATOM      8  C   UNL     1      -4.515  -0.468  24.219  0.00  0.00    +0.022 C 
ATOM      9  C   UNL     1      -3.995   0.124  24.465  0.00  0.00    +0.012 C 
ATOM     10  C   UNL     1      -4.344   0.870  24.417  0.00  0.00    +0.085 C 
ATOM     11  C   UNL     1      -4.017   1.603  24.608  0.00  0.00    +0.226 C 
ATOM     12  O   UNL     1      -4.512   2.254  24.498  0.00  0.00    -0.275 OA
ATOM     13  N   UNL     1      -3.263   1.772  24.895  0.00  0.00    -0.279 N 
ATOM     26  C   UNL     1      -2.647   1.248  25.061  0.00  0.00    +0.093 C 
ATOM     27  C   UNL     1      -2.635   0.427  24.982  0.00  0.00    +0.023 C 
ATOM     28  C   UNL     1      -3.234  -0.073  24.717  0.00  0.00    +0.022 C 
ATOM     29  C   UNL     1      -2.994  -0.863  24.722  0.00  0.00    +0.095 C 
ENDROOT
BRANCH   3   2
ATOM      1  C   UNL     1      -3.920  -4.172  23.748  0.00  0.00    +0.025 C 
ATOM      2  C   UNL     1      -3.551  -3.624  24.242  0.00  0.00    +0.117 C 
ENDBRANCH   3   2
BRANCH  13  14
ATOM     14  C   UNL     1      -3.102   2.569  25.033  0.00  0.00    +0.098 C 
BRANCH  14  15
ATOM     15  C   UNL     1      -2.321   2.827  25.093  0.00  0.00    +0.051 C 
BRANCH  15  16
ATOM     16  C   UNL     1      -2.160   3.627  25.218  0.00  0.00    +0.017 A 
ATOM     17  C   UNL     1      -1.465   3.959  24.922  0.00  0.00    +0.168 A 
ATOM     20  C   UNL     1      -1.304   4.759  25.047  0.00  0.00    +0.172 A 
ATOM     23  C   UNL     1      -1.838   5.226  25.468  0.00  0.00    +0.040 A 
ATOM     24  C   UNL     1      -2.532   4.894  25.764  0.00  0.00    +0.003 A 
ATOM     25  C   UNL     1      -2.693   4.095  25.639  0.00  0.00    -0.001 A 
BRANCH  17  18
ATOM     18  O   UNL     1      -0.932   3.491  24.500  0.00  0.00    -0.469 OA
ATOM     19  C   UNL     1      -0.226   3.251  24.854  0.00  0.00    +0.253 C 
ENDBRANCH  17  18
BRANCH  20  21
ATOM     21  O   UNL     1      -0.610   5.090  24.750  0.00  0.00    -0.468 OA
ATOM     22  C   UNL     1      -0.540   5.909  24.680  0.00  0.00    +0.253 C 
ENDBRANCH  20  21
ENDBRANCH  15  16
ENDBRANCH  14  15
ENDBRANCH  13  14
TORSDOF 6
ENDMDL
MODEL 4
REMARK VINA RESULT:      -7.2      2.759      4.388
REMARK  Name = 
REMARK  6 active torsions:
REMARK  status: ('A' for Active; 'I' for Inactive)
REMARK    1  A    between atoms: C_2  and  N_3
REMARK    2  A    between atoms: N_13  and  C_14
REMARK    3  A    between atoms: C_14  and  C_15
REMARK    4  A    between atoms: C_15  and  C_16
REMARK    5  A    between atoms: C_17  and  O_18
REMARK    6  A    between atoms: C_20  and  O_21
REMARK                            x       y       z     vdW  Elec       q    Type
REMARK                         _______ _______ _______ _____ _____    ______ ____
ROOT
ATOM      3  N   UNL     1      -3.607  -2.645  24.309  0.00  0.00    -0.188 NA
ATOM      4  C   UNL     1      -3.636  -1.833  24.169  0.00  0.00    +0.323 C 
ATOM      5  O   UNL     1      -4.249  -1.514  23.719  0.00  0.00    -0.251 OA
ATOM      6  N   UNL     1      -3.053  -1.339  24.480  0.00  0.00    -0.263 N 
ATOM      7  C   UNL     1      -2.440  -1.658  24.930  0.00  0.00    +0.095 C 
ATOM      8  C   UNL     1      -1.856  -1.165  25.241  0.00  0.00    +0.022 C 
ATOM      9  C   UNL     1      -1.886  -0.352  25.101  0.00  0.00    +0.012 C 
ATOM     10  C   UNL     1      -1.253   0.039  25.459  0.00  0.00    +0.085 C 
ATOM     11  C   UNL     1      -1.078   0.845  25.455  0.00  0.00    +0.226 C 
ATOM     12  O   UNL     1      -0.399   1.065  25.869  0.00  0.00    -0.275 OA
ATOM     13  N   UNL     1      -1.491   1.459  25.092  0.00  0.00    -0.279 N 
ATOM     26  C   UNL     1      -2.182   1.419  24.643  0.00  0.00    +0.093 C 
ATOM     27  C   UNL     1      -2.631   0.756  24.447  0.00  0.00    +0.023 C 
ATOM     28  C   UNL     1      -2.499  -0.033  24.651  0.00  0.00    +0.022 C 
ATOM     29  C   UNL     1      -3.082  -0.527  24.340  0.00  0.00    +0.095 C 
ENDROOT
BRANCH   3   2
ATOM      1  C   UNL     1      -4.021  -3.931  23.844  0.00  0.00    +0.025 C 
ATOM      2  C   UNL     1      -4.190  -3.139  23.999  0.00  0.00    +0.117 C 
ENDBRANCH   3   2
BRANCH  13  14
ATOM     14  C   UNL     1      -1.172   2.213  25.191  0.00  0.00    +0.098 C 
BRANCH  14  15
ATOM     15  C   UNL     1      -1.669   2.860  25.307  0.00  0.00    +0.051 C 
BRANCH  15  16
ATOM     16  C   UNL     1      -1.387   3.625  25.182  0.00  0.00    +0.017 A 
ATOM     17  C   UNL     1      -1.882   4.274  25.310  0.00  0.00    +0.168 A 
ATOM     20  C   UNL     1      -1.600   5.039  25.185  0.00  0.00    +0.172 A 
ATOM     23  C   UNL     1      -0.823   5.155  24.931  0.00  0.00    +0.040 A 
ATOM     24  C   UNL     1      -0.329   4.508  24.803  0.00  0.00    +0.003 A 
ATOM     25  C   UNL     1      -0.611   3.743  24.928  0.00  0.00    -0.001 A 
BRANCH  17  18
ATOM     18  O   UNL     1      -2.658   4.156  25.564  0.00  0.00    -0.469 OA
ATOM     19  C   UNL     1      -2.859   4.296  26.353  0.00  0.00    +0.253 C 
ENDBRANCH  17  18
BRANCH  20  21
ATOM     21  O   UNL     1      -2.094   5.686  25.314  0.00  0.00    -0.468 OA
ATOM     22  C   UNL     1      -1.928   6.411  24.955  0.00  0.00    +0.253 C 
ENDBRANCH  20  21
ENDBRANCH  15  16
ENDBRANCH  14  15
ENDBRANCH  13  14
TORSDOF 6
ENDMDL
MODEL 5
REMARK VINA RESULT:      -7.2     15.119     16.943
REMARK  Name = 
REMARK  6 active torsions:
REMARK  status: ('A' for Active; 'I' for Inactive)
REMARK    1  A    between atoms: C_2  and  N_3
REMARK    2  A    between atoms: N_13  and  C_14
REMARK    3  A    between atoms: C_14  and  C_15
REMARK    4  A    between atoms: C_15  and  C_16
REMARK    5  A    between atoms: C_17  and  O_18
REMARK    6  A    between atoms: C_20  and  O_21
REMARK                            x       y       z     vdW  Elec       q    Type
REMARK                         _______ _______ _______ _____ _____    ______ ____
ROOT
ATOM      3  N   UNL     1      -5.922 -10.525  18.297  0.00  0.00    -0.188 NA
ATOM      4  C   UNL     1      -6.102 -10.493  17.493  0.00  0.00    +0.323 C 
ATOM      5  O   UNL     1      -6.887 -10.418  17.249  0.00  0.00    -0.251 OA
ATOM      6  N   UNL     1      -5.499 -10.538  16.932  0.00  0.00    -0.263 N 
ATOM      7  C   UNL     1      -4.714 -10.614  17.176  0.00  0.00    +0.095 C 
ATOM      8  C   UNL     1      -4.110 -10.658  16.617  0.00  0.00    +0.022 C 
ATOM      9  C   UNL     1      -4.291 -10.627  15.812  0.00  0.00    +0.012 C 
ATOM     10  C   UNL     1      -3.610 -10.680  15.348  0.00  0.00    +0.085 C 
ATOM     11  C   UNL     1      -3.547 -10.671  14.526  0.00  0.00    +0.226 C 
ATOM     12  O   UNL     1      -2.781 -10.735  14.226  0.00  0.00    -0.275 OA
ATOM     13  N   UNL     1      -4.147 -10.606  13.964  0.00  0.00    -0.279 N 
ATOM     26  C   UNL     1      -4.960 -10.534  14.086  0.00  0.00    +0.093 C 
ATOM     27  C   UNL     1      -5.373 -10.510  14.800  0.00  0.00    +0.023 C 
ATOM     28  C   UNL     1      -5.075 -10.551  15.568  0.00  0.00    +0.022 C 
ATOM     29  C   UNL     1      -5.679 -10.507  16.129  0.00  0.00    +0.095 C 
ENDROOT
BRANCH   3   2
ATOM      1  C   UNL     1      -6.342 -10.462  19.662  0.00  0.00    +0.025 C 
ATOM      2  C   UNL     1      -6.525 -10.480  18.858  0.00  0.00    +0.117 C 
ENDBRANCH   3   2
BRANCH  13  14
ATOM     14  C   UNL     1      -3.903 -10.613  13.176  0.00  0.00    +0.098 C 
BRANCH  14  15
ATOM     15  C   UNL     1      -4.329 -10.194  12.608  0.00  0.00    +0.051 C 
BRANCH  15  16
ATOM     16  C   UNL     1      -4.079 -10.194  11.822  0.00  0.00    +0.017 A 
ATOM     17  C   UNL     1      -4.341  -9.605  11.306  0.00  0.00    +0.168 A 
ATOM     20  C   UNL     1      -4.091  -9.604  10.520  0.00  0.00    +0.172 A 
ATOM     23  C   UNL     1      -3.579 -10.193  10.250  0.00  0.00    +0.040 A 
ATOM     24  C   UNL     1      -3.317 -10.781  10.765  0.00  0.00    +0.003 A 
ATOM     25  C   UNL     1      -3.568 -10.781  11.551  0.00  0.00    -0.001 A 
BRANCH  17  18
ATOM     18  O   UNL     1      -4.853  -9.017  11.577  0.00  0.00    -0.469 OA
ATOM     19  C   UNL     1      -5.645  -9.022  11.345  0.00  0.00    +0.253 C 
ENDBRANCH  17  18
BRANCH  20  21
ATOM     21  O   UNL     1      -4.353  -9.016  10.005  0.00  0.00    -0.468 OA
ATOM     22  C   UNL     1      -3.979  -8.908   9.277  0.00  0.00    +0.253 C 
ENDBRANCH  20  21
ENDBRANCH  15  16
ENDBRANCH  14  15
ENDBRANCH  13  14
TORSDOF 6
ENDMDL
MODEL 6
REMARK VINA RESULT:      -6.8      2.583      4.407
REMARK  Name = 
REMARK  6 active torsions:
REMARK  status: ('A' for Active; 'I' for Inactive)
REMARK    1  A    between atoms: C_2  and  N_3
REMARK    2  A    between atoms: N_13  and  C_14
REMARK    3  A    between atoms: C_14  and  C_15
REMARK    4  A    between atoms: C_15  and  C_16
REMARK    5  A    between atoms: C_17  and  O_18
REMARK    6  A    between atoms: C_20  and  O_21
REMARK                            x       y       z     vdW  Elec       q    Type
REMARK                         _______ _______ _______ _____ _____    ______ ____
ROOT
ATOM      3  N   UNL     1      -1.020   4.839  25.022  0.00  0.00    -0.188 NA
ATOM      4  C   UNL     1      -1.604   4.259  25.062  0.00  0.00    +0.323 C 
ATOM      5  O   UNL     1      -2.396   4.475  25.148  0.00  0.00    -0.251 OA
ATOM      6  N   UNL     1      -1.398   3.461  25.016  0.00  0.00    -0.263 N 
ATOM      7  C   UNL     1      -0.606   3.245  24.929  0.00  0.00    +0.095 C 
ATOM      8  C   UNL     1      -0.399   2.448  24.883  0.00  0.00    +0.022 C 
ATOM      9  C   UNL     1      -0.984   1.867  24.923  0.00  0.00    +0.012 C 
ATOM     10  C   UNL     1      -0.660   1.109  24.866  0.00  0.00    +0.085 C 
ATOM     11  C   UNL     1      -1.049   0.382  24.881  0.00  0.00    +0.226 C 
ATOM     12  O   UNL     1      -0.566  -0.283  24.811  0.00  0.00    -0.275 OA
ATOM     13  N   UNL     1      -1.856   0.232  24.957  0.00  0.00    -0.279 N 
ATOM     26  C   UNL     1      -2.475   0.772  25.037  0.00  0.00    +0.093 C 
ATOM     27  C   UNL     1      -2.439   1.596  25.060  0.00  0.00    +0.023 C 
ATOM     28  C   UNL     1      -1.775   2.083  25.009  0.00  0.00    +0.022 C 
ATOM     29  C   UNL     1      -1.982   2.881  25.055  0.00  0.00    +0.095 C 
ENDROOT
BRANCH   3   2
ATOM      1  C   UNL     1      -0.767   6.205  24.688  0.00  0.00    +0.025 C 
ATOM      2  C   UNL     1      -1.227   5.637  25.068  0.00  0.00    +0.117 C 
ENDBRANCH   3   2
BRANCH  13  14
ATOM     14  C   UNL     1      -2.074  -0.564  24.954  0.00  0.00    +0.098 C 
BRANCH  14  15
ATOM     15  C   UNL     1      -2.842  -0.780  24.746  0.00  0.00    +0.051 C 
BRANCH  15  16
ATOM     16  C   UNL     1      -3.052  -1.577  24.712  0.00  0.00    +0.017 A 
ATOM     17  C   UNL     1      -3.661  -1.823  24.211  0.00  0.00    +0.168 A 
ATOM     20  C   UNL     1      -3.870  -2.620  24.177  0.00  0.00    +0.172 A 
ATOM     23  C   UNL     1      -3.470  -3.172  24.643  0.00  0.00    +0.040 A 
ATOM     24  C   UNL     1      -2.862  -2.926  25.142  0.00  0.00    +0.003 A 
ATOM     25  C   UNL     1      -2.653  -2.129  25.177  0.00  0.00    -0.001 A 
BRANCH  17  18
ATOM     18  O   UNL     1      -4.060  -1.271  23.746  0.00  0.00    -0.469 OA
ATOM     19  C   UNL     1      -4.800  -0.991  23.982  0.00  0.00    +0.253 C 
ENDBRANCH  17  18
BRANCH  20  21
ATOM     21  O   UNL     1      -4.478  -2.865  23.677  0.00  0.00    -0.468 OA
ATOM     22  C   UNL     1      -4.495  -3.641  23.397  0.00  0.00    +0.253 C 
ENDBRANCH  20  21
ENDBRANCH  15  16
ENDBRANCH  14  15
ENDBRANCH  13  14
TORSDOF 6
ENDMDL
MODEL 7
REMARK VINA RESULT:      -6.7      1.622      6.321
REMARK  Name = 
REMARK  6 active torsions:
REMARK  status: ('A' for Active; 'I' for Inactive)
REMARK    1  A    between atoms: C_2  and  N_3
REMARK    2  A    between atoms: N_13  and  C_14
REMARK    3  A    between atoms: C_14  and  C_15
REMARK    4  A    between atoms: C_15  and  C_16
REMARK    5  A    between atoms: C_17  and  O_18
REMARK    6  A    between atoms: C_20  and  O_21
REMARK                            x       y       z     vdW  Elec       q    Type
REMARK                         _______ _______ _______ _____ _____    ______ ____
ROOT
ATOM      3  N   UNL     1      -5.462   1.490  25.177  0.00  0.00    -0.188 NA
ATOM      4  C   UNL     1      -4.775   1.684  24.765  0.00  0.00    +0.323 C 
ATOM      5  O   UNL     1      -4.729   2.396  24.350  0.00  0.00    -0.251 OA
ATOM      6  N   UNL     1      -4.132   1.167  24.766  0.00  0.00    -0.263 N 
ATOM      7  C   UNL     1      -4.177   0.455  25.181  0.00  0.00    +0.095 C 
ATOM      8  C   UNL     1      -3.535  -0.063  25.183  0.00  0.00    +0.022 C 
ATOM      9  C   UNL     1      -2.847   0.132  24.770  0.00  0.00    +0.012 C 
ATOM     10  C   UNL     1      -2.274  -0.458  24.844  0.00  0.00    +0.085 C 
ATOM     11  C   UNL     1      -1.516  -0.482  24.520  0.00  0.00    +0.226 C 
ATOM     12  O   UNL     1      -1.073  -1.154  24.697  0.00  0.00    -0.275 OA
ATOM     13  N   UNL     1      -1.142   0.079  24.044  0.00  0.00    -0.279 N 
ATOM     26  C   UNL     1      -1.435   0.801  23.774  0.00  0.00    +0.093 C 
ATOM     27  C   UNL     1      -2.173   1.141  23.912  0.00  0.00    +0.023 C 
ATOM     28  C   UNL     1      -2.802   0.844  24.356  0.00  0.00    +0.022 C 
ATOM     29  C   UNL     1      -3.444   1.361  24.354  0.00  0.00    +0.095 C 
ENDROOT
BRANCH   3   2
ATOM      1  C   UNL     1      -6.590   2.065  25.839  0.00  0.00    +0.025 C 
ATOM      2  C   UNL     1      -6.105   2.008  25.175  0.00  0.00    +0.117 C 
ENDBRANCH   3   2
BRANCH  13  14
ATOM     14  C   UNL     1      -0.374  -0.108  23.807  0.00  0.00    +0.098 C 
BRANCH  14  15
ATOM     15  C   UNL     1       0.170   0.494  23.664  0.00  0.00    +0.051 C 
BRANCH  15  16
ATOM     16  C   UNL     1       0.866   0.331  23.251  0.00  0.00    +0.017 A 
ATOM     17  C   UNL     1       1.551   0.764  23.409  0.00  0.00    +0.168 A 
ATOM     20  C   UNL     1       2.247   0.601  22.997  0.00  0.00    +0.172 A 
ATOM     23  C   UNL     1       2.258   0.004  22.427  0.00  0.00    +0.040 A 
ATOM     24  C   UNL     1       1.574  -0.429  22.269  0.00  0.00    +0.003 A 
ATOM     25  C   UNL     1       0.878  -0.265  22.681  0.00  0.00    -0.001 A 
BRANCH  17  18
ATOM     18  O   UNL     1       1.539   1.360  23.979  0.00  0.00    -0.469 OA
ATOM     19  C   UNL     1       1.306   2.124  23.771  0.00  0.00    +0.253 C 
ENDBRANCH  17  18
BRANCH  20  21
ATOM     21  O   UNL     1       2.930   1.033  23.155  0.00  0.00    -0.468 OA
ATOM     22  C   UNL     1       3.643   0.827  22.794  0.00  0.00    +0.253 C 
ENDBRANCH  20  21
ENDBRANCH  15  16
ENDBRANCH  14  15
ENDBRANCH  13  14
TORSDOF 6
ENDMDL
MODEL 8
REMARK VINA RESULT:      -6.4     16.717     18.196
REMARK  Name = 
REMARK  6 active torsions:
REMARK  status: ('A' for Active; 'I' for Inactive)
REMARK    1  A    between atoms: C_2  and  N_3
REMARK    2  A    between atoms: N_13  and  C_14
REMARK    3  A    between atoms: C_14  and  C_15
REMARK    4  A    between atoms: C_15  and  C_16
REMARK    5  A    between atoms: C_17  and  O_18
REMARK    6  A    between atoms: C_20  and  O_21
REMARK                            x       y       z     vdW  Elec       q    Type
REMARK                         _______ _______ _______ _____ _____    ______ ____
ROOT
ATOM      3  N   UNL     1      -1.768 -10.528  14.843  0.00  0.00    -0.188 NA
ATOM      4  C   UNL     1      -2.527 -10.534  14.520  0.00  0.00    +0.323 C 
ATOM      5  O   UNL     1      -3.186 -10.570  15.015  0.00  0.00    -0.251 OA
ATOM      6  N   UNL     1      -2.627 -10.505  13.702  0.00  0.00    -0.263 N 
ATOM      7  C   UNL     1      -1.969 -10.469  13.207  0.00  0.00    +0.095 C 
ATOM      8  C   UNL     1      -2.068 -10.440  12.388  0.00  0.00    +0.022 C 
ATOM      9  C   UNL     1      -2.828 -10.446  12.065  0.00  0.00    +0.012 C 
ATOM     10  C   UNL     1      -2.804 -10.414  11.241  0.00  0.00    +0.085 C 
ATOM     11  C   UNL     1      -3.434 -10.409  10.709  0.00  0.00    +0.226 C 
ATOM     12  O   UNL     1      -3.228 -10.373   9.911  0.00  0.00    -0.275 OA
ATOM     13  N   UNL     1      -4.243 -10.435  10.869  0.00  0.00    -0.279 N 
ATOM     26  C   UNL     1      -4.621 -10.473  11.600  0.00  0.00    +0.093 C 
ATOM     27  C   UNL     1      -4.285 -10.494  12.353  0.00  0.00    +0.023 C 
ATOM     28  C   UNL     1      -3.487 -10.482  12.560  0.00  0.00    +0.022 C 
ATOM     29  C   UNL     1      -3.386 -10.511  13.379  0.00  0.00    +0.095 C 
ENDROOT
BRANCH   3   2
ATOM      1  C   UNL     1      -0.932 -10.388  15.994  0.00  0.00    +0.025 C 
ATOM      2  C   UNL     1      -1.668 -10.557  15.662  0.00  0.00    +0.117 C 
ENDBRANCH   3   2
BRANCH  13  14
ATOM     14  C   UNL     1      -4.739 -10.422  10.209  0.00  0.00    +0.098 C 
BRANCH  14  15
ATOM     15  C   UNL     1      -5.331  -9.851  10.151  0.00  0.00    +0.051 C 
BRANCH  15  16
ATOM     16  C   UNL     1      -5.880  -9.889   9.536  0.00  0.00    +0.017 A 
ATOM     17  C   UNL     1      -6.350  -9.232   9.361  0.00  0.00    +0.168 A 
ATOM     20  C   UNL     1      -6.898  -9.269   8.747  0.00  0.00    +0.172 A 
ATOM     23  C   UNL     1      -6.978  -9.963   8.306  0.00  0.00    +0.040 A 
ATOM     24  C   UNL     1      -6.509 -10.618   8.480  0.00  0.00    +0.003 A 
ATOM     25  C   UNL     1      -5.960 -10.581   9.095  0.00  0.00    -0.001 A 
BRANCH  17  18
ATOM     18  O   UNL     1      -6.270  -8.540   9.802  0.00  0.00    -0.469 OA
ATOM     19  C   UNL     1      -5.882  -7.887   9.477  0.00  0.00    +0.253 C 
ENDBRANCH  17  18
BRANCH  20  21
ATOM     21  O   UNL     1      -7.367  -8.614   8.573  0.00  0.00    -0.468 OA
ATOM     22  C   UNL     1      -8.054  -8.704   8.124  0.00  0.00    +0.253 C 
ENDBRANCH  20  21
ENDBRANCH  15  16
ENDBRANCH  14  15
ENDBRANCH  13  14
TORSDOF 6
ENDMDL
MODEL 9
REMARK VINA RESULT:      -6.3     14.530     16.184
REMARK  Name = 
REMARK  6 active torsions:
REMARK  status: ('A' for Active; 'I' for Inactive)
REMARK    1  A    between atoms: C_2  and  N_3
REMARK    2  A    between atoms: N_13  and  C_14
REMARK    3  A    between atoms: C_14  and  C_15
REMARK    4  A    between atoms: C_15  and  C_16
REMARK    5  A    between atoms: C_17  and  O_18
REMARK    6  A    between atoms: C_20  and  O_21
REMARK                            x       y       z     vdW  Elec       q    Type
REMARK                         _______ _______ _______ _____ _____    ______ ____
ROOT
ATOM      3  N   UNL     1      -9.041  -9.294  17.829  0.00  0.00    -0.188 NA
ATOM      4  C   UNL     1      -8.545  -9.331  17.171  0.00  0.00    +0.323 C 
ATOM      5  O   UNL     1      -8.829  -9.110  16.428  0.00  0.00    -0.251 OA
ATOM      6  N   UNL     1      -7.766  -9.590  17.254  0.00  0.00    -0.263 N 
ATOM      7  C   UNL     1      -7.483  -9.812  17.996  0.00  0.00    +0.095 C 
ATOM      8  C   UNL     1      -6.704 -10.071  18.081  0.00  0.00    +0.022 C 
ATOM      9  C   UNL     1      -6.209 -10.108  17.421  0.00  0.00    +0.012 C 
ATOM     10  C   UNL     1      -5.456 -10.380  17.625  0.00  0.00    +0.085 C 
ATOM     11  C   UNL     1      -4.803 -10.497  17.136  0.00  0.00    +0.226 C 
ATOM     12  O   UNL     1      -4.123 -10.777  17.510  0.00  0.00    -0.275 OA
ATOM     13  N   UNL     1      -4.739 -10.372  16.324  0.00  0.00    -0.279 N 
ATOM     26  C   UNL     1      -5.313 -10.098  15.799  0.00  0.00    +0.093 C 
ATOM     27  C   UNL     1      -6.093  -9.882  15.957  0.00  0.00    +0.023 C 
ATOM     28  C   UNL     1      -6.492  -9.886  16.679  0.00  0.00    +0.022 C 
ATOM     29  C   UNL     1      -7.271  -9.627  16.596  0.00  0.00    +0.095 C 
ENDROOT
BRANCH   3   2
ATOM      1  C   UNL     1     -10.339  -9.075  18.385  0.00  0.00    +0.025 C 
ATOM      2  C   UNL     1      -9.820  -9.035  17.746  0.00  0.00    +0.117 C 
ENDBRANCH   3   2
BRANCH  13  14
ATOM     14  C   UNL     1      -4.003 -10.543  15.992  0.00  0.00    +0.098 C 
BRANCH  14  15
ATOM     15  C   UNL     1      -3.902 -10.511  15.174  0.00  0.00    +0.051 C 
BRANCH  15  16
ATOM     16  C   UNL     1      -3.144 -10.537  14.851  0.00  0.00    +0.017 A 
ATOM     17  C   UNL     1      -3.045 -10.644  14.038  0.00  0.00    +0.168 A 
ATOM     20  C   UNL     1      -2.287 -10.670  13.714  0.00  0.00    +0.172 A 
ATOM     23  C   UNL     1      -1.627 -10.589  14.204  0.00  0.00    +0.040 A 
ATOM     24  C   UNL     1      -1.725 -10.482  15.015  0.00  0.00    +0.003 A 
ATOM     25  C   UNL     1      -2.484 -10.456  15.339  0.00  0.00    -0.001 A 
BRANCH  17  18
ATOM     18  O   UNL     1      -3.705 -10.725  13.550  0.00  0.00    -0.469 OA
ATOM     19  C   UNL     1      -3.925 -10.107  13.048  0.00  0.00    +0.253 C 
ENDBRANCH  17  18
BRANCH  20  21
ATOM     21  O   UNL     1      -2.188 -10.777  12.903  0.00  0.00    -0.468 OA
ATOM     22  C   UNL     1      -1.444 -10.677  12.560  0.00  0.00    +0.253 C 
ENDBRANCH  20  21
ENDBRANCH  15  16
ENDBRANCH  14  15
ENDBRANCH  13  14
TORSDOF 6
ENDMDL
MODEL 10
REMARK VINA RESULT:      -6.2      2.471      6.137
REMARK  Name = 
REMARK  6 active torsions:
REMARK  status: ('A' for Active; 'I' for Inactive)
REMARK    1  A    between atoms: C_2  and  N_3
REMARK    2  A    between atoms: N_13  and  C_14
REMARK    3  A    between atoms: C_14  and  C_15
REMARK    4  A    between atoms: C_15  and  C_16
REMARK    5  A    between atoms: C_17  and  O_18
REMARK    6  A    between atoms: C_20  and  O_21
REMARK                            x       y       z     vdW  Elec       q    Type
REMARK                         _______ _______ _______ _____ _____    ______ ____
ROOT
ATOM      3  N   UNL     1      -5.802   4.147  25.559  0.00  0.00    -0.188 NA
ATOM      4  C   UNL     1      -5.068   3.795  25.431  0.00  0.00    +0.323 C 
ATOM      5  O   UNL     1      -4.381   4.252  25.462  0.00  0.00    -0.251 OA
ATOM      6  N   UNL     1      -5.018   2.987  25.272  0.00  0.00    -0.263 N 
ATOM      7  C   UNL     1      -5.704   2.530  25.241  0.00  0.00    +0.095 C 
ATOM      8  C   UNL     1      -5.656   1.723  25.082  0.00  0.00    +0.022 C 
ATOM      9  C   UNL     1      -4.920   1.371  24.954  0.00  0.00    +0.012 C 
ATOM     10  C   UNL     1      -4.994   0.563  24.805  0.00  0.00    +0.085 C 
ATOM     11  C   UNL     1      -4.400   0.012  24.650  0.00  0.00    +0.226 C 
ATOM     12  O   UNL     1      -4.654  -0.762  24.523  0.00  0.00    -0.275 OA
ATOM     13  N   UNL     1      -3.585   0.133  24.606  0.00  0.00    -0.279 N 
ATOM     26  C   UNL     1      -3.164   0.835  24.706  0.00  0.00    +0.093 C 
ATOM     27  C   UNL     1      -3.452   1.589  24.874  0.00  0.00    +0.023 C 
ATOM     28  C   UNL     1      -4.233   1.828  24.985  0.00  0.00    +0.022 C 
ATOM     29  C   UNL     1      -4.283   2.636  25.144  0.00  0.00    +0.095 C 
ENDROOT
BRANCH   3   2
ATOM      1  C   UNL     1      -6.494   5.392  25.441  0.00  0.00    +0.025 C 
ATOM      2  C   UNL     1      -5.852   4.955  25.718  0.00  0.00    +0.117 C 
ENDBRANCH   3   2
BRANCH  13  14
ATOM     14  C   UNL     1      -3.132  -0.536  24.440  0.00  0.00    +0.098 C 
BRANCH  14  15
ATOM     15  C   UNL     1      -2.321  -0.532  24.589  0.00  0.00    +0.051 C 
BRANCH  15  16
ATOM     16  C   UNL     1      -1.911  -1.245  24.656  0.00  0.00    +0.017 A 
ATOM     17  C   UNL     1      -1.129  -1.248  24.920  0.00  0.00    +0.168 A 
ATOM     20  C   UNL     1      -0.718  -1.960  24.988  0.00  0.00    +0.172 A 
ATOM     23  C   UNL     1      -1.091  -2.670  24.791  0.00  0.00    +0.040 A 
ATOM     24  C   UNL     1      -1.872  -2.668  24.527  0.00  0.00    +0.003 A 
ATOM     25  C   UNL     1      -2.282  -1.955  24.460  0.00  0.00    -0.001 A 
BRANCH  17  18
ATOM     18  O   UNL     1      -0.758  -0.537  25.117  0.00  0.00    -0.469 OA
ATOM     19  C   UNL     1      -0.217  -0.197  24.594  0.00  0.00    +0.253 C 
ENDBRANCH  17  18
BRANCH  20  21
ATOM     21  O   UNL     1       0.063  -1.963  25.251  0.00  0.00    -0.468 OA
ATOM     22  C   UNL     1       0.413  -2.667  25.500  0.00  0.00    +0.253 C 
ENDBRANCH  20  21
ENDBRANCH  15  16
ENDBRANCH  14  15
ENDBRANCH  13  14
TORSDOF 6
ENDMDL
