MODEL 1
REMARK VINA RESULT:     -11.0      0.000      0.000
REMARK  Name = 
REMARK  5 active torsions:
REMARK  status: ('A' for Active; 'I' for Inactive)
REMARK    1  A    between atoms: C_4  and  C_15
REMARK    2  A    between atoms: C_6  and  C_8
REMARK    3  A    between atoms: C_22  and  C_23
REMARK    4  A    between atoms: C_23  and  N_24
REMARK    5  A    between atoms: C_25  and  C_27
REMARK                            x       y       z     vdW  Elec       q    Type
REMARK                         _______ _______ _______ _____ _____    ______ ____
ROOT
ATOM     15  C   UNL     1      -0.357  -0.489  24.141  0.00  0.00    +0.056 C 
ATOM     16  C   UNL     1       0.086  -1.067  23.866  0.00  0.00    +0.078 C 
ATOM     17  N   UNL     1       0.175  -0.264  23.700  0.00  0.00    -0.272 NA
ATOM     18  C   UNL     1      -0.577   0.246  24.223  0.00  0.00    +0.072 C 
ATOM     19  C   UNL     1      -0.876   0.803  24.389  0.00  0.00    +0.018 C 
ATOM     20  C   UNL     1      -0.263   0.297  23.973  0.00  0.00    +0.010 C 
ATOM     21  C   UNL     1       0.315   0.727  23.472  0.00  0.00    +0.018 C 
ATOM     22  C   UNL     1       0.773   0.189  23.180  0.00  0.00    +0.079 C 
ENDROOT
BRANCH  15   4
ATOM      1  C   UNL     1      -1.461  -0.625  26.774  0.00  0.00    +0.074 C 
ATOM      2  C   UNL     1      -1.528  -0.763  25.963  0.00  0.00    +0.139 A 
ATOM      3  N   UNL     1      -0.909  -0.558  25.458  0.00  0.00    -0.235 NA
ATOM      4  C   UNL     1      -0.977  -0.695  24.647  0.00  0.00    +0.063 A 
ATOM      5  C   UNL     1      -1.661  -1.039  24.342  0.00  0.00    +0.034 A 
ATOM      6  C   UNL     1      -2.279  -1.244  24.848  0.00  0.00    +0.084 A 
ATOM      7  N   UNL     1      -2.213  -1.107  25.658  0.00  0.00    -0.231 NA
BRANCH   6   8
ATOM      8  C   UNL     1      -2.965  -1.588  24.543  0.00  0.00    +0.018 A 
ATOM      9  C   UNL     1      -3.028  -2.409  24.494  0.00  0.00    +0.004 A 
ATOM     10  C   UNL     1      -3.713  -2.754  24.190  0.00  0.00    +0.030 A 
ATOM     11  C   UNL     1      -4.336  -2.276  23.935  0.00  0.00    +0.140 A 
ATOM     12  F   UNL     1      -5.021  -2.620  23.630  0.00  0.00    -0.204 F 
ATOM     13  C   UNL     1      -4.273  -1.455  23.984  0.00  0.00    +0.030 A 
ATOM     14  C   UNL     1      -3.588  -1.111  24.288  0.00  0.00    +0.004 A 
ENDBRANCH   6   8
ENDBRANCH  15   4
BRANCH  22  23
ATOM     23  C   UNL     1       1.425   0.082  22.687  0.00  0.00    +0.131 C 
BRANCH  23  24
ATOM     24  N   UNL     1       2.188   0.178  22.984  0.00  0.00    -0.198 NA
ATOM     25  C   UNL     1       2.835   0.153  22.473  0.00  0.00    +0.300 C 
ATOM     26  O   UNL     1       2.719   0.032  21.665  0.00  0.00    -0.265 OA
BRANCH  25  27
ATOM     27  C   UNL     1       3.599   0.249  22.770  0.00  0.00    +0.200 A 
ATOM     28  C   UNL     1       4.042   0.944  22.753  0.00  0.00    +0.046 A 
ATOM     29  C   UNL     1       4.770   0.792  23.109  0.00  0.00    +0.044 A 
ATOM     30  C   UNL     1       4.778   0.002  23.346  0.00  0.00    +0.180 A 
ATOM     31  O   UNL     1       4.054  -0.333  23.136  0.00  0.00    -0.446 OA
ENDBRANCH  25  27
ENDBRANCH  23  24
ENDBRANCH  22  23
TORSDOF 5
ENDMDL
MODEL 2
REMARK VINA RESULT:     -10.8      2.911      3.604
REMARK  Name = 
REMARK  5 active torsions:
REMARK  status: ('A' for Active; 'I' for Inactive)
REMARK    1  A    between atoms: C_4  and  C_15
REMARK    2  A    between atoms: C_6  and  C_8
REMARK    3  A    between atoms: C_22  and  C_23
REMARK    4  A    between atoms: C_23  and  N_24
REMARK    5  A    between atoms: C_25  and  C_27
REMARK                            x       y       z     vdW  Elec       q    Type
REMARK                         _______ _______ _______ _____ _____    ______ ____
ROOT
ATOM     15  C   UNL     1      -1.259   2.294  24.414  0.00  0.00    +0.056 C 
ATOM     16  C   UNL     1      -1.245   2.126  23.654  0.00  0.00    +0.078 C 
ATOM     17  N   UNL     1      -0.762   1.794  24.236  0.00  0.00    -0.272 NA
ATOM     18  C   UNL     1      -1.032   2.232  25.149  0.00  0.00    +0.072 C 
ATOM     19  C   UNL     1      -0.956   2.291  25.795  0.00  0.00    +0.018 C 
ATOM     20  C   UNL     1      -0.782   1.963  24.979  0.00  0.00    +0.010 C 
ATOM     21  C   UNL     1      -0.146   1.361  24.932  0.00  0.00    +0.018 C 
ATOM     22  C   UNL     1      -0.100   1.168  24.195  0.00  0.00    +0.079 C 
ENDROOT
BRANCH  15   4
ATOM      1  C   UNL     1      -1.862   4.956  25.262  0.00  0.00    +0.074 C 
ATOM      2  C   UNL     1      -2.109   4.188  25.090  0.00  0.00    +0.139 A 
ATOM      3  N   UNL     1      -1.561   3.625  24.838  0.00  0.00    -0.235 NA
ATOM      4  C   UNL     1      -1.808   2.857  24.667  0.00  0.00    +0.063 A 
ATOM      5  C   UNL     1      -2.602   2.651  24.747  0.00  0.00    +0.034 A 
ATOM      6  C   UNL     1      -3.150   3.214  24.999  0.00  0.00    +0.084 A 
ATOM      7  N   UNL     1      -2.904   3.982  25.171  0.00  0.00    -0.231 NA
BRANCH   6   8
ATOM      8  C   UNL     1      -3.945   3.009  25.080  0.00  0.00    +0.018 A 
ATOM      9  C   UNL     1      -4.356   3.212  25.767  0.00  0.00    +0.004 A 
ATOM     10  C   UNL     1      -5.151   3.007  25.848  0.00  0.00    +0.030 A 
ATOM     11  C   UNL     1      -5.536   2.599  25.243  0.00  0.00    +0.140 A 
ATOM     12  F   UNL     1      -6.331   2.394  25.325  0.00  0.00    -0.204 F 
ATOM     13  C   UNL     1      -5.125   2.396  24.557  0.00  0.00    +0.030 A 
ATOM     14  C   UNL     1      -4.330   2.601  24.475  0.00  0.00    +0.004 A 
ENDBRANCH   6   8
ENDBRANCH  15   4
BRANCH  22  23
ATOM     23  C   UNL     1       0.309   0.680  23.670  0.00  0.00    +0.131 C 
BRANCH  23  24
ATOM     24  N   UNL     1       1.109   0.814  23.520  0.00  0.00    -0.198 NA
ATOM     25  C   UNL     1       1.514   0.331  22.988  0.00  0.00    +0.300 C 
ATOM     26  O   UNL     1       1.120  -0.285  22.607  0.00  0.00    -0.265 OA
BRANCH  25  27
ATOM     27  C   UNL     1       2.314   0.464  22.838  0.00  0.00    +0.200 A 
ATOM     28  C   UNL     1       2.792   0.027  22.327  0.00  0.00    +0.046 A 
ATOM     29  C   UNL     1       3.550   0.351  22.345  0.00  0.00    +0.044 A 
ATOM     30  C   UNL     1       3.541   0.989  22.868  0.00  0.00    +0.180 A 
ATOM     31  O   UNL     1       2.778   1.059  23.173  0.00  0.00    -0.446 OA
ENDBRANCH  25  27
ENDBRANCH  23  24
ENDBRANCH  22  23
TORSDOF 5
ENDMDL
MODEL 3
REMARK VINA RESULT:     -10.6      2.571      3.779
REMARK  Name = 
REMARK  5 active torsions:
REMARK  status: ('A' for Active; 'I' for Inactive)
REMARK    1  A    between atoms: C_4  and  C_15
REMARK    2  A    between atoms: C_6  and  C_8
REMARK    3  A    between atoms: C_22  and  C_23
REMARK    4  A    between atoms: C_23  and  N_24
REMARK    5  A    between atoms: C_25  and  C_27
REMARK                            x       y       z     vdW  Elec       q    Type
REMARK                         _______ _______ _______ _____ _____    ______ ____
ROOT
ATOM     15  C   UNL     1      -0.761   0.116  24.947  0.00  0.00    +0.056 C 
ATOM     16  C   UNL     1      -0.926   0.537  25.581  0.00  0.00    +0.078 C 
ATOM     17  N   UNL     1      -0.517   0.800  24.914  0.00  0.00    -0.272 NA
ATOM     18  C   UNL     1      -0.464  -0.006  24.245  0.00  0.00    +0.072 C 
ATOM     19  C   UNL     1      -0.273  -0.258  23.673  0.00  0.00    +0.018 C 
ATOM     20  C   UNL     1      -0.360   0.382  24.296  0.00  0.00    +0.010 C 
ATOM     21  C   UNL     1      -0.006   1.161  24.101  0.00  0.00    +0.018 C 
ATOM     22  C   UNL     1      -0.147   1.607  24.704  0.00  0.00    +0.079 C 
ENDROOT
BRANCH  15   4
ATOM      1  C   UNL     1      -0.247  -2.663  25.377  0.00  0.00    +0.074 C 
ATOM      2  C   UNL     1      -0.761  -2.058  25.152  0.00  0.00    +0.139 A 
ATOM      3  N   UNL     1      -0.504  -1.274  25.162  0.00  0.00    -0.235 NA
ATOM      4  C   UNL     1      -1.018  -0.669  24.937  0.00  0.00    +0.063 A 
ATOM      5  C   UNL     1      -1.788  -0.847  24.702  0.00  0.00    +0.034 A 
ATOM      6  C   UNL     1      -2.045  -1.631  24.692  0.00  0.00    +0.084 A 
ATOM      7  N   UNL     1      -1.531  -2.236  24.917  0.00  0.00    -0.231 NA
BRANCH   6   8
ATOM      8  C   UNL     1      -2.815  -1.811  24.457  0.00  0.00    +0.018 A 
ATOM      9  C   UNL     1      -3.395  -1.224  24.464  0.00  0.00    +0.004 A 
ATOM     10  C   UNL     1      -4.166  -1.403  24.229  0.00  0.00    +0.030 A 
ATOM     11  C   UNL     1      -4.356  -2.169  23.987  0.00  0.00    +0.140 A 
ATOM     12  F   UNL     1      -5.126  -2.348  23.752  0.00  0.00    -0.204 F 
ATOM     13  C   UNL     1      -3.776  -2.755  23.981  0.00  0.00    +0.030 A 
ATOM     14  C   UNL     1      -3.005  -2.576  24.216  0.00  0.00    +0.004 A 
ENDBRANCH   6   8
ENDBRANCH  15   4
BRANCH  22  23
ATOM     23  C   UNL     1      -0.032   2.370  24.994  0.00  0.00    +0.131 C 
BRANCH  23  24
ATOM     24  N   UNL     1      -0.647   2.920  24.965  0.00  0.00    -0.198 NA
ATOM     25  C   UNL     1      -0.550   3.665  25.306  0.00  0.00    +0.300 C 
ATOM     26  O   UNL     1       0.161   3.860  25.677  0.00  0.00    -0.265 OA
BRANCH  25  27
ATOM     27  C   UNL     1      -1.164   4.215  25.276  0.00  0.00    +0.200 A 
ATOM     28  C   UNL     1      -1.111   4.986  24.989  0.00  0.00    +0.046 A 
ATOM     29  C   UNL     1      -1.853   5.338  25.063  0.00  0.00    +0.044 A 
ATOM     30  C   UNL     1      -2.365   4.784  25.398  0.00  0.00    +0.180 A 
ATOM     31  O   UNL     1      -1.939   4.090  25.529  0.00  0.00    -0.446 OA
ENDBRANCH  25  27
ENDBRANCH  23  24
ENDBRANCH  22  23
TORSDOF 5
ENDMDL
MODEL 4
REMARK VINA RESULT:     -10.6      2.377      3.340
REMARK  Name = 
REMARK  5 active torsions:
REMARK  status: ('A' for Active; 'I' for Inactive)
REMARK    1  A    between atoms: C_4  and  C_15
REMARK    2  A    between atoms: C_6  and  C_8
REMARK    3  A    between atoms: C_22  and  C_23
REMARK    4  A    between atoms: C_23  and  N_24
REMARK    5  A    between atoms: C_25  and  C_27
REMARK                            x       y       z     vdW  Elec       q    Type
REMARK                         _______ _______ _______ _____ _____    ______ ____
ROOT
ATOM     15  C   UNL     1      -0.948   0.715  23.865  0.00  0.00    +0.056 C 
ATOM     16  C   UNL     1      -0.759   0.986  23.161  0.00  0.00    +0.078 C 
ATOM     17  N   UNL     1      -0.329   0.438  23.603  0.00  0.00    -0.272 NA
ATOM     18  C   UNL     1      -0.851   0.286  24.500  0.00  0.00    +0.072 C 
ATOM     19  C   UNL     1      -0.908  -0.007  25.081  0.00  0.00    +0.018 C 
ATOM     20  C   UNL     1      -0.521   0.176  24.293  0.00  0.00    +0.010 C 
ATOM     21  C   UNL     1       0.230  -0.246  24.126  0.00  0.00    +0.018 C 
ATOM     22  C   UNL     1       0.452  -0.004  23.436  0.00  0.00    +0.079 C 
ENDROOT
BRANCH  15   4
ATOM      1  C   UNL     1      -3.666   0.309  24.651  0.00  0.00    +0.074 C 
ATOM      2  C   UNL     1      -3.003   0.797  24.599  0.00  0.00    +0.139 A 
ATOM      3  N   UNL     1      -2.308   0.512  24.259  0.00  0.00    -0.235 NA
ATOM      4  C   UNL     1      -1.644   1.000  24.206  0.00  0.00    +0.063 A 
ATOM      5  C   UNL     1      -1.676   1.772  24.493  0.00  0.00    +0.034 A 
ATOM      6  C   UNL     1      -2.371   2.057  24.833  0.00  0.00    +0.084 A 
ATOM      7  N   UNL     1      -3.035   1.570  24.886  0.00  0.00    -0.231 NA
BRANCH   6   8
ATOM      8  C   UNL     1      -2.404   2.830  25.121  0.00  0.00    +0.018 A 
ATOM      9  C   UNL     1      -2.025   3.023  25.828  0.00  0.00    +0.004 A 
ATOM     10  C   UNL     1      -2.058   3.795  26.117  0.00  0.00    +0.030 A 
ATOM     11  C   UNL     1      -2.469   4.375  25.697  0.00  0.00    +0.140 A 
ATOM     12  F   UNL     1      -2.502   5.147  25.985  0.00  0.00    -0.204 F 
ATOM     13  C   UNL     1      -2.848   4.181  24.991  0.00  0.00    +0.030 A 
ATOM     14  C   UNL     1      -2.815   3.409  24.702  0.00  0.00    +0.004 A 
ENDBRANCH   6   8
ENDBRANCH  15   4
BRANCH  22  23
ATOM     23  C   UNL     1       1.046  -0.092  22.872  0.00  0.00    +0.131 C 
BRANCH  23  24
ATOM     24  N   UNL     1       1.830   0.075  23.068  0.00  0.00    -0.198 NA
ATOM     25  C   UNL     1       2.411   0.069  22.483  0.00  0.00    +0.300 C 
ATOM     26  O   UNL     1       2.210  -0.105  21.702  0.00  0.00    -0.265 OA
BRANCH  25  27
ATOM     27  C   UNL     1       3.195   0.236  22.680  0.00  0.00    +0.200 A 
ATOM     28  C   UNL     1       3.567   0.969  22.611  0.00  0.00    +0.046 A 
ATOM     29  C   UNL     1       4.346   0.886  22.868  0.00  0.00    +0.044 A 
ATOM     30  C   UNL     1       4.456   0.101  23.096  0.00  0.00    +0.180 A 
ATOM     31  O   UNL     1       3.745  -0.301  22.979  0.00  0.00    -0.446 OA
ENDBRANCH  25  27
ENDBRANCH  23  24
ENDBRANCH  22  23
TORSDOF 5
ENDMDL
MODEL 5
REMARK VINA RESULT:     -10.6      2.263      2.854
REMARK  Name = 
REMARK  5 active torsions:
REMARK  status: ('A' for Active; 'I' for Inactive)
REMARK    1  A    between atoms: C_4  and  C_15
REMARK    2  A    between atoms: C_6  and  C_8
REMARK    3  A    between atoms: C_22  and  C_23
REMARK    4  A    between atoms: C_23  and  N_24
REMARK    5  A    between atoms: C_25  and  C_27
REMARK                            x       y       z     vdW  Elec       q    Type
REMARK                         _______ _______ _______ _____ _____    ______ ____
ROOT
ATOM     15  C   UNL     1      -1.241   0.416  23.959  0.00  0.00    +0.056 C 
ATOM     16  C   UNL     1      -1.198   0.375  23.183  0.00  0.00    +0.078 C 
ATOM     17  N   UNL     1      -0.567   0.305  23.711  0.00  0.00    -0.272 NA
ATOM     18  C   UNL     1      -0.960   0.407  24.678  0.00  0.00    +0.072 C 
ATOM     19  C   UNL     1      -0.877   0.424  25.326  0.00  0.00    +0.018 C 
ATOM     20  C   UNL     1      -0.617   0.347  24.471  0.00  0.00    +0.010 C 
ATOM     21  C   UNL     1       0.240   0.214  24.338  0.00  0.00    +0.018 C 
ATOM     22  C   UNL     1       0.326   0.167  23.581  0.00  0.00    +0.079 C 
ENDROOT
BRANCH  15   4
ATOM      1  C   UNL     1      -3.565  -0.595  25.281  0.00  0.00    +0.074 C 
ATOM      2  C   UNL     1      -3.149   0.036  24.950  0.00  0.00    +0.139 A 
ATOM      3  N   UNL     1      -2.404  -0.089  24.620  0.00  0.00    -0.235 NA
ATOM      4  C   UNL     1      -1.988   0.542  24.290  0.00  0.00    +0.063 A 
ATOM      5  C   UNL     1      -2.317   1.298  24.289  0.00  0.00    +0.034 A 
ATOM      6  C   UNL     1      -3.062   1.423  24.619  0.00  0.00    +0.084 A 
ATOM      7  N   UNL     1      -3.479   0.793  24.950  0.00  0.00    -0.231 NA
BRANCH   6   8
ATOM      8  C   UNL     1      -3.392   2.179  24.618  0.00  0.00    +0.018 A 
ATOM      9  C   UNL     1      -3.750   2.473  23.935  0.00  0.00    +0.004 A 
ATOM     10  C   UNL     1      -4.081   3.229  23.934  0.00  0.00    +0.030 A 
ATOM     11  C   UNL     1      -4.053   3.692  24.617  0.00  0.00    +0.140 A 
ATOM     12  F   UNL     1      -4.383   4.448  24.615  0.00  0.00    -0.204 F 
ATOM     13  C   UNL     1      -3.695   3.399  25.299  0.00  0.00    +0.030 A 
ATOM     14  C   UNL     1      -3.364   2.642  25.300  0.00  0.00    +0.004 A 
ENDBRANCH   6   8
ENDBRANCH  15   4
BRANCH  22  23
ATOM     23  C   UNL     1       0.892   0.056  22.993  0.00  0.00    +0.131 C 
BRANCH  23  24
ATOM     24  N   UNL     1       1.689   0.195  23.155  0.00  0.00    -0.198 NA
ATOM     25  C   UNL     1       2.252   0.111  22.558  0.00  0.00    +0.300 C 
ATOM     26  O   UNL     1       2.018  -0.111  21.799  0.00  0.00    -0.265 OA
BRANCH  25  27
ATOM     27  C   UNL     1       3.049   0.249  22.720  0.00  0.00    +0.200 A 
ATOM     28  C   UNL     1       3.449   0.962  22.615  0.00  0.00    +0.046 A 
ATOM     29  C   UNL     1       4.233   0.852  22.846  0.00  0.00    +0.044 A 
ATOM     30  C   UNL     1       4.318   0.070  23.095  0.00  0.00    +0.180 A 
ATOM     31  O   UNL     1       3.586  -0.303  23.017  0.00  0.00    -0.446 OA
ENDBRANCH  25  27
ENDBRANCH  23  24
ENDBRANCH  22  23
TORSDOF 5
ENDMDL
MODEL 6
REMARK VINA RESULT:     -10.5      4.053      5.942
REMARK  Name = 
REMARK  5 active torsions:
REMARK  status: ('A' for Active; 'I' for Inactive)
REMARK    1  A    between atoms: C_4  and  C_15
REMARK    2  A    between atoms: C_6  and  C_8
REMARK    3  A    between atoms: C_22  and  C_23
REMARK    4  A    between atoms: C_23  and  N_24
REMARK    5  A    between atoms: C_25  and  C_27
REMARK                            x       y       z     vdW  Elec       q    Type
REMARK                         _______ _______ _______ _____ _____    ______ ____
ROOT
ATOM     15  C   UNL     1      -3.834   1.650  24.961  0.00  0.00    +0.056 C 
ATOM     16  C   UNL     1      -3.629   1.161  25.531  0.00  0.00    +0.078 C 
ATOM     17  N   UNL     1      -3.868   0.950  24.769  0.00  0.00    -0.272 NA
ATOM     18  C   UNL     1      -4.072   1.839  24.251  0.00  0.00    +0.072 C 
ATOM     19  C   UNL     1      -4.261   2.149  23.708  0.00  0.00    +0.018 C 
ATOM     20  C   UNL     1      -4.067   1.436  24.216  0.00  0.00    +0.010 C 
ATOM     21  C   UNL     1      -4.161   0.652  23.832  0.00  0.00    +0.018 C 
ATOM     22  C   UNL     1      -3.968   0.139  24.363  0.00  0.00    +0.079 C 
ENDROOT
BRANCH  15   4
ATOM      1  C   UNL     1      -5.167   4.051  25.757  0.00  0.00    +0.074 C 
ATOM      2  C   UNL     1      -4.478   3.658  25.529  0.00  0.00    +0.139 A 
ATOM      3  N   UNL     1      -4.500   2.851  25.359  0.00  0.00    -0.235 NA
ATOM      4  C   UNL     1      -3.811   2.459  25.131  0.00  0.00    +0.063 A 
ATOM      5  C   UNL     1      -3.101   2.872  25.072  0.00  0.00    +0.034 A 
ATOM      6  C   UNL     1      -3.078   3.679  25.242  0.00  0.00    +0.084 A 
ATOM      7  N   UNL     1      -3.766   4.072  25.470  0.00  0.00    -0.231 NA
BRANCH   6   8
ATOM      8  C   UNL     1      -2.367   4.093  25.184  0.00  0.00    +0.018 A 
ATOM      9  C   UNL     1      -1.657   3.725  25.386  0.00  0.00    +0.004 A 
ATOM     10  C   UNL     1      -0.946   4.139  25.328  0.00  0.00    +0.030 A 
ATOM     11  C   UNL     1      -0.945   4.922  25.068  0.00  0.00    +0.140 A 
ATOM     12  F   UNL     1      -0.233   5.336  25.010  0.00  0.00    -0.204 F 
ATOM     13  C   UNL     1      -1.654   5.290  24.865  0.00  0.00    +0.030 A 
ATOM     14  C   UNL     1      -2.366   4.876  24.923  0.00  0.00    +0.004 A 
ENDBRANCH   6   8
ENDBRANCH  15   4
BRANCH  22  23
ATOM     23  C   UNL     1      -3.893  -0.672  24.493  0.00  0.00    +0.131 C 
BRANCH  23  24
ATOM     24  N   UNL     1      -3.154  -1.034  24.431  0.00  0.00    -0.198 NA
ATOM     25  C   UNL     1      -3.070  -1.833  24.618  0.00  0.00    +0.300 C 
ATOM     26  O   UNL     1      -3.724  -2.270  24.866  0.00  0.00    -0.265 OA
BRANCH  25  27
ATOM     27  C   UNL     1      -2.331  -2.195  24.556  0.00  0.00    +0.200 A 
ATOM     28  C   UNL     1      -1.656  -1.997  24.987  0.00  0.00    +0.046 A 
ATOM     29  C   UNL     1      -1.046  -2.498  24.750  0.00  0.00    +0.044 A 
ATOM     30  C   UNL     1      -1.343  -3.006  24.172  0.00  0.00    +0.180 A 
ATOM     31  O   UNL     1      -2.137  -2.818  24.052  0.00  0.00    -0.446 OA
ENDBRANCH  25  27
ENDBRANCH  23  24
ENDBRANCH  22  23
TORSDOF 5
ENDMDL
MODEL 7
REMARK VINA RESULT:     -10.3      3.347      5.266
REMARK  Name = 
REMARK  5 active torsions:
REMARK  status: ('A' for Active; 'I' for Inactive)
REMARK    1  A    between atoms: C_4  and  C_15
REMARK    2  A    between atoms: C_6  and  C_8
REMARK    3  A    between atoms: C_22  and  C_23
REMARK    4  A    between atoms: C_23  and  N_24
REMARK    5  A    between atoms: C_25  and  C_27
REMARK                            x       y       z     vdW  Elec       q    Type
REMARK                         _______ _______ _______ _____ _____    ______ ____
ROOT
ATOM     15  C   UNL     1      -1.450   1.556  24.884  0.00  0.00    +0.056 C 
ATOM     16  C   UNL     1      -1.746   1.127  24.307  0.00  0.00    +0.078 C 
ATOM     17  N   UNL     1      -1.256   0.856  24.913  0.00  0.00    -0.272 NA
ATOM     18  C   UNL     1      -1.035   1.680  25.523  0.00  0.00    +0.072 C 
ATOM     19  C   UNL     1      -0.735   1.937  26.044  0.00  0.00    +0.018 C 
ATOM     20  C   UNL     1      -0.969   1.283  25.476  0.00  0.00    +0.010 C 
ATOM     21  C   UNL     1      -0.648   0.486  25.652  0.00  0.00    +0.018 C 
ATOM     22  C   UNL     1      -0.918   0.030  25.102  0.00  0.00    +0.079 C 
ENDROOT
BRANCH  15   4
ATOM      1  C   UNL     1      -0.661   4.294  24.652  0.00  0.00    +0.074 C 
ATOM      2  C   UNL     1      -1.248   3.728  24.779  0.00  0.00    +0.139 A 
ATOM      3  N   UNL     1      -1.056   2.926  24.768  0.00  0.00    -0.235 NA
ATOM      4  C   UNL     1      -1.643   2.359  24.895  0.00  0.00    +0.063 A 
ATOM      5  C   UNL     1      -2.420   2.595  25.033  0.00  0.00    +0.034 A 
ATOM      6  C   UNL     1      -2.613   3.397  25.044  0.00  0.00    +0.084 A 
ATOM      7  N   UNL     1      -2.027   3.963  24.917  0.00  0.00    -0.231 NA
BRANCH   6   8
ATOM      8  C   UNL     1      -3.391   3.633  25.182  0.00  0.00    +0.018 A 
ATOM      9  C   UNL     1      -3.933   3.651  24.560  0.00  0.00    +0.004 A 
ATOM     10  C   UNL     1      -4.711   3.888  24.697  0.00  0.00    +0.030 A 
ATOM     11  C   UNL     1      -4.948   4.107  25.457  0.00  0.00    +0.140 A 
ATOM     12  F   UNL     1      -5.726   4.343  25.594  0.00  0.00    -0.204 F 
ATOM     13  C   UNL     1      -4.406   4.089  26.078  0.00  0.00    +0.030 A 
ATOM     14  C   UNL     1      -3.628   3.852  25.941  0.00  0.00    +0.004 A 
ENDBRANCH   6   8
ENDBRANCH  15   4
BRANCH  22  23
ATOM     23  C   UNL     1      -0.909  -0.750  24.836  0.00  0.00    +0.131 C 
BRANCH  23  24
ATOM     24  N   UNL     1      -1.619  -1.154  24.717  0.00  0.00    -0.198 NA
ATOM     25  C   UNL     1      -1.626  -1.979  24.706  0.00  0.00    +0.300 C 
ATOM     26  O   UNL     1      -0.925  -2.400  24.815  0.00  0.00    -0.265 OA
BRANCH  25  27
ATOM     27  C   UNL     1      -2.336  -2.383  24.587  0.00  0.00    +0.200 A 
ATOM     28  C   UNL     1      -2.994  -2.365  25.084  0.00  0.00    +0.046 A 
ATOM     29  C   UNL     1      -3.576  -2.847  24.754  0.00  0.00    +0.044 A 
ATOM     30  C   UNL     1      -3.279  -3.162  24.052  0.00  0.00    +0.180 A 
ATOM     31  O   UNL     1      -2.512  -2.875  23.949  0.00  0.00    -0.446 OA
ENDBRANCH  25  27
ENDBRANCH  23  24
ENDBRANCH  22  23
TORSDOF 5
ENDMDL
