REMARK  Name = 
REMARK  5 active torsions:
REMARK  status: ('A' for Active; 'I' for Inactive)
REMARK    1  A    between atoms: C_2  and  C_3
REMARK    2  A    between atoms: C_10  and  C_11
REMARK    3  A    between atoms: C_11  and  N_12
REMARK    4  A    between atoms: N_12  and  C_13
REMARK    5  A    between atoms: C_13  and  C_14
REMARK                            x       y       z     vdW  Elec       q    Type
REMARK                         _______ _______ _______ _____ _____    ______ ____
ROOT
ATOM     11  C   UNL     1       1.429  -2.475   0.000  0.00  0.00    +0.105 C 
ENDROOT
BRANCH  11  10
ATOM      3  C   UNL     1       2.903  -4.331   0.000  0.00  0.00    +0.038 C 
ATOM      4  C   UNL     1       2.138  -4.475   0.000  0.00  0.00    +0.076 C 
ATOM      5  N   UNL     1       2.493  -3.731   0.000  0.00  0.00    -0.272 NA
ATOM      6  C   UNL     1       3.530  -3.881   0.000  0.00  0.00    +0.072 C 
ATOM      7  C   UNL     1       4.139  -3.643   0.000  0.00  0.00    +0.018 C 
ATOM      8  C   UNL     1       3.243  -3.596   0.000  0.00  0.00    +0.008 C 
ATOM      9  C   UNL     1       2.900  -2.788   0.000  0.00  0.00    +0.018 C 
ATOM     10  C   UNL     1       2.143  -2.888   0.000  0.00  0.00    +0.075 C 
BRANCH   3   2
ATOM      1  C   UNL     1       4.227  -4.868   0.000  0.00  0.00    -0.005 C 
ATOM      2  C   UNL     1       3.410  -4.982   0.000  0.00  0.00    -0.025 C 
ENDBRANCH   3   2
ENDBRANCH  11  10
BRANCH  11  12
ATOM     12  N   UNL     1       1.429  -1.650   0.000  0.00  0.00    -0.212 NA
BRANCH  12  13
ATOM     13  C   UNL     1       0.715  -1.238   0.000  0.00  0.00    +0.115 C 
BRANCH  13  14
ATOM     14  C   UNL     1       0.715  -0.412   0.000  0.00  0.00    -0.002 A 
ATOM     15  C   UNL     1       0.000   0.000   0.000  0.00  0.00    +0.000 A 
ATOM     16  C   UNL     1       0.000   0.825   0.000  0.00  0.00    +0.040 A 
ATOM     17  C   UNL     1       0.715   1.238   0.000  0.00  0.00    +0.176 A 
ATOM     18  O   UNL     1       0.886   2.045   0.000  0.00  0.00    -0.435 OA
ATOM     19  C   UNL     1       1.706   2.131   0.000  0.00  0.00    +0.429 C 
ATOM     20  O   UNL     1       2.042   1.377   0.000  0.00  0.00    -0.435 OA
ATOM     21  C   UNL     1       1.429   0.825   0.000  0.00  0.00    +0.176 A 
ATOM     22  C   UNL     1       1.429   0.000   0.000  0.00  0.00    +0.037 A 
ENDBRANCH  13  14
ENDBRANCH  12  13
ENDBRANCH  11  12
TORSDOF 5
