MODEL 1
REMARK VINA RESULT:     -17.0      0.000      0.000
REMARK  Name = 
REMARK  3 active torsions:
REMARK  status: ('A' for Active; 'I' for Inactive)
REMARK    1  A    between atoms: C_5  and  C_6
REMARK    2  A    between atoms: C_7  and  C_8
REMARK    3  A    between atoms: C_18  and  C_20
REMARK                            x       y       z     vdW  Elec       q    Type
REMARK                         _______ _______ _______ _____ _____    ______ ____
ROOT
ATOM      8  C   UNL     1      -4.212   1.071  24.919  0.00  0.00    +0.056 A 
ATOM      9  C   UNL     1      -5.026   1.174  25.004  0.00  0.00    +0.006 A 
ATOM     10  C   UNL     1      -5.335   1.927  25.137  0.00  0.00    +0.013 A 
ATOM     11  C   UNL     1      -4.830   2.577  25.185  0.00  0.00    +0.041 A 
ATOM     12  C   UNL     1      -4.848   3.487  25.315  0.00  0.00    +0.058 C 
ATOM     13  C   UNL     1      -5.293   4.018  25.428  0.00  0.00    +0.011 C 
ATOM     14  C   UNL     1      -4.489   3.912  25.344  0.00  0.00    +0.043 C 
ATOM     15  C   UNL     1      -3.507   3.989  25.270  0.00  0.00    +0.095 C 
ATOM     16  N   UNL     1      -3.313   3.187  25.140  0.00  0.00    -0.279 N 
ATOM     17  C   UNL     1      -3.900   3.577  25.246  0.00  0.00    +0.099 C 
ATOM     18  C   UNL     1      -2.846   2.519  25.006  0.00  0.00    +0.225 C 
ATOM     19  O   UNL     1      -3.199   1.777  24.932  0.00  0.00    -0.275 OA
ATOM     26  C   UNL     1      -4.460   2.963  25.207  0.00  0.00    +0.110 C 
ATOM     27  N   UNL     1      -4.016   2.474  25.100  0.00  0.00    -0.299 N 
ATOM     28  C   UNL     1      -3.706   1.721  24.967  0.00  0.00    +0.261 A 
ATOM     29  O   UNL     1      -2.967   1.373  24.855  0.00  0.00    -0.267 OA
ENDROOT
BRANCH  18  20
ATOM     20  C   UNL     1      -2.027   2.595  24.946  0.00  0.00    +0.077 C 
ATOM     21  C   UNL     1      -1.675   2.695  24.208  0.00  0.00    +0.009 C 
ATOM     22  C   UNL     1      -0.855   2.770  24.148  0.00  0.00    +0.000 C 
ATOM     23  C   UNL     1      -0.388   2.746  24.828  0.00  0.00    +0.000 C 
ATOM     24  C   UNL     1      -0.740   2.646  25.566  0.00  0.00    +0.000 C 
ATOM     25  C   UNL     1      -1.560   2.570  25.626  0.00  0.00    +0.009 C 
ENDBRANCH  18  20
BRANCH   8   7
ATOM      6  C   UNL     1      -4.392  -0.345  24.843  0.00  0.00    +0.000 C 
ATOM      7  C   UNL     1      -3.903   0.317  24.786  0.00  0.00    +0.005 C 
BRANCH   6   5
ATOM      1 CL   UNL     1      -3.157  -3.358  24.311  0.00  0.00    -0.082 Cl
ATOM      2  C   UNL     1      -3.465  -2.605  24.444  0.00  0.00    +0.058 A 
ATOM      3  C   UNL     1      -3.322  -2.221  25.159  0.00  0.00    +0.011 A 
ATOM      4  C   UNL     1      -3.630  -1.468  25.292  0.00  0.00    +0.001 A 
ATOM      5  C   UNL     1      -4.083  -1.099  24.710  0.00  0.00    +0.000 A 
ATOM     30  C   UNL     1      -4.227  -1.482  23.994  0.00  0.00    +0.001 A 
ATOM     31  C   UNL     1      -3.918  -2.237  23.861  0.00  0.00    +0.011 A 
ENDBRANCH   6   5
ENDBRANCH   8   7
TORSDOF 3
ENDMDL
MODEL 2
REMARK VINA RESULT:     -15.1      1.153      2.799
REMARK  Name = 
REMARK  3 active torsions:
REMARK  status: ('A' for Active; 'I' for Inactive)
REMARK    1  A    between atoms: C_5  and  C_6
REMARK    2  A    between atoms: C_7  and  C_8
REMARK    3  A    between atoms: C_18  and  C_20
REMARK                            x       y       z     vdW  Elec       q    Type
REMARK                         _______ _______ _______ _____ _____    ______ ____
ROOT
ATOM      8  C   UNL     1      -1.950   0.600  25.126  0.00  0.00    +0.056 A 
ATOM      9  C   UNL     1      -1.201   0.328  25.340  0.00  0.00    +0.006 A 
ATOM     10  C   UNL     1      -0.621   0.862  25.582  0.00  0.00    +0.013 A 
ATOM     11  C   UNL     1      -0.790   1.669  25.610  0.00  0.00    +0.041 A 
ATOM     12  C   UNL     1      -0.398   2.473  25.819  0.00  0.00    +0.058 C 
ATOM     13  C   UNL     1       0.208   2.748  26.043  0.00  0.00    +0.011 C 
ATOM     14  C   UNL     1      -0.532   3.014  25.831  0.00  0.00    +0.043 C 
ATOM     15  C   UNL     1      -1.353   3.522  25.618  0.00  0.00    +0.095 C 
ATOM     16  N   UNL     1      -1.853   2.892  25.392  0.00  0.00    -0.279 N 
ATOM     17  C   UNL     1      -1.182   2.978  25.617  0.00  0.00    +0.099 C 
ATOM     18  C   UNL     1      -2.534   2.505  25.133  0.00  0.00    +0.225 C 
ATOM     19  O   UNL     1      -2.536   1.684  25.048  0.00  0.00    -0.275 OA
ATOM     26  C   UNL     1      -0.951   2.178  25.610  0.00  0.00    +0.110 C 
ATOM     27  N   UNL     1      -1.539   1.941  25.396  0.00  0.00    -0.299 N 
ATOM     28  C   UNL     1      -2.119   1.407  25.154  0.00  0.00    +0.261 A 
ATOM     29  O   UNL     1      -2.904   1.427  24.903  0.00  0.00    -0.267 OA
ENDROOT
BRANCH  18  20
ATOM     20  C   UNL     1      -3.213   2.939  24.958  0.00  0.00    +0.077 C 
ATOM     21  C   UNL     1      -3.353   3.193  24.186  0.00  0.00    +0.009 C 
ATOM     22  C   UNL     1      -4.033   3.628  24.011  0.00  0.00    +0.000 C 
ATOM     23  C   UNL     1      -4.572   3.808  24.609  0.00  0.00    +0.000 C 
ATOM     24  C   UNL     1      -4.433   3.554  25.380  0.00  0.00    +0.000 C 
ATOM     25  C   UNL     1      -3.753   3.119  25.556  0.00  0.00    +0.009 C 
ENDBRANCH  18  20
BRANCH   8   7
ATOM      6  C   UNL     1      -2.342  -0.732  24.790  0.00  0.00    +0.000 C 
ATOM      7  C   UNL     1      -2.529   0.065  24.885  0.00  0.00    +0.005 C 
BRANCH   6   5
ATOM      1 CL   UNL     1      -4.661  -2.871  23.823  0.00  0.00    -0.082 Cl
ATOM      2  C   UNL     1      -4.082  -2.336  24.065  0.00  0.00    +0.058 A 
ATOM      3  C   UNL     1      -4.069  -1.573  23.753  0.00  0.00    +0.011 A 
ATOM      4  C   UNL     1      -3.489  -1.038  23.995  0.00  0.00    +0.001 A 
ATOM      5  C   UNL     1      -2.922  -1.267  24.548  0.00  0.00    +0.000 A 
ATOM     30  C   UNL     1      -2.934  -2.031  24.860  0.00  0.00    +0.001 A 
ATOM     31  C   UNL     1      -3.514  -2.566  24.618  0.00  0.00    +0.011 A 
ENDBRANCH   6   5
ENDBRANCH   8   7
TORSDOF 3
ENDMDL
MODEL 3
REMARK VINA RESULT:     -15.0      1.694      3.108
REMARK  Name = 
REMARK  3 active torsions:
REMARK  status: ('A' for Active; 'I' for Inactive)
REMARK    1  A    between atoms: C_5  and  C_6
REMARK    2  A    between atoms: C_7  and  C_8
REMARK    3  A    between atoms: C_18  and  C_20
REMARK                            x       y       z     vdW  Elec       q    Type
REMARK                         _______ _______ _______ _____ _____    ______ ____
ROOT
ATOM      8  C   UNL     1      -1.310   2.045  25.070  0.00  0.00    +0.056 A 
ATOM      9  C   UNL     1      -0.539   2.341  25.064  0.00  0.00    +0.006 A 
ATOM     10  C   UNL     1      -0.409   3.155  25.082  0.00  0.00    +0.013 A 
ATOM     11  C   UNL     1      -1.050   3.674  25.105  0.00  0.00    +0.041 A 
ATOM     12  C   UNL     1      -1.239   4.573  25.131  0.00  0.00    +0.058 C 
ATOM     13  C   UNL     1      -0.927   5.202  25.141  0.00  0.00    +0.011 C 
ATOM     14  C   UNL     1      -1.686   4.907  25.146  0.00  0.00    +0.043 C 
ATOM     15  C   UNL     1      -2.661   4.748  25.158  0.00  0.00    +0.095 C 
ATOM     16  N   UNL     1      -2.667   3.913  25.137  0.00  0.00    -0.279 N 
ATOM     17  C   UNL     1      -2.184   4.436  25.142  0.00  0.00    +0.099 C 
ATOM     18  C   UNL     1      -2.971   3.145  25.123  0.00  0.00    +0.225 C 
ATOM     19  O   UNL     1      -2.458   2.499  25.099  0.00  0.00    -0.275 OA
ATOM     26  C   UNL     1      -1.498   3.965  25.120  0.00  0.00    +0.110 C 
ATOM     27  N   UNL     1      -1.820   3.379  25.111  0.00  0.00    -0.299 N 
ATOM     28  C   UNL     1      -1.950   2.565  25.093  0.00  0.00    +0.261 A 
ATOM     29  O   UNL     1      -2.592   2.046  25.090  0.00  0.00    -0.267 OA
ENDROOT
BRANCH  18  20
ATOM     20  C   UNL     1      -3.786   3.024  25.133  0.00  0.00    +0.077 C 
ATOM     21  C   UNL     1      -4.186   2.843  24.435  0.00  0.00    +0.009 C 
ATOM     22  C   UNL     1      -5.002   2.722  24.445  0.00  0.00    +0.000 C 
ATOM     23  C   UNL     1      -5.418   2.782  25.155  0.00  0.00    +0.000 C 
ATOM     24  C   UNL     1      -5.020   2.964  25.853  0.00  0.00    +0.000 C 
ATOM     25  C   UNL     1      -4.204   3.085  25.843  0.00  0.00    +0.009 C 
ENDBRANCH  18  20
BRANCH   8   7
ATOM      6  C   UNL     1      -0.799   0.711  25.082  0.00  0.00    +0.000 C 
ATOM      7  C   UNL     1      -1.439   1.231  25.052  0.00  0.00    +0.005 C 
BRANCH   6   5
ATOM      1 CL   UNL     1      -1.318  -2.547  25.009  0.00  0.00    -0.082 Cl
ATOM      2  C   UNL     1      -1.189  -1.733  25.028  0.00  0.00    +0.058 A 
ATOM      3  C   UNL     1      -1.326  -1.309  25.721  0.00  0.00    +0.011 A 
ATOM      4  C   UNL     1      -1.197  -0.494  25.739  0.00  0.00    +0.001 A 
ATOM      5  C   UNL     1      -0.929  -0.104  25.063  0.00  0.00    +0.000 A 
ATOM     30  C   UNL     1      -0.791  -0.528  24.369  0.00  0.00    +0.001 A 
ATOM     31  C   UNL     1      -0.921  -1.343  24.351  0.00  0.00    +0.011 A 
ENDBRANCH   6   5
ENDBRANCH   8   7
TORSDOF 3
ENDMDL
MODEL 4
REMARK VINA RESULT:     -14.6      2.142      4.244
REMARK  Name = 
REMARK  3 active torsions:
REMARK  status: ('A' for Active; 'I' for Inactive)
REMARK    1  A    between atoms: C_5  and  C_6
REMARK    2  A    between atoms: C_7  and  C_8
REMARK    3  A    between atoms: C_18  and  C_20
REMARK                            x       y       z     vdW  Elec       q    Type
REMARK                         _______ _______ _______ _____ _____    ______ ____
ROOT
ATOM      8  C   UNL     1      -3.695   0.096  24.920  0.00  0.00    +0.056 A 
ATOM      9  C   UNL     1      -4.225  -0.537  24.921  0.00  0.00    +0.006 A 
ATOM     10  C   UNL     1      -3.948  -1.307  24.818  0.00  0.00    +0.013 A 
ATOM     11  C   UNL     1      -3.142  -1.445  24.715  0.00  0.00    +0.041 A 
ATOM     12  C   UNL     1      -2.547  -2.133  24.584  0.00  0.00    +0.058 C 
ATOM     13  C   UNL     1      -2.518  -2.831  24.515  0.00  0.00    +0.011 C 
ATOM     14  C   UNL     1      -1.998  -2.204  24.515  0.00  0.00    +0.043 C 
ATOM     15  C   UNL     1      -1.224  -1.590  24.485  0.00  0.00    +0.095 C 
ATOM     16  N   UNL     1      -1.619  -0.863  24.598  0.00  0.00    -0.279 N 
ATOM     17  C   UNL     1      -1.789  -1.553  24.552  0.00  0.00    +0.099 C 
ATOM     18  C   UNL     1      -1.721  -0.048  24.685  0.00  0.00    +0.225 C 
ATOM     19  O   UNL     1      -2.478   0.262  24.799  0.00  0.00    -0.275 OA
ATOM     26  C   UNL     1      -2.612  -1.479  24.652  0.00  0.00    +0.110 C 
ATOM     27  N   UNL     1      -2.612  -0.813  24.714  0.00  0.00    -0.299 N 
ATOM     28  C   UNL     1      -2.888  -0.042  24.817  0.00  0.00    +0.261 A 
ATOM     29  O   UNL     1      -2.578   0.721  24.853  0.00  0.00    -0.267 OA
ENDROOT
BRANCH  18  20
ATOM     20  C   UNL     1      -1.069   0.455  24.658  0.00  0.00    +0.077 C 
ATOM     21  C   UNL     1      -0.757   0.764  25.356  0.00  0.00    +0.009 C 
ATOM     22  C   UNL     1      -0.104   1.268  25.330  0.00  0.00    +0.000 C 
ATOM     23  C   UNL     1       0.238   1.461  24.604  0.00  0.00    +0.000 C 
ATOM     24  C   UNL     1      -0.073   1.152  23.906  0.00  0.00    +0.000 C 
ATOM     25  C   UNL     1      -0.727   0.649  23.933  0.00  0.00    +0.009 C 
ENDBRANCH  18  20
BRANCH   8   7
ATOM      6  C   UNL     1      -4.781   1.006  25.101  0.00  0.00    +0.000 C 
ATOM      7  C   UNL     1      -3.972   0.865  25.023  0.00  0.00    +0.005 C 
BRANCH   6   5
ATOM      1 CL   UNL     1      -5.889   4.087  25.513  0.00  0.00    -0.082 Cl
ATOM      2  C   UNL     1      -5.612   3.317  25.410  0.00  0.00    +0.058 A 
ATOM      3  C   UNL     1      -5.082   3.147  24.802  0.00  0.00    +0.011 A 
ATOM      4  C   UNL     1      -4.805   2.377  24.699  0.00  0.00    +0.001 A 
ATOM      5  C   UNL     1      -5.058   1.777  25.204  0.00  0.00    +0.000 A 
ATOM     30  C   UNL     1      -5.589   1.946  25.813  0.00  0.00    +0.001 A 
ATOM     31  C   UNL     1      -5.866   2.717  25.916  0.00  0.00    +0.011 A 
ENDBRANCH   6   5
ENDBRANCH   8   7
TORSDOF 3
ENDMDL
MODEL 5
REMARK VINA RESULT:     -14.3      2.345      4.584
REMARK  Name = 
REMARK  3 active torsions:
REMARK  status: ('A' for Active; 'I' for Inactive)
REMARK    1  A    between atoms: C_5  and  C_6
REMARK    2  A    between atoms: C_7  and  C_8
REMARK    3  A    between atoms: C_18  and  C_20
REMARK                            x       y       z     vdW  Elec       q    Type
REMARK                         _______ _______ _______ _____ _____    ______ ____
ROOT
ATOM      8  C   UNL     1      -3.431   0.654  24.647  0.00  0.00    +0.056 A 
ATOM      9  C   UNL     1      -4.238   0.653  24.474  0.00  0.00    +0.006 A 
ATOM     10  C   UNL     1      -4.617  -0.052  24.275  0.00  0.00    +0.013 A 
ATOM     11  C   UNL     1      -4.189  -0.757  24.249  0.00  0.00    +0.041 A 
ATOM     12  C   UNL     1      -4.299  -1.653  24.076  0.00  0.00    +0.058 C 
ATOM     13  C   UNL     1      -4.788  -2.122  23.893  0.00  0.00    +0.011 C 
ATOM     14  C   UNL     1      -3.992  -2.118  24.064  0.00  0.00    +0.043 C 
ATOM     15  C   UNL     1      -3.039  -2.315  24.235  0.00  0.00    +0.095 C 
ATOM     16  N   UNL     1      -2.768  -1.547  24.421  0.00  0.00    -0.279 N 
ATOM     17  C   UNL     1      -3.381  -1.859  24.238  0.00  0.00    +0.099 C 
ATOM     18  C   UNL     1      -2.243  -0.946  24.634  0.00  0.00    +0.225 C 
ATOM     19  O   UNL     1      -2.513  -0.169  24.706  0.00  0.00    -0.275 OA
ATOM     26  C   UNL     1      -3.867  -1.183  24.247  0.00  0.00    +0.110 C 
ATOM     27  N   UNL     1      -3.382  -0.756  24.422  0.00  0.00    -0.299 N 
ATOM     28  C   UNL     1      -3.003  -0.051  24.621  0.00  0.00    +0.261 A 
ATOM     29  O   UNL     1      -2.245   0.201  24.825  0.00  0.00    -0.267 OA
ENDROOT
BRANCH  18  20
ATOM     20  C   UNL     1      -1.450  -1.122  24.774  0.00  0.00    +0.077 C 
ATOM     21  C   UNL     1      -1.211  -1.384  25.518  0.00  0.00    +0.009 C 
ATOM     22  C   UNL     1      -0.416  -1.561  25.659  0.00  0.00    +0.000 C 
ATOM     23  C   UNL     1       0.138  -1.475  25.054  0.00  0.00    +0.000 C 
ATOM     24  C   UNL     1      -0.101  -1.213  24.309  0.00  0.00    +0.000 C 
ATOM     25  C   UNL     1      -0.895  -1.036  24.169  0.00  0.00    +0.009 C 
ENDBRANCH  18  20
BRANCH   8   7
ATOM      6  C   UNL     1      -3.434   2.080  24.724  0.00  0.00    +0.000 C 
ATOM      7  C   UNL     1      -3.053   1.359  24.845  0.00  0.00    +0.005 C 
BRANCH   6   5
ATOM      1 CL   UNL     1      -1.920   4.902  25.520  0.00  0.00    -0.082 Cl
ATOM      2  C   UNL     1      -2.298   4.197  25.321  0.00  0.00    +0.058 A 
ATOM      3  C   UNL     1      -2.084   3.793  24.635  0.00  0.00    +0.011 A 
ATOM      4  C   UNL     1      -2.463   3.088  24.436  0.00  0.00    +0.001 A 
ATOM      5  C   UNL     1      -3.055   2.786  24.924  0.00  0.00    +0.000 A 
ATOM     30  C   UNL     1      -3.270   3.189  25.611  0.00  0.00    +0.001 A 
ATOM     31  C   UNL     1      -2.891   3.896  25.810  0.00  0.00    +0.011 A 
ENDBRANCH   6   5
ENDBRANCH   8   7
TORSDOF 3
ENDMDL
MODEL 6
REMARK VINA RESULT:     -14.2      2.387      4.922
REMARK  Name = 
REMARK  3 active torsions:
REMARK  status: ('A' for Active; 'I' for Inactive)
REMARK    1  A    between atoms: C_5  and  C_6
REMARK    2  A    between atoms: C_7  and  C_8
REMARK    3  A    between atoms: C_18  and  C_20
REMARK                            x       y       z     vdW  Elec       q    Type
REMARK                         _______ _______ _______ _____ _____    ______ ____
ROOT
ATOM      8  C   UNL     1      -2.062   1.392  24.563  0.00  0.00    +0.056 A 
ATOM      9  C   UNL     1      -1.418   1.859  24.344  0.00  0.00    +0.006 A 
ATOM     10  C   UNL     1      -0.707   1.503  24.123  0.00  0.00    +0.013 A 
ATOM     11  C   UNL     1      -0.640   0.681  24.122  0.00  0.00    +0.041 A 
ATOM     12  C   UNL     1      -0.033   0.015  23.943  0.00  0.00    +0.058 C 
ATOM     13  C   UNL     1       0.629  -0.084  23.732  0.00  0.00    +0.011 C 
ATOM     14  C   UNL     1      -0.008  -0.542  23.949  0.00  0.00    +0.043 C 
ATOM     15  C   UNL     1      -0.654  -1.255  24.175  0.00  0.00    +0.095 C 
ATOM     16  N   UNL     1      -1.316  -0.786  24.377  0.00  0.00    -0.279 N 
ATOM     17  C   UNL     1      -0.645  -0.685  24.158  0.00  0.00    +0.099 C 
ATOM     18  C   UNL     1      -2.082  -0.600  24.619  0.00  0.00    +0.225 C 
ATOM     19  O   UNL     1      -2.318   0.189  24.675  0.00  0.00    -0.275 OA
ATOM     26  C   UNL     1      -0.650   0.147  24.139  0.00  0.00    +0.110 C 
ATOM     27  N   UNL     1      -1.284   0.215  24.341  0.00  0.00    -0.299 N 
ATOM     28  C   UNL     1      -1.995   0.570  24.562  0.00  0.00    +0.261 A 
ATOM     29  O   UNL     1      -2.746   0.335  24.810  0.00  0.00    -0.267 OA
ENDROOT
BRANCH  18  20
ATOM     20  C   UNL     1      -2.613  -1.203  24.805  0.00  0.00    +0.077 C 
ATOM     21  C   UNL     1      -2.696  -1.453  25.587  0.00  0.00    +0.009 C 
ATOM     22  C   UNL     1      -3.228  -2.057  25.773  0.00  0.00    +0.000 C 
ATOM     23  C   UNL     1      -3.675  -2.410  25.177  0.00  0.00    +0.000 C 
ATOM     24  C   UNL     1      -3.593  -2.161  24.396  0.00  0.00    +0.000 C 
ATOM     25  C   UNL     1      -3.061  -1.557  24.209  0.00  0.00    +0.009 C 
ENDBRANCH  18  20
BRANCH   8   7
ATOM      6  C   UNL     1      -2.866   2.563  24.709  0.00  0.00    +0.000 C 
ATOM      7  C   UNL     1      -2.773   1.747  24.783  0.00  0.00    +0.005 C 
BRANCH   6   5
ATOM      1 CL   UNL     1      -5.711   3.985  25.591  0.00  0.00    -0.082 Cl
ATOM      2  C   UNL     1      -5.000   3.630  25.371  0.00  0.00    +0.058 A 
ATOM      3  C   UNL     1      -4.973   3.137  24.711  0.00  0.00    +0.011 A 
ATOM      4  C   UNL     1      -4.262   2.781  24.490  0.00  0.00    +0.001 A 
ATOM      5  C   UNL     1      -3.578   2.919  24.930  0.00  0.00    +0.000 A 
ATOM     30  C   UNL     1      -3.604   3.413  25.590  0.00  0.00    +0.001 A 
ATOM     31  C   UNL     1      -4.316   3.769  25.811  0.00  0.00    +0.011 A 
ENDBRANCH   6   5
ENDBRANCH   8   7
TORSDOF 3
ENDMDL
MODEL 7
REMARK VINA RESULT:     -13.9      2.174      4.840
REMARK  Name = 
REMARK  3 active torsions:
REMARK  status: ('A' for Active; 'I' for Inactive)
REMARK    1  A    between atoms: C_5  and  C_6
REMARK    2  A    between atoms: C_7  and  C_8
REMARK    3  A    between atoms: C_18  and  C_20
REMARK                            x       y       z     vdW  Elec       q    Type
REMARK                         _______ _______ _______ _____ _____    ______ ____
ROOT
ATOM      8  C   UNL     1      -2.258   1.391  24.862  0.00  0.00    +0.056 A 
ATOM      9  C   UNL     1      -1.621   0.868  24.814  0.00  0.00    +0.006 A 
ATOM     10  C   UNL     1      -1.752   0.054  24.842  0.00  0.00    +0.013 A 
ATOM     11  C   UNL     1      -2.520  -0.237  24.919  0.00  0.00    +0.041 A 
ATOM     12  C   UNL     1      -2.979  -1.031  24.977  0.00  0.00    +0.058 C 
ATOM     13  C   UNL     1      -2.879  -1.726  24.982  0.00  0.00    +0.011 C 
ATOM     14  C   UNL     1      -3.505  -1.207  25.029  0.00  0.00    +0.043 C 
ATOM     15  C   UNL     1      -4.378  -0.750  25.100  0.00  0.00    +0.095 C 
ATOM     16  N   UNL     1      -4.124   0.045  25.060  0.00  0.00    -0.279 N 
ATOM     17  C   UNL     1      -3.830  -0.604  25.047  0.00  0.00    +0.099 C 
ATOM     18  C   UNL     1      -4.172   0.869  25.048  0.00  0.00    +0.225 C 
ATOM     19  O   UNL     1      -3.485   1.321  24.976  0.00  0.00    -0.275 OA
ATOM     26  C   UNL     1      -3.034  -0.373  24.969  0.00  0.00    +0.110 C 
ATOM     27  N   UNL     1      -3.156   0.285  24.967  0.00  0.00    -0.299 N 
ATOM     28  C   UNL     1      -3.026   1.099  24.938  0.00  0.00    +0.261 A 
ATOM     29  O   UNL     1      -3.471   1.793  24.965  0.00  0.00    -0.267 OA
ENDROOT
BRANCH  18  20
ATOM     20  C   UNL     1      -4.906   1.240  25.108  0.00  0.00    +0.077 C 
ATOM     21  C   UNL     1      -5.343   1.403  24.428  0.00  0.00    +0.009 C 
ATOM     22  C   UNL     1      -6.078   1.774  24.488  0.00  0.00    +0.000 C 
ATOM     23  C   UNL     1      -6.375   1.982  25.229  0.00  0.00    +0.000 C 
ATOM     24  C   UNL     1      -5.939   1.819  25.909  0.00  0.00    +0.000 C 
ATOM     25  C   UNL     1      -5.204   1.447  25.849  0.00  0.00    +0.009 C 
ENDBRANCH  18  20
BRANCH   8   7
ATOM      6  C   UNL     1      -1.384   2.509  25.021  0.00  0.00    +0.000 C 
ATOM      7  C   UNL     1      -2.126   2.204  24.833  0.00  0.00    +0.005 C 
BRANCH   6   5
ATOM      1 CL   UNL     1      -0.859   5.766  24.906  0.00  0.00    -0.082 Cl
ATOM      2  C   UNL     1      -0.990   4.952  24.935  0.00  0.00    +0.058 A 
ATOM      3  C   UNL     1      -1.572   4.645  25.432  0.00  0.00    +0.011 A 
ATOM      4  C   UNL     1      -1.703   3.831  25.461  0.00  0.00    +0.001 A 
ATOM      5  C   UNL     1      -1.252   3.324  24.992  0.00  0.00    +0.000 A 
ATOM     30  C   UNL     1      -0.670   3.630  24.494  0.00  0.00    +0.001 A 
ATOM     31  C   UNL     1      -0.539   4.445  24.465  0.00  0.00    +0.011 A 
ENDBRANCH   6   5
ENDBRANCH   8   7
TORSDOF 3
ENDMDL
MODEL 8
REMARK VINA RESULT:     -13.7      1.831      3.989
REMARK  Name = 
REMARK  3 active torsions:
REMARK  status: ('A' for Active; 'I' for Inactive)
REMARK    1  A    between atoms: C_5  and  C_6
REMARK    2  A    between atoms: C_7  and  C_8
REMARK    3  A    between atoms: C_18  and  C_20
REMARK                            x       y       z     vdW  Elec       q    Type
REMARK                         _______ _______ _______ _____ _____    ______ ____
ROOT
ATOM      8  C   UNL     1      -2.278   1.229  24.311  0.00  0.00    +0.056 A 
ATOM      9  C   UNL     1      -2.386   2.044  24.390  0.00  0.00    +0.006 A 
ATOM     10  C   UNL     1      -3.121   2.343  24.614  0.00  0.00    +0.013 A 
ATOM     11  C   UNL     1      -3.749   1.828  24.759  0.00  0.00    +0.041 A 
ATOM     12  C   UNL     1      -4.633   1.834  25.008  0.00  0.00    +0.058 C 
ATOM     13  C   UNL     1      -5.154   2.272  25.180  0.00  0.00    +0.011 C 
ATOM     14  C   UNL     1      -5.044   1.469  25.102  0.00  0.00    +0.043 C 
ATOM     15  C   UNL     1      -5.110   0.484  25.062  0.00  0.00    +0.095 C 
ATOM     16  N   UNL     1      -4.328   0.301  24.832  0.00  0.00    -0.279 N 
ATOM     17  C   UNL     1      -4.713   0.883  24.974  0.00  0.00    +0.099 C 
ATOM     18  C   UNL     1      -3.675  -0.158  24.621  0.00  0.00    +0.225 C 
ATOM     19  O   UNL     1      -2.956   0.205  24.441  0.00  0.00    -0.275 OA
ATOM     26  C   UNL     1      -4.120   1.453  24.842  0.00  0.00    +0.110 C 
ATOM     27  N   UNL     1      -3.641   1.014  24.681  0.00  0.00    -0.299 N 
ATOM     28  C   UNL     1      -2.906   0.714  24.457  0.00  0.00    +0.261 A 
ATOM     29  O   UNL     1      -2.561  -0.021  24.317  0.00  0.00    -0.267 OA
ENDROOT
BRANCH  18  20
ATOM     20  C   UNL     1      -3.741  -0.980  24.591  0.00  0.00    +0.077 C 
ATOM     21  C   UNL     1      -3.496  -1.437  25.232  0.00  0.00    +0.009 C 
ATOM     22  C   UNL     1      -3.562  -2.260  25.202  0.00  0.00    +0.000 C 
ATOM     23  C   UNL     1      -3.873  -2.623  24.530  0.00  0.00    +0.000 C 
ATOM     24  C   UNL     1      -4.118  -2.166  23.889  0.00  0.00    +0.000 C 
ATOM     25  C   UNL     1      -4.052  -1.344  23.919  0.00  0.00    +0.009 C 
ENDBRANCH  18  20
BRANCH   8   7
ATOM      6  C   UNL     1      -0.904   1.442  23.986  0.00  0.00    +0.000 C 
ATOM      7  C   UNL     1      -1.543   0.931  24.087  0.00  0.00    +0.005 C 
BRANCH   6   5
ATOM      1 CL   UNL     1       2.038   0.245  23.089  0.00  0.00    -0.082 Cl
ATOM      2  C   UNL     1       1.303   0.544  23.313  0.00  0.00    +0.058 A 
ATOM      3  C   UNL     1       0.613   0.154  23.087  0.00  0.00    +0.011 A 
ATOM      4  C   UNL     1      -0.123   0.452  23.311  0.00  0.00    +0.001 A 
ATOM      5  C   UNL     1      -0.167   1.142  23.761  0.00  0.00    +0.000 A 
ATOM     30  C   UNL     1       0.523   1.533  23.988  0.00  0.00    +0.001 A 
ATOM     31  C   UNL     1       1.259   1.234  23.763  0.00  0.00    +0.011 A 
ENDBRANCH   6   5
ENDBRANCH   8   7
TORSDOF 3
ENDMDL
