REMARK  Name = 
REMARK  5 active torsions:
REMARK  status: ('A' for Active; 'I' for Inactive)
REMARK    1  A    between atoms: C_4  and  C_5
REMARK    2  A    between atoms: C_5  and  N_6
REMARK    3  A    between atoms: C_15  and  N_16
REMARK    4  A    between atoms: N_16  and  S_17
REMARK    5  A    between atoms: S_17  and  C_20
REMARK                            x       y       z     vdW  Elec       q    Type
REMARK                         _______ _______ _______ _____ _____    ______ ____
ROOT
ATOM      6  N   UNL     1       0.813  -2.091   0.000  0.00  0.00    -0.269 NA
ATOM      7  C   UNL     1       1.629  -1.912   0.000  0.00  0.00    +0.074 C 
ATOM      8  C   UNL     1       1.582  -0.925   0.000  0.00  0.00    +0.039 C 
ATOM      9  C   UNL     1       1.713  -0.121   0.000  0.00  0.00    +0.011 C 
ATOM     10  C   UNL     1       1.163  -0.557   0.000  0.00  0.00    +0.054 C 
ATOM     11  C   UNL     1       1.225  -1.510   0.000  0.00  0.00    +0.078 C 
ATOM     12  C   UNL     1       0.244  -0.558   0.000  0.00  0.00    +0.041 A 
ATOM     13  C   UNL     1      -0.397  -0.039   0.000  0.00  0.00    +0.014 A 
ATOM     14  C   UNL     1      -1.167  -0.335   0.000  0.00  0.00    +0.024 A 
ATOM     15  C   UNL     1      -1.296  -1.150   0.000  0.00  0.00    +0.147 A 
ATOM     27  C   UNL     1      -0.655  -1.669   0.000  0.00  0.00    +0.277 A 
ATOM     28  O   UNL     1      -0.784  -2.484   0.000  0.00  0.00    -0.266 OA
ATOM     29  N   UNL     1       0.115  -1.373   0.000  0.00  0.00    -0.298 N 
ATOM     30  C   UNL     1       0.622  -0.936   0.000  0.00  0.00    +0.110 C 
ENDROOT
BRANCH   6   5
ATOM      5  C   UNL     1       0.125  -2.547   0.000  0.00  0.00    +0.101 C 
BRANCH   5   4
ATOM      1  C   UNL     1      -0.601  -5.359   0.000  0.00  0.00    +0.130 C 
ATOM      2  N   UNL     1      -0.158  -4.663   0.000  0.00  0.00    -0.324 N 
ATOM      3  C   UNL     1      -0.461  -3.896   0.000  0.00  0.00    +0.073 A 
ATOM      4  C   UNL     1       0.176  -3.370   0.000  0.00  0.00    +0.012 A 
ATOM     31  C   UNL     1       0.872  -3.813   0.000  0.00  0.00    +0.015 A 
ATOM     32  C   UNL     1       0.665  -4.612   0.000  0.00  0.00    +0.060 A 
ATOM     33  C   UNL     1       1.254  -5.190   0.000  0.00  0.00    +0.017 A 
ATOM     34  C   UNL     1       2.049  -4.970   0.000  0.00  0.00    +0.001 A 
ATOM     35  C   UNL     1       2.255  -4.171   0.000  0.00  0.00    +0.000 A 
ATOM     36  C   UNL     1       1.667  -3.593   0.000  0.00  0.00    +0.001 A 
ENDBRANCH   5   4
ENDBRANCH   6   5
BRANCH  15  16
ATOM     16  N   UNL     1      -2.066  -1.445   0.000  0.00  0.00    -0.092 NA
BRANCH  16  17
ATOM     17  S   UNL     1      -2.195  -2.260   0.000  0.00  0.00    +0.093 S 
ATOM     18  O   UNL     1      -1.380  -2.389   0.000  0.00  0.00    -0.148 OA
ATOM     19  O   UNL     1      -3.010  -2.131   0.000  0.00  0.00    -0.148 OA
BRANCH  17  20
ATOM     20  C   UNL     1      -2.324  -3.075   0.000  0.00  0.00    +0.127 A 
ATOM     21  C   UNL     1      -1.683  -3.594   0.000  0.00  0.00    +0.021 A 
ATOM     22  C   UNL     1      -1.812  -4.409   0.000  0.00  0.00    +0.013 A 
ATOM     23  C   UNL     1      -2.582  -4.705   0.000  0.00  0.00    +0.058 A 
ATOM     24 CL   UNL     1      -2.711  -5.520   0.000  0.00  0.00    -0.082 Cl
ATOM     25  C   UNL     1      -3.223  -4.186   0.000  0.00  0.00    +0.013 A 
ATOM     26  C   UNL     1      -3.094  -3.371   0.000  0.00  0.00    +0.021 A 
ENDBRANCH  17  20
ENDBRANCH  16  17
ENDBRANCH  15  16
TORSDOF 5
