MODEL 1
REMARK VINA RESULT:     -10.4      0.000      0.000
REMARK  Name = 
REMARK  7 active torsions:
REMARK  status: ('A' for Active; 'I' for Inactive)
REMARK    1  A    between atoms: C_3  and  N_18
REMARK    2  A    between atoms: C_6  and  C_7
REMARK    3  A    between atoms: C_7  and  N_8
REMARK    4  A    between atoms: N_11  and  C_12
REMARK    5  A    between atoms: N_18  and  C_19
REMARK    6  A    between atoms: C_19  and  C_20
REMARK    7  A    between atoms: C_24  and  C_26
REMARK                            x       y       z     vdW  Elec       q    Type
REMARK                         _______ _______ _______ _____ _____    ______ ____
ROOT
ATOM      1  O   UNL     1      -3.559   1.216  23.598  0.00  0.00    -0.219 OA
ATOM      2  C   UNL     1      -4.033   1.193  24.273  0.00  0.00    +0.199 C 
ATOM      3  C   UNL     1      -4.393   0.522  24.590  0.00  0.00    +0.135 C 
ATOM      4  C   UNL     1      -4.813   0.751  25.261  0.00  0.00    +0.162 C 
ATOM      5  O   UNL     1      -4.714   1.564  25.359  0.00  0.00    -0.350 OA
ATOM      6  C   UNL     1      -4.232   1.837  24.748  0.00  0.00    +0.169 C 
ENDROOT
BRANCH   6   7
ATOM      7  C   UNL     1      -3.991   2.618  24.633  0.00  0.00    +0.149 C 
BRANCH   7   8
ATOM      8  N   UNL     1      -3.526   2.994  25.200  0.00  0.00    -0.184 NA
ATOM      9  C   UNL     1      -2.941   3.527  24.967  0.00  0.00    +0.344 C 
ATOM     10  O   UNL     1      -2.821   3.684  24.166  0.00  0.00    -0.249 OA
ATOM     11  N   UNL     1      -2.476   3.904  25.534  0.00  0.00    -0.161 NA
BRANCH  11  12
ATOM     12  C   UNL     1      -1.891   4.436  25.301  0.00  0.00    +0.075 A 
ATOM     13  C   UNL     1      -2.058   5.243  25.264  0.00  0.00    +0.017 A 
ATOM     14  C   UNL     1      -1.474   5.776  25.031  0.00  0.00    +0.001 A 
ATOM     15  C   UNL     1      -0.721   5.502  24.834  0.00  0.00    +0.000 A 
ATOM     16  C   UNL     1      -0.552   4.695  24.871  0.00  0.00    +0.001 A 
ATOM     17  C   UNL     1      -1.138   4.162  25.104  0.00  0.00    +0.017 A 
ENDBRANCH  11  12
ENDBRANCH   7   8
ENDBRANCH   6   7
BRANCH   3  18
ATOM     18  N   UNL     1      -4.341  -0.245  24.289  0.00  0.00    -0.209 NA
BRANCH  18  19
ATOM     19  C   UNL     1      -4.284  -0.888  24.802  0.00  0.00    +0.115 C 
BRANCH  19  20
ATOM     20  C   UNL     1      -3.907  -1.579  24.558  0.00  0.00    -0.004 A 
ATOM     21  C   UNL     1      -4.329  -2.154  24.143  0.00  0.00    -0.003 A 
ATOM     22  C   UNL     1      -3.951  -2.846  23.899  0.00  0.00    +0.000 A 
ATOM     23  C   UNL     1      -3.153  -2.963  24.070  0.00  0.00    +0.010 A 
ATOM     24  C   UNL     1      -2.732  -2.389  24.486  0.00  0.00    +0.068 A 
ATOM     25  C   UNL     1      -3.109  -1.697  24.730  0.00  0.00    +0.007 A 
BRANCH  24  26
ATOM     26  C   UNL     1      -1.933  -2.506  24.658  0.00  0.00    +0.100 C 
ATOM     27  N   UNL     1      -1.134  -2.622  24.829  0.00  0.00    -0.191 NA
ENDBRANCH  24  26
ENDBRANCH  19  20
ENDBRANCH  18  19
ENDBRANCH   3  18
TORSDOF 7
ENDMDL
MODEL 2
REMARK VINA RESULT:      -9.7      0.974      5.688
REMARK  Name = 
REMARK  7 active torsions:
REMARK  status: ('A' for Active; 'I' for Inactive)
REMARK    1  A    between atoms: C_3  and  N_18
REMARK    2  A    between atoms: C_6  and  C_7
REMARK    3  A    between atoms: C_7  and  N_8
REMARK    4  A    between atoms: N_11  and  C_12
REMARK    5  A    between atoms: N_18  and  C_19
REMARK    6  A    between atoms: C_19  and  C_20
REMARK    7  A    between atoms: C_24  and  C_26
REMARK                            x       y       z     vdW  Elec       q    Type
REMARK                         _______ _______ _______ _____ _____    ______ ____
ROOT
ATOM      1  O   UNL     1      -3.452   2.338  23.807  0.00  0.00    -0.219 OA
ATOM      2  C   UNL     1      -3.909   2.447  24.486  0.00  0.00    +0.199 C 
ATOM      3  C   UNL     1      -3.898   3.111  24.975  0.00  0.00    +0.135 C 
ATOM      4  C   UNL     1      -4.438   2.987  25.586  0.00  0.00    +0.162 C 
ATOM      5  O   UNL     1      -4.783   2.246  25.474  0.00  0.00    -0.350 OA
ATOM      6  C   UNL     1      -4.455   1.913  24.793  0.00  0.00    +0.169 C 
ENDROOT
BRANCH   6   7
ATOM      7  C   UNL     1      -4.643   1.174  24.477  0.00  0.00    +0.149 C 
BRANCH   7   8
ATOM      8  N   UNL     1      -4.579   0.497  24.944  0.00  0.00    -0.184 NA
ATOM      9  C   UNL     1      -4.297  -0.206  24.616  0.00  0.00    +0.344 C 
ATOM     10  O   UNL     1      -4.079  -0.231  23.821  0.00  0.00    -0.249 OA
ATOM     11  N   UNL     1      -4.234  -0.883  25.082  0.00  0.00    -0.161 NA
BRANCH  11  12
ATOM     12  C   UNL     1      -3.952  -1.584  24.754  0.00  0.00    +0.075 A 
ATOM     13  C   UNL     1      -4.374  -1.958  24.151  0.00  0.00    +0.017 A 
ATOM     14  C   UNL     1      -4.092  -2.660  23.823  0.00  0.00    +0.001 A 
ATOM     15  C   UNL     1      -3.387  -2.989  24.098  0.00  0.00    +0.000 A 
ATOM     16  C   UNL     1      -2.964  -2.617  24.701  0.00  0.00    +0.001 A 
ATOM     17  C   UNL     1      -3.247  -1.914  25.029  0.00  0.00    +0.017 A 
ENDBRANCH  11  12
ENDBRANCH   7   8
ENDBRANCH   6   7
BRANCH   3  18
ATOM     18  N   UNL     1      -3.429   3.783  24.872  0.00  0.00    -0.209 NA
BRANCH  18  19
ATOM     19  C   UNL     1      -2.967   4.063  25.495  0.00  0.00    +0.115 C 
BRANCH  19  20
ATOM     20  C   UNL     1      -2.182   4.277  25.363  0.00  0.00    -0.004 A 
ATOM     21  C   UNL     1      -2.001   5.035  25.091  0.00  0.00    -0.003 A 
ATOM     22  C   UNL     1      -1.216   5.249  24.958  0.00  0.00    +0.000 A 
ATOM     23  C   UNL     1      -0.611   4.707  25.097  0.00  0.00    +0.010 A 
ATOM     24  C   UNL     1      -0.790   3.949  25.369  0.00  0.00    +0.068 A 
ATOM     25  C   UNL     1      -1.576   3.734  25.502  0.00  0.00    +0.007 A 
BRANCH  24  26
ATOM     26  C   UNL     1      -0.185   3.405  25.509  0.00  0.00    +0.100 C 
ATOM     27  N   UNL     1       0.420   2.862  25.648  0.00  0.00    -0.191 NA
ENDBRANCH  24  26
ENDBRANCH  19  20
ENDBRANCH  18  19
ENDBRANCH   3  18
TORSDOF 7
ENDMDL
MODEL 3
REMARK VINA RESULT:      -9.6      4.386      5.856
REMARK  Name = 
REMARK  7 active torsions:
REMARK  status: ('A' for Active; 'I' for Inactive)
REMARK    1  A    between atoms: C_3  and  N_18
REMARK    2  A    between atoms: C_6  and  C_7
REMARK    3  A    between atoms: C_7  and  N_8
REMARK    4  A    between atoms: N_11  and  C_12
REMARK    5  A    between atoms: N_18  and  C_19
REMARK    6  A    between atoms: C_19  and  C_20
REMARK    7  A    between atoms: C_24  and  C_26
REMARK                            x       y       z     vdW  Elec       q    Type
REMARK                         _______ _______ _______ _____ _____    ______ ____
ROOT
ATOM      1  O   UNL     1       0.666   1.779  24.235  0.00  0.00    -0.219 OA
ATOM      2  C   UNL     1       0.499   1.058  23.869  0.00  0.00    +0.199 C 
ATOM      3  C   UNL     1       1.033   0.598  23.441  0.00  0.00    +0.135 C 
ATOM      4  C   UNL     1       0.634  -0.073  23.175  0.00  0.00    +0.162 C 
ATOM      5  O   UNL     1      -0.146  -0.028  23.439  0.00  0.00    -0.350 OA
ATOM      6  C   UNL     1      -0.229   0.672  23.869  0.00  0.00    +0.169 C 
ENDROOT
BRANCH   6   7
ATOM      7  C   UNL     1      -0.920   0.938  24.233  0.00  0.00    +0.149 C 
BRANCH   7   8
ATOM      8  N   UNL     1      -1.650   0.826  23.866  0.00  0.00    -0.184 NA
ATOM      9  C   UNL     1      -2.344   1.061  24.246  0.00  0.00    +0.344 C 
ATOM     10  O   UNL     1      -2.307   1.409  24.993  0.00  0.00    -0.249 OA
ATOM     11  N   UNL     1      -3.073   0.949  23.879  0.00  0.00    -0.161 NA
BRANCH  11  12
ATOM     12  C   UNL     1      -3.766   1.184  24.258  0.00  0.00    +0.075 A 
ATOM     13  C   UNL     1      -4.039   1.959  24.179  0.00  0.00    +0.017 A 
ATOM     14  C   UNL     1      -4.732   2.194  24.558  0.00  0.00    +0.001 A 
ATOM     15  C   UNL     1      -5.153   1.655  25.018  0.00  0.00    +0.000 A 
ATOM     16  C   UNL     1      -4.882   0.880  25.098  0.00  0.00    +0.001 A 
ATOM     17  C   UNL     1      -4.188   0.644  24.718  0.00  0.00    +0.017 A 
ENDBRANCH  11  12
ENDBRANCH   7   8
ENDBRANCH   6   7
BRANCH   3  18
ATOM     18  N   UNL     1       1.826   0.777  23.302  0.00  0.00    -0.209 NA
BRANCH  18  19
ATOM     19  C   UNL     1       2.317   0.224  22.936  0.00  0.00    +0.115 C 
BRANCH  19  20
ATOM     20  C   UNL     1       3.133   0.337  22.928  0.00  0.00    -0.004 A 
ATOM     21  C   UNL     1       3.460   0.955  22.490  0.00  0.00    -0.003 A 
ATOM     22  C   UNL     1       4.277   1.068  22.482  0.00  0.00    +0.000 A 
ATOM     23  C   UNL     1       4.768   0.564  22.913  0.00  0.00    +0.010 A 
ATOM     24  C   UNL     1       4.441  -0.054  23.352  0.00  0.00    +0.068 A 
ATOM     25  C   UNL     1       3.624  -0.167  23.359  0.00  0.00    +0.007 A 
BRANCH  24  26
ATOM     26  C   UNL     1       4.932  -0.558  23.784  0.00  0.00    +0.100 C 
ATOM     27  N   UNL     1       5.422  -1.062  24.215  0.00  0.00    -0.191 NA
ENDBRANCH  24  26
ENDBRANCH  19  20
ENDBRANCH  18  19
ENDBRANCH   3  18
TORSDOF 7
ENDMDL
MODEL 4
REMARK VINA RESULT:      -9.4      3.802      5.266
REMARK  Name = 
REMARK  7 active torsions:
REMARK  status: ('A' for Active; 'I' for Inactive)
REMARK    1  A    between atoms: C_3  and  N_18
REMARK    2  A    between atoms: C_6  and  C_7
REMARK    3  A    between atoms: C_7  and  N_8
REMARK    4  A    between atoms: N_11  and  C_12
REMARK    5  A    between atoms: N_18  and  C_19
REMARK    6  A    between atoms: C_19  and  C_20
REMARK    7  A    between atoms: C_24  and  C_26
REMARK                            x       y       z     vdW  Elec       q    Type
REMARK                         _______ _______ _______ _____ _____    ______ ____
ROOT
ATOM      1  O   UNL     1      -0.989   1.078  25.281  0.00  0.00    -0.219 OA
ATOM      2  C   UNL     1      -1.152   1.158  24.476  0.00  0.00    +0.199 C 
ATOM      3  C   UNL     1      -1.899   1.255  24.140  0.00  0.00    +0.135 C 
ATOM      4  C   UNL     1      -1.806   1.312  23.323  0.00  0.00    +0.162 C 
ATOM      5  O   UNL     1      -1.001   1.250  23.153  0.00  0.00    -0.350 OA
ATOM      6  C   UNL     1      -0.597   1.154  23.866  0.00  0.00    +0.169 C 
ENDROOT
BRANCH   6   7
ATOM      7  C   UNL     1       0.220   1.070  23.953  0.00  0.00    +0.149 C 
BRANCH   7   8
ATOM      8  N   UNL     1       0.655   0.662  23.384  0.00  0.00    -0.184 NA
ATOM      9  C   UNL     1       1.480   0.692  23.396  0.00  0.00    +0.344 C 
ATOM     10  O   UNL     1       1.868   1.130  23.977  0.00  0.00    -0.249 OA
ATOM     11  N   UNL     1       1.916   0.285  22.827  0.00  0.00    -0.161 NA
BRANCH  11  12
ATOM     12  C   UNL     1       2.740   0.314  22.839  0.00  0.00    +0.075 A 
ATOM     13  C   UNL     1       3.134   0.975  22.539  0.00  0.00    +0.017 A 
ATOM     14  C   UNL     1       3.957   1.004  22.551  0.00  0.00    +0.001 A 
ATOM     15  C   UNL     1       4.388   0.374  22.863  0.00  0.00    +0.000 A 
ATOM     16  C   UNL     1       3.996  -0.287  23.163  0.00  0.00    +0.001 A 
ATOM     17  C   UNL     1       3.170  -0.316  23.150  0.00  0.00    +0.017 A 
ENDBRANCH  11  12
ENDBRANCH   7   8
ENDBRANCH   6   7
BRANCH   3  18
ATOM     18  N   UNL     1      -2.614   1.290  24.550  0.00  0.00    -0.209 NA
BRANCH  18  19
ATOM     19  C   UNL     1      -3.304   1.516  24.158  0.00  0.00    +0.115 C 
BRANCH  19  20
ATOM     20  C   UNL     1      -4.014   1.574  24.573  0.00  0.00    -0.004 A 
ATOM     21  C   UNL     1      -4.447   0.893  24.748  0.00  0.00    -0.003 A 
ATOM     22  C   UNL     1      -5.157   0.952  25.163  0.00  0.00    +0.000 A 
ATOM     23  C   UNL     1      -5.435   1.690  25.404  0.00  0.00    +0.010 A 
ATOM     24  C   UNL     1      -5.003   2.371  25.229  0.00  0.00    +0.068 A 
ATOM     25  C   UNL     1      -4.292   2.312  24.813  0.00  0.00    +0.007 A 
BRANCH  24  26
ATOM     26  C   UNL     1      -5.281   3.110  25.469  0.00  0.00    +0.100 C 
ATOM     27  N   UNL     1      -5.560   3.848  25.709  0.00  0.00    -0.191 NA
ENDBRANCH  24  26
ENDBRANCH  19  20
ENDBRANCH  18  19
ENDBRANCH   3  18
TORSDOF 7
ENDMDL
MODEL 5
REMARK VINA RESULT:      -9.2      1.844      6.327
REMARK  Name = 
REMARK  7 active torsions:
REMARK  status: ('A' for Active; 'I' for Inactive)
REMARK    1  A    between atoms: C_3  and  N_18
REMARK    2  A    between atoms: C_6  and  C_7
REMARK    3  A    between atoms: C_7  and  N_8
REMARK    4  A    between atoms: N_11  and  C_12
REMARK    5  A    between atoms: N_18  and  C_19
REMARK    6  A    between atoms: C_19  and  C_20
REMARK    7  A    between atoms: C_24  and  C_26
REMARK                            x       y       z     vdW  Elec       q    Type
REMARK                         _______ _______ _______ _____ _____    ______ ____
ROOT
ATOM      1  O   UNL     1      -1.361   1.524  23.690  0.00  0.00    -0.219 OA
ATOM      2  C   UNL     1      -0.841   1.395  24.318  0.00  0.00    +0.199 C 
ATOM      3  C   UNL     1      -0.407   1.974  24.714  0.00  0.00    +0.135 C 
ATOM      4  C   UNL     1       0.038   1.602  25.300  0.00  0.00    +0.162 C 
ATOM      5  O   UNL     1      -0.120   0.793  25.266  0.00  0.00    -0.350 OA
ATOM      6  C   UNL     1      -0.664   0.666  24.658  0.00  0.00    +0.169 C 
ENDROOT
BRANCH   6   7
ATOM      7  C   UNL     1      -0.974  -0.065  24.432  0.00  0.00    +0.149 C 
BRANCH   7   8
ATOM      8  N   UNL     1      -1.549  -0.430  24.896  0.00  0.00    -0.184 NA
ATOM      9  C   UNL     1      -2.056  -0.990  24.562  0.00  0.00    +0.344 C 
ATOM     10  O   UNL     1      -1.987  -1.183  23.762  0.00  0.00    -0.249 OA
ATOM     11  N   UNL     1      -2.631  -1.355  25.026  0.00  0.00    -0.161 NA
BRANCH  11  12
ATOM     12  C   UNL     1      -3.136  -1.914  24.692  0.00  0.00    +0.075 A 
ATOM     13  C   UNL     1      -3.790  -1.669  24.252  0.00  0.00    +0.017 A 
ATOM     14  C   UNL     1      -4.296  -2.228  23.918  0.00  0.00    +0.001 A 
ATOM     15  C   UNL     1      -4.149  -3.033  24.023  0.00  0.00    +0.000 A 
ATOM     16  C   UNL     1      -3.495  -3.279  24.462  0.00  0.00    +0.001 A 
ATOM     17  C   UNL     1      -2.989  -2.719  24.797  0.00  0.00    +0.017 A 
ENDBRANCH  11  12
ENDBRANCH   7   8
ENDBRANCH   6   7
BRANCH   3  18
ATOM     18  N   UNL     1      -0.418   2.783  24.553  0.00  0.00    -0.209 NA
BRANCH  18  19
ATOM     19  C   UNL     1      -0.365   3.328  25.171  0.00  0.00    +0.115 C 
BRANCH  19  20
ATOM     20  C   UNL     1      -0.853   3.992  25.178  0.00  0.00    -0.004 A 
ATOM     21  C   UNL     1      -0.608   4.689  24.812  0.00  0.00    -0.003 A 
ATOM     22  C   UNL     1      -1.096   5.353  24.820  0.00  0.00    +0.000 A 
ATOM     23  C   UNL     1      -1.831   5.321  25.193  0.00  0.00    +0.010 A 
ATOM     24  C   UNL     1      -2.077   4.624  25.559  0.00  0.00    +0.068 A 
ATOM     25  C   UNL     1      -1.588   3.959  25.552  0.00  0.00    +0.007 A 
BRANCH  24  26
ATOM     26  C   UNL     1      -2.813   4.591  25.933  0.00  0.00    +0.100 C 
ATOM     27  N   UNL     1      -3.547   4.558  26.306  0.00  0.00    -0.191 NA
ENDBRANCH  24  26
ENDBRANCH  19  20
ENDBRANCH  18  19
ENDBRANCH   3  18
TORSDOF 7
ENDMDL
MODEL 6
REMARK VINA RESULT:      -8.8      1.899      2.828
REMARK  Name = 
REMARK  7 active torsions:
REMARK  status: ('A' for Active; 'I' for Inactive)
REMARK    1  A    between atoms: C_3  and  N_18
REMARK    2  A    between atoms: C_6  and  C_7
REMARK    3  A    between atoms: C_7  and  N_8
REMARK    4  A    between atoms: N_11  and  C_12
REMARK    5  A    between atoms: N_18  and  C_19
REMARK    6  A    between atoms: C_19  and  C_20
REMARK    7  A    between atoms: C_24  and  C_26
REMARK                            x       y       z     vdW  Elec       q    Type
REMARK                         _______ _______ _______ _____ _____    ______ ____
ROOT
ATOM      1  O   UNL     1      -1.273   0.207  25.850  0.00  0.00    -0.219 OA
ATOM      2  C   UNL     1      -0.805   0.071  25.185  0.00  0.00    +0.199 C 
ATOM      3  C   UNL     1      -0.745  -0.640  24.771  0.00  0.00    +0.135 C 
ATOM      4  C   UNL     1      -0.218  -0.530  24.147  0.00  0.00    +0.162 C 
ATOM      5  O   UNL     1       0.049   0.250  24.175  0.00  0.00    -0.350 OA
ATOM      6  C   UNL     1      -0.314   0.621  24.817  0.00  0.00    +0.169 C 
ENDROOT
BRANCH   6   7
ATOM      7  C   UNL     1      -0.204   1.406  25.048  0.00  0.00    +0.149 C 
BRANCH   7   8
ATOM      8  N   UNL     1      -0.409   2.020  24.537  0.00  0.00    -0.184 NA
ATOM      9  C   UNL     1      -0.641   2.751  24.842  0.00  0.00    +0.344 C 
ATOM     10  O   UNL     1      -0.668   2.867  25.658  0.00  0.00    -0.249 OA
ATOM     11  N   UNL     1      -0.846   3.364  24.331  0.00  0.00    -0.161 NA
BRANCH  11  12
ATOM     12  C   UNL     1      -1.078   4.094  24.635  0.00  0.00    +0.075 A 
ATOM     13  C   UNL     1      -0.563   4.739  24.601  0.00  0.00    +0.017 A 
ATOM     14  C   UNL     1      -0.795   5.469  24.906  0.00  0.00    +0.001 A 
ATOM     15  C   UNL     1      -1.542   5.556  25.245  0.00  0.00    +0.000 A 
ATOM     16  C   UNL     1      -2.057   4.912  25.280  0.00  0.00    +0.001 A 
ATOM     17  C   UNL     1      -1.825   4.181  24.974  0.00  0.00    +0.017 A 
ENDBRANCH  11  12
ENDBRANCH   7   8
ENDBRANCH   6   7
BRANCH   3  18
ATOM     18  N   UNL     1      -1.144  -1.341  24.950  0.00  0.00    -0.209 NA
BRANCH  18  19
ATOM     19  C   UNL     1      -1.448  -1.810  24.344  0.00  0.00    +0.115 C 
BRANCH  19  20
ATOM     20  C   UNL     1      -2.188  -2.163  24.426  0.00  0.00    -0.004 A 
ATOM     21  C   UNL     1      -2.249  -2.927  24.732  0.00  0.00    -0.003 A 
ATOM     22  C   UNL     1      -2.989  -3.280  24.815  0.00  0.00    +0.000 A 
ATOM     23  C   UNL     1      -3.670  -2.871  24.593  0.00  0.00    +0.010 A 
ATOM     24  C   UNL     1      -3.610  -2.107  24.287  0.00  0.00    +0.068 A 
ATOM     25  C   UNL     1      -2.868  -1.753  24.204  0.00  0.00    +0.007 A 
BRANCH  24  26
ATOM     26  C   UNL     1      -4.290  -1.696  24.064  0.00  0.00    +0.100 C 
ATOM     27  N   UNL     1      -4.970  -1.285  23.841  0.00  0.00    -0.191 NA
ENDBRANCH  24  26
ENDBRANCH  19  20
ENDBRANCH  18  19
ENDBRANCH   3  18
TORSDOF 7
ENDMDL
MODEL 7
REMARK VINA RESULT:      -8.7      4.569      5.578
REMARK  Name = 
REMARK  7 active torsions:
REMARK  status: ('A' for Active; 'I' for Inactive)
REMARK    1  A    between atoms: C_3  and  N_18
REMARK    2  A    between atoms: C_6  and  C_7
REMARK    3  A    between atoms: C_7  and  N_8
REMARK    4  A    between atoms: N_11  and  C_12
REMARK    5  A    between atoms: N_18  and  C_19
REMARK    6  A    between atoms: C_19  and  C_20
REMARK    7  A    between atoms: C_24  and  C_26
REMARK                            x       y       z     vdW  Elec       q    Type
REMARK                         _______ _______ _______ _____ _____    ______ ____
ROOT
ATOM      1  O   UNL     1      -0.160  -0.954  23.525  0.00  0.00    -0.219 OA
ATOM      2  C   UNL     1      -0.123  -0.144  23.678  0.00  0.00    +0.199 C 
ATOM      3  C   UNL     1      -0.716   0.311  24.027  0.00  0.00    +0.135 C 
ATOM      4  C   UNL     1      -0.447   1.088  24.074  0.00  0.00    +0.162 C 
ATOM      5  O   UNL     1       0.313   1.115  23.755  0.00  0.00    -0.350 OA
ATOM      6  C   UNL     1       0.513   0.353  23.510  0.00  0.00    +0.169 C 
ENDROOT
BRANCH   6   7
ATOM      7  C   UNL     1       1.225   0.128  23.158  0.00  0.00    +0.149 C 
BRANCH   7   8
ATOM      8  N   UNL     1       1.860   0.654  23.137  0.00  0.00    -0.184 NA
ATOM      9  C   UNL     1       2.634   0.368  23.129  0.00  0.00    +0.344 C 
ATOM     10  O   UNL     1       2.773  -0.445  23.142  0.00  0.00    -0.249 OA
ATOM     11  N   UNL     1       3.268   0.894  23.108  0.00  0.00    -0.161 NA
BRANCH  11  12
ATOM     12  C   UNL     1       4.041   0.608  23.101  0.00  0.00    +0.075 A 
ATOM     13  C   UNL     1       4.462   0.535  23.807  0.00  0.00    +0.017 A 
ATOM     14  C   UNL     1       5.235   0.249  23.799  0.00  0.00    +0.001 A 
ATOM     15  C   UNL     1       5.588   0.035  23.085  0.00  0.00    +0.000 A 
ATOM     16  C   UNL     1       5.169   0.108  22.378  0.00  0.00    +0.001 A 
ATOM     17  C   UNL     1       4.394   0.394  22.386  0.00  0.00    +0.017 A 
ENDBRANCH  11  12
ENDBRANCH   7   8
ENDBRANCH   6   7
BRANCH   3  18
ATOM     18  N   UNL     1      -1.451   0.036  24.284  0.00  0.00    -0.209 NA
BRANCH  18  19
ATOM     19  C   UNL     1      -1.946   0.529  24.722  0.00  0.00    +0.115 C 
BRANCH  19  20
ATOM     20  C   UNL     1      -2.715   0.289  24.899  0.00  0.00    -0.004 A 
ATOM     21  C   UNL     1      -2.853  -0.471  25.191  0.00  0.00    -0.003 A 
ATOM     22  C   UNL     1      -3.622  -0.710  25.368  0.00  0.00    +0.000 A 
ATOM     23  C   UNL     1      -4.253  -0.191  25.255  0.00  0.00    +0.010 A 
ATOM     24  C   UNL     1      -4.115   0.568  24.963  0.00  0.00    +0.068 A 
ATOM     25  C   UNL     1      -3.345   0.808  24.786  0.00  0.00    +0.007 A 
BRANCH  24  26
ATOM     26  C   UNL     1      -4.746   1.088  24.849  0.00  0.00    +0.100 C 
ATOM     27  N   UNL     1      -5.376   1.608  24.736  0.00  0.00    -0.191 NA
ENDBRANCH  24  26
ENDBRANCH  19  20
ENDBRANCH  18  19
ENDBRANCH   3  18
TORSDOF 7
ENDMDL
MODEL 8
REMARK VINA RESULT:      -8.0     17.386     18.517
REMARK  Name = 
REMARK  7 active torsions:
REMARK  status: ('A' for Active; 'I' for Inactive)
REMARK    1  A    between atoms: C_3  and  N_18
REMARK    2  A    between atoms: C_6  and  C_7
REMARK    3  A    between atoms: C_7  and  N_8
REMARK    4  A    between atoms: N_11  and  C_12
REMARK    5  A    between atoms: N_18  and  C_19
REMARK    6  A    between atoms: C_19  and  C_20
REMARK    7  A    between atoms: C_24  and  C_26
REMARK                            x       y       z     vdW  Elec       q    Type
REMARK                         _______ _______ _______ _____ _____    ______ ____
ROOT
ATOM      1  O   UNL     1      -5.752  -8.979  10.945  0.00  0.00    -0.219 OA
ATOM      2  C   UNL     1      -5.451  -9.001  10.177  0.00  0.00    +0.199 C 
ATOM      3  C   UNL     1      -4.699  -9.259   9.959  0.00  0.00    +0.135 C 
ATOM      4  C   UNL     1      -4.632  -9.187   9.140  0.00  0.00    +0.162 C 
ATOM      5  O   UNL     1      -5.343  -8.883   8.852  0.00  0.00    -0.350 OA
ATOM      6  C   UNL     1      -5.849  -8.768   9.494  0.00  0.00    +0.169 C 
ENDROOT
BRANCH   6   7
ATOM      7  C   UNL     1      -6.618  -8.472   9.457  0.00  0.00    +0.149 C 
BRANCH   7   8
ATOM      8  N   UNL     1      -6.853  -8.012   8.814  0.00  0.00    -0.184 NA
ATOM      9  C   UNL     1      -7.593  -7.645   8.817  0.00  0.00    +0.344 C 
ATOM     10  O   UNL     1      -8.097  -7.740   9.463  0.00  0.00    -0.249 OA
ATOM     11  N   UNL     1      -7.828  -7.185   8.175  0.00  0.00    -0.161 NA
BRANCH  11  12
ATOM     12  C   UNL     1      -8.566  -6.819   8.178  0.00  0.00    +0.075 A 
ATOM     13  C   UNL     1      -9.253  -7.274   8.129  0.00  0.00    +0.017 A 
ATOM     14  C   UNL     1      -9.992  -6.907   8.133  0.00  0.00    +0.001 A 
ATOM     15  C   UNL     1     -10.044  -6.086   8.184  0.00  0.00    +0.000 A 
ATOM     16  C   UNL     1      -9.358  -5.630   8.232  0.00  0.00    +0.001 A 
ATOM     17  C   UNL     1      -8.619  -5.997   8.229  0.00  0.00    +0.017 A 
ENDBRANCH  11  12
ENDBRANCH   7   8
ENDBRANCH   6   7
BRANCH   3  18
ATOM     18  N   UNL     1      -4.115  -9.541  10.470  0.00  0.00    -0.209 NA
BRANCH  18  19
ATOM     19  C   UNL     1      -3.331  -9.584  10.217  0.00  0.00    +0.115 C 
BRANCH  19  20
ATOM     20  C   UNL     1      -2.734  -9.768  10.755  0.00  0.00    -0.004 A 
ATOM     21  C   UNL     1      -2.848 -10.370  11.309  0.00  0.00    -0.003 A 
ATOM     22  C   UNL     1      -2.251 -10.553  11.847  0.00  0.00    +0.000 A 
ATOM     23  C   UNL     1      -1.539 -10.137  11.832  0.00  0.00    +0.010 A 
ATOM     24  C   UNL     1      -1.424  -9.536  11.279  0.00  0.00    +0.068 A 
ATOM     25  C   UNL     1      -2.022  -9.352  10.740  0.00  0.00    +0.007 A 
BRANCH  24  26
ATOM     26  C   UNL     1      -0.712  -9.118  11.263  0.00  0.00    +0.100 C 
ATOM     27  N   UNL     1      -0.001  -8.702  11.248  0.00  0.00    -0.191 NA
ENDBRANCH  24  26
ENDBRANCH  19  20
ENDBRANCH  18  19
ENDBRANCH   3  18
TORSDOF 7
ENDMDL
MODEL 9
REMARK VINA RESULT:      -7.9     14.025     14.895
REMARK  Name = 
REMARK  7 active torsions:
REMARK  status: ('A' for Active; 'I' for Inactive)
REMARK    1  A    between atoms: C_3  and  N_18
REMARK    2  A    between atoms: C_6  and  C_7
REMARK    3  A    between atoms: C_7  and  N_8
REMARK    4  A    between atoms: N_11  and  C_12
REMARK    5  A    between atoms: N_18  and  C_19
REMARK    6  A    between atoms: C_19  and  C_20
REMARK    7  A    between atoms: C_24  and  C_26
REMARK                            x       y       z     vdW  Elec       q    Type
REMARK                         _______ _______ _______ _____ _____    ______ ____
ROOT
ATOM      1  O   UNL     1      -5.600 -10.123  15.181  0.00  0.00    -0.219 OA
ATOM      2  C   UNL     1      -5.427 -10.210  15.983  0.00  0.00    +0.199 C 
ATOM      3  C   UNL     1      -4.681 -10.354  16.305  0.00  0.00    +0.135 C 
ATOM      4  C   UNL     1      -4.761 -10.401  17.124  0.00  0.00    +0.162 C 
ATOM      5  O   UNL     1      -5.557 -10.286  17.309  0.00  0.00    -0.350 OA
ATOM      6  C   UNL     1      -5.968 -10.167  16.603  0.00  0.00    +0.169 C 
ENDROOT
BRANCH   6   7
ATOM      7  C   UNL     1      -6.778 -10.031  16.532  0.00  0.00    +0.149 C 
BRANCH   7   8
ATOM      8  N   UNL     1      -7.106  -9.331  16.819  0.00  0.00    -0.184 NA
ATOM      9  C   UNL     1      -7.926  -9.240  16.849  0.00  0.00    +0.344 C 
ATOM     10  O   UNL     1      -8.418  -9.851  16.591  0.00  0.00    -0.249 OA
ATOM     11  N   UNL     1      -8.254  -8.541  17.136  0.00  0.00    -0.161 NA
BRANCH  11  12
ATOM     12  C   UNL     1      -9.073  -8.450  17.166  0.00  0.00    +0.075 A 
ATOM     13  C   UNL     1      -9.449  -7.919  16.658  0.00  0.00    +0.017 A 
ATOM     14  C   UNL     1     -10.267  -7.829  16.688  0.00  0.00    +0.001 A 
ATOM     15  C   UNL     1     -10.712  -8.270  17.226  0.00  0.00    +0.000 A 
ATOM     16  C   UNL     1     -10.337  -8.801  17.733  0.00  0.00    +0.001 A 
ATOM     17  C   UNL     1      -9.517  -8.891  17.703  0.00  0.00    +0.017 A 
ENDBRANCH  11  12
ENDBRANCH   7   8
ENDBRANCH   6   7
BRANCH   3  18
ATOM     18  N   UNL     1      -3.977 -10.437  15.881  0.00  0.00    -0.209 NA
BRANCH  18  19
ATOM     19  C   UNL     1      -3.289 -10.677  16.267  0.00  0.00    +0.115 C 
BRANCH  19  20
ATOM     20  C   UNL     1      -2.568 -10.671  15.867  0.00  0.00    -0.004 A 
ATOM     21  C   UNL     1      -1.861 -10.729  16.289  0.00  0.00    -0.003 A 
ATOM     22  C   UNL     1      -1.140 -10.723  15.889  0.00  0.00    +0.000 A 
ATOM     23  C   UNL     1      -1.125 -10.659  15.066  0.00  0.00    +0.010 A 
ATOM     24  C   UNL     1      -1.831 -10.601  14.644  0.00  0.00    +0.068 A 
ATOM     25  C   UNL     1      -2.553 -10.607  15.045  0.00  0.00    +0.007 A 
BRANCH  24  26
ATOM     26  C   UNL     1      -1.817 -10.537  13.821  0.00  0.00    +0.100 C 
ATOM     27  N   UNL     1      -1.802 -10.473  12.999  0.00  0.00    -0.191 NA
ENDBRANCH  24  26
ENDBRANCH  19  20
ENDBRANCH  18  19
ENDBRANCH   3  18
TORSDOF 7
ENDMDL
MODEL 10
REMARK VINA RESULT:      -7.9     14.133     16.270
REMARK  Name = 
REMARK  7 active torsions:
REMARK  status: ('A' for Active; 'I' for Inactive)
REMARK    1  A    between atoms: C_3  and  N_18
REMARK    2  A    between atoms: C_6  and  C_7
REMARK    3  A    between atoms: C_7  and  N_8
REMARK    4  A    between atoms: N_11  and  C_12
REMARK    5  A    between atoms: N_18  and  C_19
REMARK    6  A    between atoms: C_19  and  C_20
REMARK    7  A    between atoms: C_24  and  C_26
REMARK                            x       y       z     vdW  Elec       q    Type
REMARK                         _______ _______ _______ _____ _____    ______ ____
ROOT
ATOM      1  O   UNL     1      -4.104 -10.626  14.566  0.00  0.00    -0.219 OA
ATOM      2  C   UNL     1      -4.896 -10.404  14.509  0.00  0.00    +0.199 C 
ATOM      3  C   UNL     1      -5.426 -10.336  15.137  0.00  0.00    +0.135 C 
ATOM      4  C   UNL     1      -6.155 -10.101  14.831  0.00  0.00    +0.162 C 
ATOM      5  O   UNL     1      -6.076 -10.024  14.014  0.00  0.00    -0.350 OA
ATOM      6  C   UNL     1      -5.297 -10.212  13.815  0.00  0.00    +0.169 C 
ENDROOT
BRANCH   6   7
ATOM      7  C   UNL     1      -4.977 -10.208  13.054  0.00  0.00    +0.149 C 
BRANCH   7   8
ATOM      8  N   UNL     1      -5.379  -9.834  12.439  0.00  0.00    -0.184 NA
ATOM      9  C   UNL     1      -5.031  -9.776  11.693  0.00  0.00    +0.344 C 
ATOM     10  O   UNL     1      -4.280 -10.092  11.563  0.00  0.00    -0.249 OA
ATOM     11  N   UNL     1      -5.434  -9.403  11.078  0.00  0.00    -0.161 NA
BRANCH  11  12
ATOM     12  C   UNL     1      -5.086  -9.345  10.333  0.00  0.00    +0.075 A 
ATOM     13  C   UNL     1      -4.794  -8.620  10.068  0.00  0.00    +0.017 A 
ATOM     14  C   UNL     1      -4.446  -8.562   9.323  0.00  0.00    +0.001 A 
ATOM     15  C   UNL     1      -4.389  -9.229   8.841  0.00  0.00    +0.000 A 
ATOM     16  C   UNL     1      -4.681  -9.954   9.105  0.00  0.00    +0.001 A 
ATOM     17  C   UNL     1      -5.029 -10.012   9.851  0.00  0.00    +0.017 A 
ENDBRANCH  11  12
ENDBRANCH   7   8
ENDBRANCH   6   7
BRANCH   3  18
ATOM     18  N   UNL     1      -5.257 -10.477  15.933  0.00  0.00    -0.209 NA
BRANCH  18  19
ATOM     19  C   UNL     1      -5.806 -10.275  16.514  0.00  0.00    +0.115 C 
BRANCH  19  20
ATOM     20  C   UNL     1      -5.645 -10.432  17.307  0.00  0.00    -0.004 A 
ATOM     21  C   UNL     1      -4.868 -10.565  17.551  0.00  0.00    -0.003 A 
ATOM     22  C   UNL     1      -4.706 -10.722  18.344  0.00  0.00    +0.000 A 
ATOM     23  C   UNL     1      -5.321 -10.747  18.894  0.00  0.00    +0.010 A 
ATOM     24  C   UNL     1      -6.098 -10.614  18.650  0.00  0.00    +0.068 A 
ATOM     25  C   UNL     1      -6.259 -10.457  17.856  0.00  0.00    +0.007 A 
BRANCH  24  26
ATOM     26  C   UNL     1      -6.713 -10.639  19.200  0.00  0.00    +0.100 C 
ATOM     27  N   UNL     1      -7.328 -10.664  19.748  0.00  0.00    -0.191 NA
ENDBRANCH  24  26
ENDBRANCH  19  20
ENDBRANCH  18  19
ENDBRANCH   3  18
TORSDOF 7
ENDMDL
