MODEL 1
REMARK VINA RESULT:     -13.4      0.000      0.000
REMARK  Name = 
REMARK  4 active torsions:
REMARK  status: ('A' for Active; 'I' for Inactive)
REMARK    1  A    between atoms: C_5  and  C_6
REMARK    2  A    between atoms: C_6  and  N_7
REMARK    3  A    between atoms: C_17  and  C_19
REMARK    4  A    between atoms: C_22  and  C_25
REMARK                            x       y       z     vdW  Elec       q    Type
REMARK                         _______ _______ _______ _____ _____    ______ ____
ROOT
ATOM      7  N   UNL     1      -3.947  -0.117  24.912  0.00  0.00    -0.258 N 
ATOM      8  C   UNL     1      -3.132  -0.108  25.044  0.00  0.00    +0.117 C 
ATOM      9  C   UNL     1      -2.879   0.676  25.018  0.00  0.00    +0.116 C 
ATOM     10  C   UNL     1      -2.134   1.020  25.110  0.00  0.00    +0.115 C 
ATOM     11  N   UNL     1      -2.047   1.838  25.055  0.00  0.00    -0.273 N 
ATOM     12  C   UNL     1      -2.705   2.314  24.908  0.00  0.00    +0.115 C 
ATOM     13  C   UNL     1      -3.450   1.971  24.816  0.00  0.00    +0.116 C 
ATOM     14  N   UNL     1      -3.537   1.152  24.872  0.00  0.00    -0.261 N 
ATOM     15  C   UNL     1      -4.196   0.662  24.806  0.00  0.00    +0.308 C 
ATOM     16  O   UNL     1      -4.971   0.907  24.660  0.00  0.00    -0.252 OA
ATOM     17  C   UNL     1      -1.303   2.182  25.146  0.00  0.00    +0.249 C 
ATOM     18  O   UNL     1      -0.645   1.706  25.293  0.00  0.00    -0.270 OA
ENDROOT
BRANCH  17  19
ATOM     19  C   UNL     1      -1.216   3.000  25.091  0.00  0.00    +0.054 A 
ATOM     20  C   UNL     1      -0.942   3.340  24.391  0.00  0.00    +0.004 A 
ATOM     21  C   UNL     1      -0.855   4.158  24.336  0.00  0.00    +0.004 A 
ATOM     22  C   UNL     1      -1.042   4.637  24.981  0.00  0.00    +0.071 A 
ATOM     23  C   UNL     1      -1.316   4.298  25.682  0.00  0.00    +0.004 A 
ATOM     24  C   UNL     1      -1.403   3.478  25.737  0.00  0.00    +0.004 A 
BRANCH  22  25
ATOM     25  C   UNL     1      -0.955   5.456  24.927  0.00  0.00    +0.419 C 
ATOM     26  F   UNL     1      -0.869   6.274  24.872  0.00  0.00    -0.166 F 
ATOM     27  F   UNL     1      -0.203   5.354  24.605  0.00  0.00    -0.166 F 
ATOM     28  F   UNL     1      -1.708   5.557  25.249  0.00  0.00    -0.166 F 
ENDBRANCH  22  25
ENDBRANCH  17  19
BRANCH   7   6
ATOM      6  C   UNL     1      -4.427  -0.788  24.891  0.00  0.00    +0.122 C 
BRANCH   6   5
ATOM      1  F   UNL     1      -3.165  -3.695  23.970  0.00  0.00    -0.204 F 
ATOM      2  C   UNL     1      -3.480  -2.968  24.201  0.00  0.00    +0.140 A 
ATOM      3  C   UNL     1      -3.378  -2.700  24.974  0.00  0.00    +0.029 A 
ATOM      4  C   UNL     1      -3.694  -1.974  25.205  0.00  0.00    -0.000 A 
ATOM      5  C   UNL     1      -4.111  -1.514  24.662  0.00  0.00    -0.002 A 
ATOM     29  C   UNL     1      -4.214  -1.782  23.887  0.00  0.00    -0.000 A 
ATOM     30  C   UNL     1      -3.898  -2.509  23.658  0.00  0.00    +0.029 A 
ENDBRANCH   6   5
ENDBRANCH   7   6
TORSDOF 4
ENDMDL
MODEL 2
REMARK VINA RESULT:     -13.3      0.796      6.202
REMARK  Name = 
REMARK  4 active torsions:
REMARK  status: ('A' for Active; 'I' for Inactive)
REMARK    1  A    between atoms: C_5  and  C_6
REMARK    2  A    between atoms: C_6  and  N_7
REMARK    3  A    between atoms: C_17  and  C_19
REMARK    4  A    between atoms: C_22  and  C_25
REMARK                            x       y       z     vdW  Elec       q    Type
REMARK                         _______ _______ _______ _____ _____    ______ ____
ROOT
ATOM      7  N   UNL     1      -1.012   2.431  25.319  0.00  0.00    -0.258 N 
ATOM      8  C   UNL     1      -1.836   2.414  25.372  0.00  0.00    +0.117 C 
ATOM      9  C   UNL     1      -2.086   1.648  25.198  0.00  0.00    +0.116 C 
ATOM     10  C   UNL     1      -2.836   1.306  25.165  0.00  0.00    +0.115 C 
ATOM     11  N   UNL     1      -2.918   0.509  24.971  0.00  0.00    -0.273 N 
ATOM     12  C   UNL     1      -2.250   0.053  24.809  0.00  0.00    +0.115 C 
ATOM     13  C   UNL     1      -1.500   0.394  24.841  0.00  0.00    +0.116 C 
ATOM     14  N   UNL     1      -1.418   1.192  25.036  0.00  0.00    -0.261 N 
ATOM     15  C   UNL     1      -0.754   1.676  25.111  0.00  0.00    +0.308 C 
ATOM     16  O   UNL     1       0.030   1.445  24.997  0.00  0.00    -0.252 OA
ATOM     17  C   UNL     1      -3.668   0.167  24.938  0.00  0.00    +0.249 C 
ATOM     18  O   UNL     1      -4.337   0.623  25.099  0.00  0.00    -0.270 OA
ENDROOT
BRANCH  17  19
ATOM     19  C   UNL     1      -3.751  -0.630  24.743  0.00  0.00    +0.054 A 
ATOM     20  C   UNL     1      -3.993  -0.848  23.985  0.00  0.00    +0.004 A 
ATOM     21  C   UNL     1      -4.075  -1.645  23.791  0.00  0.00    +0.004 A 
ATOM     22  C   UNL     1      -3.915  -2.225  24.355  0.00  0.00    +0.071 A 
ATOM     23  C   UNL     1      -3.673  -2.009  25.113  0.00  0.00    +0.004 A 
ATOM     24  C   UNL     1      -3.591  -1.211  25.307  0.00  0.00    +0.004 A 
BRANCH  22  25
ATOM     25  C   UNL     1      -3.997  -3.024  24.160  0.00  0.00    +0.419 C 
ATOM     26  F   UNL     1      -4.080  -3.821  23.966  0.00  0.00    -0.166 F 
ATOM     27  F   UNL     1      -3.589  -3.232  24.846  0.00  0.00    -0.166 F 
ATOM     28  F   UNL     1      -4.406  -2.814  23.475  0.00  0.00    -0.166 F 
ENDBRANCH  22  25
ENDBRANCH  17  19
BRANCH   7   6
ATOM      6  C   UNL     1      -0.532   3.089  25.450  0.00  0.00    +0.122 C 
BRANCH   6   5
ATOM      1  F   UNL     1      -1.622   6.110  24.695  0.00  0.00    -0.204 F 
ATOM      2  C   UNL     1      -1.350   5.355  24.884  0.00  0.00    +0.140 A 
ATOM      3  C   UNL     1      -1.682   4.943  25.516  0.00  0.00    +0.029 A 
ATOM      4  C   UNL     1      -1.410   4.187  25.706  0.00  0.00    -0.000 A 
ATOM      5  C   UNL     1      -0.805   3.844  25.262  0.00  0.00    -0.002 A 
ATOM     29  C   UNL     1      -0.472   4.257  24.628  0.00  0.00    -0.000 A 
ATOM     30  C   UNL     1      -0.745   5.012  24.440  0.00  0.00    +0.029 A 
ENDBRANCH   6   5
ENDBRANCH   7   6
TORSDOF 4
ENDMDL
