MODEL 1
REMARK VINA RESULT:      -9.0      0.000      0.000
REMARK  Name = 
REMARK  9 active torsions:
REMARK  status: ('A' for Active; 'I' for Inactive)
REMARK    1  A    between atoms: C_2  and  N_3
REMARK    2  A    between atoms: N_6  and  C_7
REMARK    3  A    between atoms: C_7  and  C_8
REMARK    4  A    between atoms: C_12  and  C_13
REMARK    5  A    between atoms: C_13  and  C_14
REMARK    6  A    between atoms: N_16  and  C_17
REMARK    7  A    between atoms: C_17  and  C_18
REMARK    8  A    between atoms: C_21  and  O_22
REMARK    9  A    between atoms: C_27  and  C_28
REMARK                            x       y       z     vdW  Elec       q    Type
REMARK                         _______ _______ _______ _____ _____    ______ ____
ROOT
ATOM      8  C   UNL     1      -0.501   0.380  24.238  0.00  0.00    +0.043 C 
ATOM      9  C   UNL     1      -0.600  -0.438  24.283  0.00  0.00    -0.033 C 
ATOM     10  C   UNL     1      -1.313  -0.751  24.558  0.00  0.00    -0.048 C 
ATOM     11  C   UNL     1      -1.413  -1.569  24.603  0.00  0.00    +0.026 C 
ATOM     12  C   UNL     1      -1.925  -0.248  24.787  0.00  0.00    +0.027 C 
ATOM     26  C   UNL     1      -1.824   0.570  24.741  0.00  0.00    +0.005 C 
ATOM     27  C   UNL     1      -1.113   0.884  24.467  0.00  0.00    +0.006 C 
ENDROOT
BRANCH  27  28
ATOM     28  C   UNL     1      -1.012   1.702  24.421  0.00  0.00    +0.000 C 
ATOM     29  C   UNL     1      -0.728   2.120  25.073  0.00  0.00    +0.000 C 
ATOM     30  C   UNL     1      -1.196   2.101  23.723  0.00  0.00    +0.000 C 
ENDBRANCH  27  28
BRANCH   8   7
ATOM      7  C   UNL     1       0.212   0.694  23.964  0.00  0.00    +0.121 C 
BRANCH   7   6
ATOM      3  N   UNL     1       1.932   0.057  22.782  0.00  0.00    -0.187 NA
ATOM      4  C   UNL     1       1.458   0.498  23.293  0.00  0.00    +0.339 C 
ATOM      5  O   UNL     1       1.755   1.181  23.645  0.00  0.00    -0.249 OA
ATOM      6  N   UNL     1       0.686   0.253  23.452  0.00  0.00    -0.187 NA
BRANCH   3   2
ATOM      1  C   UNL     1       3.096   0.020  21.953  0.00  0.00    +0.025 C 
ATOM      2  C   UNL     1       2.705   0.302  22.623  0.00  0.00    +0.117 C 
ENDBRANCH   3   2
ENDBRANCH   7   6
ENDBRANCH   8   7
BRANCH  12  13
ATOM     13  C   UNL     1      -2.636  -0.561  25.061  0.00  0.00    +0.091 C 
BRANCH  13  14
ATOM     14  C   UNL     1      -3.350  -0.331  24.715  0.00  0.00    +0.242 C 
ATOM     15  O   UNL     1      -3.586  -0.662  23.998  0.00  0.00    -0.273 OA
ATOM     16  N   UNL     1      -3.827   0.229  25.087  0.00  0.00    -0.201 NA
BRANCH  16  17
ATOM     17  C   UNL     1      -4.539   0.459  24.742  0.00  0.00    +0.141 C 
BRANCH  17  18
ATOM     18  C   UNL     1      -4.890   1.175  24.956  0.00  0.00    -0.000 A 
ATOM     19  C   UNL     1      -4.737   1.857  24.518  0.00  0.00    +0.001 A 
ATOM     20  C   UNL     1      -5.088   2.572  24.731  0.00  0.00    +0.037 A 
ATOM     21  C   UNL     1      -5.592   2.605  25.384  0.00  0.00    +0.139 A 
ATOM     24  C   UNL     1      -5.746   1.924  25.822  0.00  0.00    +0.037 A 
ATOM     25  C   UNL     1      -5.394   1.208  25.608  0.00  0.00    +0.001 A 
BRANCH  21  22
ATOM     22  O   UNL     1      -5.944   3.320  25.598  0.00  0.00    -0.471 OA
ATOM     23  C   UNL     1      -5.516   4.024  25.538  0.00  0.00    +0.252 C 
ENDBRANCH  21  22
ENDBRANCH  17  18
ENDBRANCH  16  17
ENDBRANCH  13  14
ENDBRANCH  12  13
TORSDOF 9
ENDMDL
MODEL 2
REMARK VINA RESULT:      -8.9      1.578      3.006
REMARK  Name = 
REMARK  9 active torsions:
REMARK  status: ('A' for Active; 'I' for Inactive)
REMARK    1  A    between atoms: C_2  and  N_3
REMARK    2  A    between atoms: N_6  and  C_7
REMARK    3  A    between atoms: C_7  and  C_8
REMARK    4  A    between atoms: C_12  and  C_13
REMARK    5  A    between atoms: C_13  and  C_14
REMARK    6  A    between atoms: N_16  and  C_17
REMARK    7  A    between atoms: C_17  and  C_18
REMARK    8  A    between atoms: C_21  and  O_22
REMARK    9  A    between atoms: C_27  and  C_28
REMARK                            x       y       z     vdW  Elec       q    Type
REMARK                         _______ _______ _______ _____ _____    ______ ____
ROOT
ATOM      8  C   UNL     1      -0.763   1.791  24.162  0.00  0.00    +0.043 C 
ATOM      9  C   UNL     1      -1.157   1.823  23.439  0.00  0.00    -0.033 C 
ATOM     10  C   UNL     1      -1.976   1.925  23.420  0.00  0.00    -0.048 C 
ATOM     11  C   UNL     1      -2.370   1.957  22.696  0.00  0.00    +0.026 C 
ATOM     12  C   UNL     1      -2.400   1.994  24.124  0.00  0.00    +0.027 C 
ATOM     26  C   UNL     1      -2.004   1.962  24.848  0.00  0.00    +0.005 C 
ATOM     27  C   UNL     1      -1.186   1.861  24.867  0.00  0.00    +0.006 C 
ENDROOT
BRANCH  27  28
ATOM     28  C   UNL     1      -0.791   1.828  25.590  0.00  0.00    +0.000 C 
ATOM     29  C   UNL     1      -0.673   1.104  25.965  0.00  0.00    +0.000 C 
ATOM     30  C   UNL     1      -0.513   2.523  25.939  0.00  0.00    +0.000 C 
ENDBRANCH  27  28
BRANCH   8   7
ATOM      7  C   UNL     1       0.056   1.690  24.181  0.00  0.00    +0.121 C 
BRANCH   7   6
ATOM      3  N   UNL     1       1.577   0.579  23.078  0.00  0.00    -0.187 NA
ATOM      4  C   UNL     1       1.222   1.152  23.553  0.00  0.00    +0.339 C 
ATOM      5  O   UNL     1       1.676   1.759  23.876  0.00  0.00    -0.249 OA
ATOM      6  N   UNL     1       0.411   1.117  23.706  0.00  0.00    -0.187 NA
BRANCH   3   2
ATOM      1  C   UNL     1       2.729   0.091  22.387  0.00  0.00    +0.025 C 
ATOM      2  C   UNL     1       2.388   0.615  22.925  0.00  0.00    +0.117 C 
ENDBRANCH   3   2
ENDBRANCH   7   6
ENDBRANCH   8   7
BRANCH  12  13
ATOM     13  C   UNL     1      -3.218   2.096  24.105  0.00  0.00    +0.091 C 
BRANCH  13  14
ATOM     14  C   UNL     1      -3.708   1.578  24.520  0.00  0.00    +0.242 C 
ATOM     15  O   UNL     1      -4.134   1.848  25.173  0.00  0.00    -0.273 OA
ATOM     16  N   UNL     1      -3.774   0.791  24.283  0.00  0.00    -0.201 NA
BRANCH  16  17
ATOM     17  C   UNL     1      -4.264   0.275  24.698  0.00  0.00    +0.141 C 
BRANCH  17  18
ATOM     18  C   UNL     1      -4.154  -0.541  24.634  0.00  0.00    -0.000 A 
ATOM     19  C   UNL     1      -3.809  -0.961  25.255  0.00  0.00    +0.001 A 
ATOM     20  C   UNL     1      -3.698  -1.776  25.191  0.00  0.00    +0.037 A 
ATOM     21  C   UNL     1      -3.933  -2.171  24.506  0.00  0.00    +0.139 A 
ATOM     24  C   UNL     1      -4.278  -1.752  23.885  0.00  0.00    +0.037 A 
ATOM     25  C   UNL     1      -4.388  -0.936  23.949  0.00  0.00    +0.001 A 
BRANCH  21  22
ATOM     22  O   UNL     1      -3.823  -2.986  24.441  0.00  0.00    -0.471 OA
ATOM     23  C   UNL     1      -3.098  -3.322  24.649  0.00  0.00    +0.252 C 
ENDBRANCH  21  22
ENDBRANCH  17  18
ENDBRANCH  16  17
ENDBRANCH  13  14
ENDBRANCH  12  13
TORSDOF 9
ENDMDL
MODEL 3
REMARK VINA RESULT:      -8.7      1.444      2.515
REMARK  Name = 
REMARK  9 active torsions:
REMARK  status: ('A' for Active; 'I' for Inactive)
REMARK    1  A    between atoms: C_2  and  N_3
REMARK    2  A    between atoms: N_6  and  C_7
REMARK    3  A    between atoms: C_7  and  C_8
REMARK    4  A    between atoms: C_12  and  C_13
REMARK    5  A    between atoms: C_13  and  C_14
REMARK    6  A    between atoms: N_16  and  C_17
REMARK    7  A    between atoms: C_17  and  C_18
REMARK    8  A    between atoms: C_21  and  O_22
REMARK    9  A    between atoms: C_27  and  C_28
REMARK                            x       y       z     vdW  Elec       q    Type
REMARK                         _______ _______ _______ _____ _____    ______ ____
ROOT
ATOM      8  C   UNL     1      -0.355   1.534  24.544  0.00  0.00    +0.043 C 
ATOM      9  C   UNL     1      -0.004   2.279  24.595  0.00  0.00    -0.033 C 
ATOM     10  C   UNL     1      -0.386   2.888  25.002  0.00  0.00    -0.048 C 
ATOM     11  C   UNL     1      -0.035   3.633  25.052  0.00  0.00    +0.026 C 
ATOM     12  C   UNL     1      -1.118   2.751  25.357  0.00  0.00    +0.027 C 
ATOM     26  C   UNL     1      -1.468   2.005  25.305  0.00  0.00    +0.005 C 
ATOM     27  C   UNL     1      -1.087   1.398  24.899  0.00  0.00    +0.006 C 
ENDROOT
BRANCH  27  28
ATOM     28  C   UNL     1      -1.437   0.652  24.848  0.00  0.00    +0.000 C 
ATOM     29  C   UNL     1      -1.303   0.091  25.437  0.00  0.00    +0.000 C 
ATOM     30  C   UNL     1      -1.921   0.468  24.206  0.00  0.00    +0.000 C 
ENDBRANCH  27  28
BRANCH   8   7
ATOM      7  C   UNL     1       0.027   0.926  24.138  0.00  0.00    +0.121 C 
BRANCH   7   6
ATOM      3  N   UNL     1       1.879   0.595  23.031  0.00  0.00    -0.187 NA
ATOM      4  C   UNL     1       1.128   0.470  23.349  0.00  0.00    +0.339 C 
ATOM      5  O   UNL     1       0.728  -0.234  23.196  0.00  0.00    -0.249 OA
ATOM      6  N   UNL     1       0.778   1.051  23.820  0.00  0.00    -0.187 NA
BRANCH   3   2
ATOM      1  C   UNL     1       2.988   0.131  22.259  0.00  0.00    +0.025 C 
ATOM      2  C   UNL     1       2.229   0.015  22.560  0.00  0.00    +0.117 C 
ENDBRANCH   3   2
ENDBRANCH   7   6
ENDBRANCH   8   7
BRANCH  12  13
ATOM     13  C   UNL     1      -1.500   3.359  25.762  0.00  0.00    +0.091 C 
BRANCH  13  14
ATOM     14  C   UNL     1      -2.181   3.702  25.448  0.00  0.00    +0.242 C 
ATOM     15  O   UNL     1      -2.119   4.326  24.913  0.00  0.00    -0.273 OA
ATOM     16  N   UNL     1      -2.924   3.421  25.669  0.00  0.00    -0.201 NA
BRANCH  16  17
ATOM     17  C   UNL     1      -3.605   3.763  25.355  0.00  0.00    +0.141 C 
BRANCH  17  18
ATOM     18  C   UNL     1      -4.307   3.330  25.320  0.00  0.00    -0.000 A 
ATOM     19  C   UNL     1      -4.534   2.967  24.615  0.00  0.00    +0.001 A 
ATOM     20  C   UNL     1      -5.235   2.535  24.580  0.00  0.00    +0.037 A 
ATOM     21  C   UNL     1      -5.710   2.466  25.250  0.00  0.00    +0.139 A 
ATOM     24  C   UNL     1      -5.485   2.828  25.956  0.00  0.00    +0.037 A 
ATOM     25  C   UNL     1      -4.782   3.261  25.991  0.00  0.00    +0.001 A 
BRANCH  21  22
ATOM     22  O   UNL     1      -6.412   2.033  25.216  0.00  0.00    -0.471 OA
ATOM     23  C   UNL     1      -6.412   1.271  24.900  0.00  0.00    +0.252 C 
ENDBRANCH  21  22
ENDBRANCH  17  18
ENDBRANCH  16  17
ENDBRANCH  13  14
ENDBRANCH  12  13
TORSDOF 9
ENDMDL
MODEL 4
REMARK VINA RESULT:      -8.6      2.697      4.793
REMARK  Name = 
REMARK  9 active torsions:
REMARK  status: ('A' for Active; 'I' for Inactive)
REMARK    1  A    between atoms: C_2  and  N_3
REMARK    2  A    between atoms: N_6  and  C_7
REMARK    3  A    between atoms: C_7  and  C_8
REMARK    4  A    between atoms: C_12  and  C_13
REMARK    5  A    between atoms: C_13  and  C_14
REMARK    6  A    between atoms: N_16  and  C_17
REMARK    7  A    between atoms: C_17  and  C_18
REMARK    8  A    between atoms: C_21  and  O_22
REMARK    9  A    between atoms: C_27  and  C_28
REMARK                            x       y       z     vdW  Elec       q    Type
REMARK                         _______ _______ _______ _____ _____    ______ ____
ROOT
ATOM      8  C   UNL     1      -4.191   0.739  24.281  0.00  0.00    +0.043 C 
ATOM      9  C   UNL     1      -4.839   0.805  24.787  0.00  0.00    -0.033 C 
ATOM     10  C   UNL     1      -5.056   1.545  25.083  0.00  0.00    -0.048 C 
ATOM     11  C   UNL     1      -5.704   1.612  25.589  0.00  0.00    +0.026 C 
ATOM     12  C   UNL     1      -4.626   2.216  24.872  0.00  0.00    +0.027 C 
ATOM     26  C   UNL     1      -3.978   2.148  24.366  0.00  0.00    +0.005 C 
ATOM     27  C   UNL     1      -3.761   1.410  24.070  0.00  0.00    +0.006 C 
ENDROOT
BRANCH  27  28
ATOM     28  C   UNL     1      -3.113   1.342  23.563  0.00  0.00    +0.000 C 
ATOM     29  C   UNL     1      -2.383   1.097  23.857  0.00  0.00    +0.000 C 
ATOM     30  C   UNL     1      -3.196   1.520  22.762  0.00  0.00    +0.000 C 
ENDBRANCH  27  28
BRANCH   8   7
ATOM      7  C   UNL     1      -3.974  -0.001  23.984  0.00  0.00    +0.121 C 
BRANCH   7   6
ATOM      3  N   UNL     1      -3.856  -2.063  24.688  0.00  0.00    -0.187 NA
ATOM      4  C   UNL     1      -3.902  -1.414  24.181  0.00  0.00    +0.339 C 
ATOM      5  O   UNL     1      -3.923  -1.529  23.365  0.00  0.00    -0.249 OA
ATOM      6  N   UNL     1      -3.928  -0.650  24.491  0.00  0.00    -0.187 NA
BRANCH   3   2
ATOM      1  C   UNL     1      -3.415  -3.420  24.774  0.00  0.00    +0.025 C 
ATOM      2  C   UNL     1      -3.831  -2.828  24.377  0.00  0.00    +0.117 C 
ENDBRANCH   3   2
ENDBRANCH   7   6
ENDBRANCH   8   7
BRANCH  12  13
ATOM     13  C   UNL     1      -4.843   2.955  25.168  0.00  0.00    +0.091 C 
BRANCH  13  14
ATOM     14  C   UNL     1      -4.334   3.364  25.673  0.00  0.00    +0.242 C 
ATOM     15  O   UNL     1      -4.446   3.326  26.490  0.00  0.00    -0.273 OA
ATOM     16  N   UNL     1      -3.714   3.809  25.363  0.00  0.00    -0.201 NA
BRANCH  16  17
ATOM     17  C   UNL     1      -3.206   4.218  25.867  0.00  0.00    +0.141 C 
BRANCH  17  18
ATOM     18  C   UNL     1      -2.464   4.459  25.600  0.00  0.00    -0.000 A 
ATOM     19  C   UNL     1      -1.803   3.979  25.724  0.00  0.00    +0.001 A 
ATOM     20  C   UNL     1      -1.062   4.220  25.457  0.00  0.00    +0.037 A 
ATOM     21  C   UNL     1      -0.979   4.942  25.066  0.00  0.00    +0.139 A 
ATOM     24  C   UNL     1      -1.638   5.422  24.941  0.00  0.00    +0.037 A 
ATOM     25  C   UNL     1      -2.381   5.180  25.209  0.00  0.00    +0.001 A 
BRANCH  21  22
ATOM     22  O   UNL     1      -0.237   5.184  24.798  0.00  0.00    -0.471 OA
ATOM     23  C   UNL     1       0.072   4.869  24.100  0.00  0.00    +0.252 C 
ENDBRANCH  21  22
ENDBRANCH  17  18
ENDBRANCH  16  17
ENDBRANCH  13  14
ENDBRANCH  12  13
TORSDOF 9
ENDMDL
MODEL 5
REMARK VINA RESULT:      -8.5      1.471      6.433
REMARK  Name = 
REMARK  9 active torsions:
REMARK  status: ('A' for Active; 'I' for Inactive)
REMARK    1  A    between atoms: C_2  and  N_3
REMARK    2  A    between atoms: N_6  and  C_7
REMARK    3  A    between atoms: C_7  and  C_8
REMARK    4  A    between atoms: C_12  and  C_13
REMARK    5  A    between atoms: C_13  and  C_14
REMARK    6  A    between atoms: N_16  and  C_17
REMARK    7  A    between atoms: C_17  and  C_18
REMARK    8  A    between atoms: C_21  and  O_22
REMARK    9  A    between atoms: C_27  and  C_28
REMARK                            x       y       z     vdW  Elec       q    Type
REMARK                         _______ _______ _______ _____ _____    ______ ____
ROOT
ATOM      8  C   UNL     1      -1.524   1.591  24.708  0.00  0.00    +0.043 C 
ATOM      9  C   UNL     1      -1.778   0.819  24.566  0.00  0.00    -0.033 C 
ATOM     10  C   UNL     1      -1.237   0.245  24.323  0.00  0.00    -0.048 C 
ATOM     11  C   UNL     1      -1.492  -0.527  24.181  0.00  0.00    +0.026 C 
ATOM     12  C   UNL     1      -0.442   0.443  24.223  0.00  0.00    +0.027 C 
ATOM     26  C   UNL     1      -0.189   1.215  24.366  0.00  0.00    +0.005 C 
ATOM     27  C   UNL     1      -0.729   1.788  24.608  0.00  0.00    +0.006 C 
ENDROOT
BRANCH  27  28
ATOM     28  C   UNL     1      -0.476   2.561  24.751  0.00  0.00    +0.000 C 
ATOM     29  C   UNL     1      -0.499   3.121  24.147  0.00  0.00    +0.000 C 
ATOM     30  C   UNL     1      -0.198   2.772  25.499  0.00  0.00    +0.000 C 
ENDBRANCH  27  28
BRANCH   8   7
ATOM      7  C   UNL     1      -2.065   2.165  24.951  0.00  0.00    +0.121 C 
BRANCH   7   6
ATOM      3  N   UNL     1      -4.225   2.429  25.117  0.00  0.00    -0.187 NA
ATOM      4  C   UNL     1      -3.415   2.574  25.176  0.00  0.00    +0.339 C 
ATOM      5  O   UNL     1      -3.146   3.274  25.519  0.00  0.00    -0.249 OA
ATOM      6  N   UNL     1      -2.875   2.019  24.892  0.00  0.00    -0.187 NA
BRANCH   3   2
ATOM      1  C   UNL     1      -5.566   2.790  25.453  0.00  0.00    +0.025 C 
ATOM      2  C   UNL     1      -4.766   2.984  25.401  0.00  0.00    +0.117 C 
ENDBRANCH   3   2
ENDBRANCH   7   6
ENDBRANCH   8   7
BRANCH  12  13
ATOM     13  C   UNL     1       0.098  -0.131  23.981  0.00  0.00    +0.091 C 
BRANCH  13  14
ATOM     14  C   UNL     1       0.571   0.001  23.318  0.00  0.00    +0.242 C 
ATOM     15  O   UNL     1       0.223   0.127  22.581  0.00  0.00    -0.273 OA
ATOM     16  N   UNL     1       1.392   0.006  23.392  0.00  0.00    -0.201 NA
BRANCH  16  17
ATOM     17  C   UNL     1       1.865   0.138  22.730  0.00  0.00    +0.141 C 
BRANCH  17  18
ATOM     18  C   UNL     1       2.683   0.207  22.813  0.00  0.00    -0.000 A 
ATOM     19  C   UNL     1       3.137  -0.454  23.005  0.00  0.00    +0.001 A 
ATOM     20  C   UNL     1       3.954  -0.385  23.088  0.00  0.00    +0.037 A 
ATOM     21  C   UNL     1       4.319   0.347  22.979  0.00  0.00    +0.139 A 
ATOM     24  C   UNL     1       3.866   1.009  22.787  0.00  0.00    +0.037 A 
ATOM     25  C   UNL     1       3.048   0.939  22.704  0.00  0.00    +0.001 A 
BRANCH  21  22
ATOM     22  O   UNL     1       5.137   0.418  23.062  0.00  0.00    -0.471 OA
ATOM     23  C   UNL     1       5.516   0.075  23.710  0.00  0.00    +0.252 C 
ENDBRANCH  21  22
ENDBRANCH  17  18
ENDBRANCH  16  17
ENDBRANCH  13  14
ENDBRANCH  12  13
TORSDOF 9
ENDMDL
MODEL 6
REMARK VINA RESULT:      -8.3      2.798      4.996
REMARK  Name = 
REMARK  9 active torsions:
REMARK  status: ('A' for Active; 'I' for Inactive)
REMARK    1  A    between atoms: C_2  and  N_3
REMARK    2  A    between atoms: N_6  and  C_7
REMARK    3  A    between atoms: C_7  and  C_8
REMARK    4  A    between atoms: C_12  and  C_13
REMARK    5  A    between atoms: C_13  and  C_14
REMARK    6  A    between atoms: N_16  and  C_17
REMARK    7  A    between atoms: C_17  and  C_18
REMARK    8  A    between atoms: C_21  and  O_22
REMARK    9  A    between atoms: C_27  and  C_28
REMARK                            x       y       z     vdW  Elec       q    Type
REMARK                         _______ _______ _______ _____ _____    ______ ____
ROOT
ATOM      8  C   UNL     1      -4.219   0.781  24.124  0.00  0.00    +0.043 C 
ATOM      9  C   UNL     1      -3.647   0.913  23.545  0.00  0.00    -0.033 C 
ATOM     10  C   UNL     1      -3.409   1.684  23.369  0.00  0.00    -0.048 C 
ATOM     11  C   UNL     1      -2.836   1.816  22.790  0.00  0.00    +0.026 C 
ATOM     12  C   UNL     1      -3.743   2.321  23.772  0.00  0.00    +0.027 C 
ATOM     26  C   UNL     1      -4.316   2.188  24.351  0.00  0.00    +0.005 C 
ATOM     27  C   UNL     1      -4.554   1.418  24.527  0.00  0.00    +0.006 C 
ENDROOT
BRANCH  27  28
ATOM     28  C   UNL     1      -5.127   1.285  25.105  0.00  0.00    +0.000 C 
ATOM     29  C   UNL     1      -4.900   1.097  25.875  0.00  0.00    +0.000 C 
ATOM     30  C   UNL     1      -5.927   1.339  24.913  0.00  0.00    +0.000 C 
ENDBRANCH  27  28
BRANCH   8   7
ATOM      7  C   UNL     1      -4.457   0.010  24.300  0.00  0.00    +0.121 C 
BRANCH   7   6
ATOM      3  N   UNL     1      -3.529  -1.964  24.366  0.00  0.00    -0.187 NA
ATOM      4  C   UNL     1      -4.094  -1.372  24.265  0.00  0.00    +0.339 C 
ATOM      5  O   UNL     1      -4.859  -1.567  24.029  0.00  0.00    -0.249 OA
ATOM      6  N   UNL     1      -3.892  -0.582  24.401  0.00  0.00    -0.187 NA
BRANCH   3   2
ATOM      1  C   UNL     1      -3.273  -3.357  24.557  0.00  0.00    +0.025 C 
ATOM      2  C   UNL     1      -3.730  -2.753  24.230  0.00  0.00    +0.117 C 
ENDBRANCH   3   2
ENDBRANCH   7   6
ENDBRANCH   8   7
BRANCH  12  13
ATOM     13  C   UNL     1      -3.505   3.090  23.596  0.00  0.00    +0.091 C 
BRANCH  13  14
ATOM     14  C   UNL     1      -3.136   3.551  24.172  0.00  0.00    +0.242 C 
ATOM     15  O   UNL     1      -3.545   4.173  24.527  0.00  0.00    -0.273 OA
ATOM     16  N   UNL     1      -2.358   3.389  24.394  0.00  0.00    -0.201 NA
BRANCH  16  17
ATOM     17  C   UNL     1      -1.990   3.849  24.970  0.00  0.00    +0.141 C 
BRANCH  17  18
ATOM     18  C   UNL     1      -1.317   3.568  25.356  0.00  0.00    -0.000 A 
ATOM     19  C   UNL     1      -0.573   3.655  25.008  0.00  0.00    +0.001 A 
ATOM     20  C   UNL     1       0.098   3.373  25.394  0.00  0.00    +0.037 A 
ATOM     21  C   UNL     1       0.028   3.004  26.128  0.00  0.00    +0.139 A 
ATOM     24  C   UNL     1      -0.715   2.916  26.477  0.00  0.00    +0.037 A 
ATOM     25  C   UNL     1      -1.388   3.198  26.090  0.00  0.00    +0.001 A 
BRANCH  21  22
ATOM     22  O   UNL     1       0.699   2.722  26.515  0.00  0.00    -0.471 OA
ATOM     23  C   UNL     1       0.632   2.389  27.268  0.00  0.00    +0.252 C 
ENDBRANCH  21  22
ENDBRANCH  17  18
ENDBRANCH  16  17
ENDBRANCH  13  14
ENDBRANCH  12  13
TORSDOF 9
ENDMDL
MODEL 7
REMARK VINA RESULT:      -8.1      1.968      5.115
REMARK  Name = 
REMARK  9 active torsions:
REMARK  status: ('A' for Active; 'I' for Inactive)
REMARK    1  A    between atoms: C_2  and  N_3
REMARK    2  A    between atoms: N_6  and  C_7
REMARK    3  A    between atoms: C_7  and  C_8
REMARK    4  A    between atoms: C_12  and  C_13
REMARK    5  A    between atoms: C_13  and  C_14
REMARK    6  A    between atoms: N_16  and  C_17
REMARK    7  A    between atoms: C_17  and  C_18
REMARK    8  A    between atoms: C_21  and  O_22
REMARK    9  A    between atoms: C_27  and  C_28
REMARK                            x       y       z     vdW  Elec       q    Type
REMARK                         _______ _______ _______ _____ _____    ______ ____
ROOT
ATOM      8  C   UNL     1      -2.319   2.464  24.321  0.00  0.00    +0.043 C 
ATOM      9  C   UNL     1      -1.870   2.563  25.006  0.00  0.00    -0.033 C 
ATOM     10  C   UNL     1      -1.185   2.116  25.117  0.00  0.00    -0.048 C 
ATOM     11  C   UNL     1      -0.735   2.215  25.802  0.00  0.00    +0.026 C 
ATOM     12  C   UNL     1      -0.949   1.571  24.544  0.00  0.00    +0.027 C 
ATOM     26  C   UNL     1      -1.400   1.473  23.859  0.00  0.00    +0.005 C 
ATOM     27  C   UNL     1      -2.084   1.919  23.748  0.00  0.00    +0.006 C 
ENDROOT
BRANCH  27  28
ATOM     28  C   UNL     1      -2.534   1.821  23.063  0.00  0.00    +0.000 C 
ATOM     29  C   UNL     1      -3.154   1.278  23.051  0.00  0.00    +0.000 C 
ATOM     30  C   UNL     1      -2.363   2.268  22.391  0.00  0.00    +0.000 C 
ENDBRANCH  27  28
BRANCH   8   7
ATOM      7  C   UNL     1      -3.004   2.911  24.209  0.00  0.00    +0.121 C 
BRANCH   7   6
ATOM      3  N   UNL     1      -4.682   3.636  25.402  0.00  0.00    -0.187 NA
ATOM      4  C   UNL     1      -4.130   3.570  24.793  0.00  0.00    +0.339 C 
ATOM      5  O   UNL     1      -4.150   4.096  24.159  0.00  0.00    -0.249 OA
ATOM      6  N   UNL     1      -3.557   2.976  24.819  0.00  0.00    -0.187 NA
BRANCH   3   2
ATOM      1  C   UNL     1      -5.978   4.120  25.759  0.00  0.00    +0.025 C 
ATOM      2  C   UNL     1      -5.256   4.229  25.376  0.00  0.00    +0.117 C 
ENDBRANCH   3   2
ENDBRANCH   7   6
ENDBRANCH   8   7
BRANCH  12  13
ATOM     13  C   UNL     1      -0.265   1.125  24.655  0.00  0.00    +0.091 C 
BRANCH  13  14
ATOM     14  C   UNL     1      -0.249   0.330  24.435  0.00  0.00    +0.242 C 
ATOM     15  O   UNL     1       0.170   0.097  23.764  0.00  0.00    -0.273 OA
ATOM     16  N   UNL     1      -0.652  -0.231  24.884  0.00  0.00    -0.201 NA
BRANCH  16  17
ATOM     17  C   UNL     1      -0.636  -1.025  24.663  0.00  0.00    +0.141 C 
BRANCH  17  18
ATOM     18  C   UNL     1      -1.313  -1.491  24.743  0.00  0.00    -0.000 A 
ATOM     19  C   UNL     1      -1.812  -1.387  25.392  0.00  0.00    +0.001 A 
ATOM     20  C   UNL     1      -2.488  -1.852  25.471  0.00  0.00    +0.037 A 
ATOM     21  C   UNL     1      -2.666  -2.421  24.901  0.00  0.00    +0.139 A 
ATOM     24  C   UNL     1      -2.168  -2.526  24.253  0.00  0.00    +0.037 A 
ATOM     25  C   UNL     1      -1.491  -2.060  24.173  0.00  0.00    +0.001 A 
BRANCH  21  22
ATOM     22  O   UNL     1      -3.343  -2.887  24.980  0.00  0.00    -0.471 OA
ATOM     23  C   UNL     1      -3.921  -2.877  24.391  0.00  0.00    +0.252 C 
ENDBRANCH  21  22
ENDBRANCH  17  18
ENDBRANCH  16  17
ENDBRANCH  13  14
ENDBRANCH  12  13
TORSDOF 9
ENDMDL
MODEL 8
REMARK VINA RESULT:      -8.0      1.222      6.152
REMARK  Name = 
REMARK  9 active torsions:
REMARK  status: ('A' for Active; 'I' for Inactive)
REMARK    1  A    between atoms: C_2  and  N_3
REMARK    2  A    between atoms: N_6  and  C_7
REMARK    3  A    between atoms: C_7  and  C_8
REMARK    4  A    between atoms: C_12  and  C_13
REMARK    5  A    between atoms: C_13  and  C_14
REMARK    6  A    between atoms: N_16  and  C_17
REMARK    7  A    between atoms: C_17  and  C_18
REMARK    8  A    between atoms: C_21  and  O_22
REMARK    9  A    between atoms: C_27  and  C_28
REMARK                            x       y       z     vdW  Elec       q    Type
REMARK                         _______ _______ _______ _____ _____    ______ ____
ROOT
ATOM      8  C   UNL     1      -3.045   0.538  24.924  0.00  0.00    +0.043 C 
ATOM      9  C   UNL     1      -2.438   1.004  25.234  0.00  0.00    -0.033 C 
ATOM     10  C   UNL     1      -1.662   0.721  25.237  0.00  0.00    -0.048 C 
ATOM     11  C   UNL     1      -1.056   1.187  25.546  0.00  0.00    +0.026 C 
ATOM     12  C   UNL     1      -1.494  -0.027  24.932  0.00  0.00    +0.027 C 
ATOM     26  C   UNL     1      -2.102  -0.492  24.623  0.00  0.00    +0.005 C 
ATOM     27  C   UNL     1      -2.877  -0.209  24.619  0.00  0.00    +0.006 C 
ENDROOT
BRANCH  27  28
ATOM     28  C   UNL     1      -3.485  -0.674  24.310  0.00  0.00    +0.000 C 
ATOM     29  C   UNL     1      -3.724  -0.574  23.527  0.00  0.00    +0.000 C 
ATOM     30  C   UNL     1      -3.853  -1.239  24.785  0.00  0.00    +0.000 C 
ENDBRANCH  27  28
BRANCH   8   7
ATOM      7  C   UNL     1      -3.820   0.821  24.921  0.00  0.00    +0.121 C 
BRANCH   7   6
ATOM      3  N   UNL     1      -4.839   2.729  25.217  0.00  0.00    -0.187 NA
ATOM      4  C   UNL     1      -4.697   1.916  25.194  0.00  0.00    +0.339 C 
ATOM      5  O   UNL     1      -5.287   1.388  25.421  0.00  0.00    -0.249 OA
ATOM      6  N   UNL     1      -3.963   1.633  24.943  0.00  0.00    -0.187 NA
BRANCH   3   2
ATOM      1  C   UNL     1      -5.691   3.823  25.562  0.00  0.00    +0.025 C 
ATOM      2  C   UNL     1      -5.573   3.012  25.467  0.00  0.00    +0.117 C 
ENDBRANCH   3   2
ENDBRANCH   7   6
ENDBRANCH   8   7
BRANCH  12  13
ATOM     13  C   UNL     1      -0.720  -0.309  24.936  0.00  0.00    +0.091 C 
BRANCH  13  14
ATOM     14  C   UNL     1      -0.362  -0.545  24.230  0.00  0.00    +0.242 C 
ATOM     15  O   UNL     1      -0.588  -1.252  23.871  0.00  0.00    -0.273 OA
ATOM     16  N   UNL     1       0.220  -0.074  23.885  0.00  0.00    -0.201 NA
BRANCH  16  17
ATOM     17  C   UNL     1       0.576  -0.310  23.180  0.00  0.00    +0.141 C 
BRANCH  17  18
ATOM     18  C   UNL     1       1.324  -0.024  22.979  0.00  0.00    -0.000 A 
ATOM     19  C   UNL     1       1.761  -0.392  22.384  0.00  0.00    +0.001 A 
ATOM     20  C   UNL     1       2.508  -0.106  22.184  0.00  0.00    +0.037 A 
ATOM     21  C   UNL     1       2.819   0.548  22.579  0.00  0.00    +0.139 A 
ATOM     24  C   UNL     1       2.383   0.916  23.175  0.00  0.00    +0.037 A 
ATOM     25  C   UNL     1       1.635   0.630  23.375  0.00  0.00    +0.001 A 
BRANCH  21  22
ATOM     22  O   UNL     1       3.566   0.835  22.379  0.00  0.00    -0.471 OA
ATOM     23  C   UNL     1       4.218   0.653  22.853  0.00  0.00    +0.252 C 
ENDBRANCH  21  22
ENDBRANCH  17  18
ENDBRANCH  16  17
ENDBRANCH  13  14
ENDBRANCH  12  13
TORSDOF 9
ENDMDL
MODEL 9
REMARK VINA RESULT:      -8.0      2.412      3.999
REMARK  Name = 
REMARK  9 active torsions:
REMARK  status: ('A' for Active; 'I' for Inactive)
REMARK    1  A    between atoms: C_2  and  N_3
REMARK    2  A    between atoms: N_6  and  C_7
REMARK    3  A    between atoms: C_7  and  C_8
REMARK    4  A    between atoms: C_12  and  C_13
REMARK    5  A    between atoms: C_13  and  C_14
REMARK    6  A    between atoms: N_16  and  C_17
REMARK    7  A    between atoms: C_17  and  C_18
REMARK    8  A    between atoms: C_21  and  O_22
REMARK    9  A    between atoms: C_27  and  C_28
REMARK                            x       y       z     vdW  Elec       q    Type
REMARK                         _______ _______ _______ _____ _____    ______ ____
ROOT
ATOM      8  C   UNL     1      -0.658   2.717  25.834  0.00  0.00    +0.043 C 
ATOM      9  C   UNL     1      -1.252   3.174  26.180  0.00  0.00    -0.033 C 
ATOM     10  C   UNL     1      -1.954   3.316  25.770  0.00  0.00    -0.048 C 
ATOM     11  C   UNL     1      -2.548   3.772  26.116  0.00  0.00    +0.026 C 
ATOM     12  C   UNL     1      -2.062   3.001  25.015  0.00  0.00    +0.027 C 
ATOM     26  C   UNL     1      -1.468   2.544  24.670  0.00  0.00    +0.005 C 
ATOM     27  C   UNL     1      -0.766   2.403  25.079  0.00  0.00    +0.006 C 
ENDROOT
BRANCH  27  28
ATOM     28  C   UNL     1      -0.172   1.946  24.734  0.00  0.00    +0.000 C 
ATOM     29  C   UNL     1       0.414   2.306  24.279  0.00  0.00    +0.000 C 
ATOM     30  C   UNL     1      -0.164   1.129  24.845  0.00  0.00    +0.000 C 
ENDBRANCH  27  28
BRANCH   8   7
ATOM      7  C   UNL     1       0.044   2.575  26.244  0.00  0.00    +0.121 C 
BRANCH   7   6
ATOM      3  N   UNL     1       0.694   2.404  28.320  0.00  0.00    -0.187 NA
ATOM      4  C   UNL     1       0.712   2.539  27.507  0.00  0.00    +0.339 C 
ATOM      5  O   UNL     1       1.414   2.772  27.142  0.00  0.00    -0.249 OA
ATOM      6  N   UNL     1       0.027   2.441  27.057  0.00  0.00    -0.187 NA
BRANCH   3   2
ATOM      1  C   UNL     1       1.347   2.435  29.591  0.00  0.00    +0.025 C 
ATOM      2  C   UNL     1       1.380   2.503  28.769  0.00  0.00    +0.117 C 
ENDBRANCH   3   2
ENDBRANCH   7   6
ENDBRANCH   8   7
BRANCH  12  13
ATOM     13  C   UNL     1      -2.764   3.143  24.606  0.00  0.00    +0.091 C 
BRANCH  13  14
ATOM     14  C   UNL     1      -3.083   2.559  24.118  0.00  0.00    +0.242 C 
ATOM     15  O   UNL     1      -3.008   2.621  23.299  0.00  0.00    -0.273 OA
ATOM     16  N   UNL     1      -3.477   1.914  24.448  0.00  0.00    -0.201 NA
BRANCH  16  17
ATOM     17  C   UNL     1      -3.795   1.331  23.960  0.00  0.00    +0.141 C 
BRANCH  17  18
ATOM     18  C   UNL     1      -3.865   0.556  24.233  0.00  0.00    -0.000 A 
ATOM     19  C   UNL     1      -4.201   0.406  24.972  0.00  0.00    +0.001 A 
ATOM     20  C   UNL     1      -4.271  -0.368  25.244  0.00  0.00    +0.037 A 
ATOM     21  C   UNL     1      -4.005  -0.995  24.779  0.00  0.00    +0.139 A 
ATOM     24  C   UNL     1      -3.669  -0.847  24.040  0.00  0.00    +0.037 A 
ATOM     25  C   UNL     1      -3.599  -0.071  23.767  0.00  0.00    +0.001 A 
BRANCH  21  22
ATOM     22  O   UNL     1      -4.074  -1.771  25.051  0.00  0.00    -0.471 OA
ATOM     23  C   UNL     1      -3.420  -2.274  25.033  0.00  0.00    +0.252 C 
ENDBRANCH  21  22
ENDBRANCH  17  18
ENDBRANCH  16  17
ENDBRANCH  13  14
ENDBRANCH  12  13
TORSDOF 9
ENDMDL
MODEL 10
REMARK VINA RESULT:      -7.7      1.913      3.482
REMARK  Name = 
REMARK  9 active torsions:
REMARK  status: ('A' for Active; 'I' for Inactive)
REMARK    1  A    between atoms: C_2  and  N_3
REMARK    2  A    between atoms: N_6  and  C_7
REMARK    3  A    between atoms: C_7  and  C_8
REMARK    4  A    between atoms: C_12  and  C_13
REMARK    5  A    between atoms: C_13  and  C_14
REMARK    6  A    between atoms: N_16  and  C_17
REMARK    7  A    between atoms: C_17  and  C_18
REMARK    8  A    between atoms: C_21  and  O_22
REMARK    9  A    between atoms: C_27  and  C_28
REMARK                            x       y       z     vdW  Elec       q    Type
REMARK                         _______ _______ _______ _____ _____    ______ ____
ROOT
ATOM      8  C   UNL     1      -0.657   0.664  24.847  0.00  0.00    +0.043 C 
ATOM      9  C   UNL     1      -0.642   0.843  25.652  0.00  0.00    -0.033 C 
ATOM     10  C   UNL     1      -0.519   1.621  25.899  0.00  0.00    -0.048 C 
ATOM     11  C   UNL     1      -0.504   1.800  26.704  0.00  0.00    +0.026 C 
ATOM     12  C   UNL     1      -0.412   2.219  25.341  0.00  0.00    +0.027 C 
ATOM     26  C   UNL     1      -0.427   2.039  24.536  0.00  0.00    +0.005 C 
ATOM     27  C   UNL     1      -0.549   1.262  24.289  0.00  0.00    +0.006 C 
ENDROOT
BRANCH  27  28
ATOM     28  C   UNL     1      -0.564   1.081  23.484  0.00  0.00    +0.000 C 
ATOM     29  C   UNL     1       0.110   0.785  23.114  0.00  0.00    +0.000 C 
ATOM     30  C   UNL     1      -1.255   1.197  23.049  0.00  0.00    +0.000 C 
ENDBRANCH  27  28
BRANCH   8   7
ATOM      7  C   UNL     1      -0.780  -0.115  24.601  0.00  0.00    +0.121 C 
BRANCH   7   6
ATOM      3  N   UNL     1      -2.191  -1.743  24.943  0.00  0.00    -0.187 NA
ATOM      4  C   UNL     1      -1.522  -1.332  24.691  0.00  0.00    +0.339 C 
ATOM      5  O   UNL     1      -0.927  -1.726  24.278  0.00  0.00    -0.249 OA
ATOM      6  N   UNL     1      -1.449  -0.526  24.852  0.00  0.00    -0.187 NA
BRANCH   3   2
ATOM      1  C   UNL     1      -3.011  -2.902  24.773  0.00  0.00    +0.025 C 
ATOM      2  C   UNL     1      -2.265  -2.550  24.781  0.00  0.00    +0.117 C 
ENDBRANCH   3   2
ENDBRANCH   7   6
ENDBRANCH   8   7
BRANCH  12  13
ATOM     13  C   UNL     1      -0.289   2.996  25.588  0.00  0.00    +0.091 C 
BRANCH  13  14
ATOM     14  C   UNL     1      -0.800   3.594  25.339  0.00  0.00    +0.242 C 
ATOM     15  O   UNL     1      -0.528   4.184  24.831  0.00  0.00    -0.273 OA
ATOM     16  N   UNL     1      -1.583   3.603  25.599  0.00  0.00    -0.201 NA
BRANCH  16  17
ATOM     17  C   UNL     1      -2.093   4.200  25.351  0.00  0.00    +0.141 C 
BRANCH  17  18
ATOM     18  C   UNL     1      -2.910   4.085  25.379  0.00  0.00    -0.000 A 
ATOM     19  C   UNL     1      -3.332   3.939  24.685  0.00  0.00    +0.001 A 
ATOM     20  C   UNL     1      -4.147   3.823  24.714  0.00  0.00    +0.037 A 
ATOM     21  C   UNL     1      -4.543   3.854  25.437  0.00  0.00    +0.139 A 
ATOM     24  C   UNL     1      -4.122   4.000  26.132  0.00  0.00    +0.037 A 
ATOM     25  C   UNL     1      -3.305   4.115  26.103  0.00  0.00    +0.001 A 
BRANCH  21  22
ATOM     22  O   UNL     1      -5.359   3.739  25.467  0.00  0.00    -0.471 OA
ATOM     23  C   UNL     1      -5.664   2.982  25.593  0.00  0.00    +0.252 C 
ENDBRANCH  21  22
ENDBRANCH  17  18
ENDBRANCH  16  17
ENDBRANCH  13  14
ENDBRANCH  12  13
TORSDOF 9
ENDMDL
