MODEL 1
REMARK VINA RESULT:     -14.2      0.000      0.000
REMARK  Name = 
REMARK  6 active torsions:
REMARK  status: ('A' for Active; 'I' for Inactive)
REMARK    1  A    between atoms: C_2  and  C_5
REMARK    2  A    between atoms: C_5  and  C_6
REMARK    3  A    between atoms: C_15  and  C_17
REMARK    4  A    between atoms: C_25  and  C_26
REMARK    5  A    between atoms: C_26  and  C_27
REMARK    6  A    between atoms: N_29  and  C_30
REMARK                            x       y       z     vdW  Elec       q    Type
REMARK                         _______ _______ _______ _____ _____    ______ ____
ROOT
ATOM      6  C   UNL     1      -3.451  -1.349  24.250  0.00  0.00    +0.247 C 
ATOM      7  O   UNL     1      -4.254  -1.273  24.421  0.00  0.00    -0.273 OA
ATOM      8  N   UNL     1      -2.959  -0.688  24.284  0.00  0.00    -0.154 NA
ATOM      9  C   UNL     1      -3.269   0.048  24.488  0.00  0.00    +0.185 A 
ATOM     10  N   UNL     1      -2.846   0.754  24.544  0.00  0.00    -0.227 NA
ATOM     11  C   UNL     1      -3.373   1.350  24.763  0.00  0.00    +0.063 A 
ATOM     12  C   UNL     1      -4.121   1.012  24.842  0.00  0.00    +0.023 A 
ATOM     13  C   UNL     1      -4.764   1.482  25.059  0.00  0.00    +0.034 C 
ATOM     14  C   UNL     1      -4.659   2.288  25.196  0.00  0.00    +0.010 C 
ATOM     15  C   UNL     1      -5.302   2.756  25.412  0.00  0.00    +0.059 C 
ATOM     16  C   UNL     1      -5.676   2.025  25.341  0.00  0.00    +0.005 C 
ATOM     19  C   UNL     1      -5.198   3.563  25.550  0.00  0.00    +0.154 C 
ATOM     20  O   UNL     1      -5.841   4.033  25.766  0.00  0.00    -0.223 OA
ATOM     21  C   UNL     1      -4.449   3.901  25.471  0.00  0.00    +0.033 C 
ATOM     22  C   UNL     1      -3.805   3.432  25.254  0.00  0.00    +0.003 C 
ATOM     23  C   UNL     1      -3.911   2.625  25.117  0.00  0.00    +0.006 C 
ATOM     24  C   UNL     1      -3.162   2.963  25.038  0.00  0.00    +0.000 C 
ATOM     25  C   UNL     1      -3.267   2.157  24.901  0.00  0.00    +0.050 C 
ATOM     36  S   UNL     1      -4.057   0.207  24.672  0.00  0.00    -0.054 S 
ENDROOT
BRANCH  15  17
ATOM     17  C   UNL     1      -6.075   2.972  25.604  0.00  0.00    +0.184 C 
ATOM     18  O   UNL     1      -6.627   2.393  25.807  0.00  0.00    -0.220 OA
ENDBRANCH  15  17
BRANCH   6   5
ATOM      5  C   UNL     1      -3.140  -2.086  24.046  0.00  0.00    +0.087 C 
BRANCH   5   2
ATOM      1  C   UNL     1      -3.633  -3.440  24.849  0.00  0.00    +0.000 C 
ATOM      2  C   UNL     1      -3.386  -2.762  24.447  0.00  0.00    +0.009 C 
ATOM      3  C   UNL     1      -3.992  -2.869  23.897  0.00  0.00    +0.000 C 
ATOM      4  C   UNL     1      -2.781  -2.658  24.997  0.00  0.00    +0.000 C 
ENDBRANCH   5   2
ENDBRANCH   6   5
BRANCH  25  26
ATOM     26  C   UNL     1      -2.519   2.495  24.822  0.00  0.00    +0.093 C 
BRANCH  26  27
ATOM     27  C   UNL     1      -2.235   2.699  24.074  0.00  0.00    +0.246 C 
ATOM     28  O   UNL     1      -2.756   2.753  23.437  0.00  0.00    -0.273 OA
ATOM     29  N   UNL     1      -1.432   2.850  23.965  0.00  0.00    -0.179 NA
BRANCH  29  30
ATOM     30  C   UNL     1      -0.912   2.795  24.603  0.00  0.00    +0.073 A 
ATOM     31  C   UNL     1      -0.810   3.439  25.109  0.00  0.00    +0.017 A 
ATOM     32  C   UNL     1      -0.291   3.384  25.747  0.00  0.00    +0.001 A 
ATOM     33  C   UNL     1       0.127   2.685  25.879  0.00  0.00    +0.000 A 
ATOM     34  C   UNL     1       0.026   2.041  25.374  0.00  0.00    +0.001 A 
ATOM     35  C   UNL     1      -0.494   2.097  24.736  0.00  0.00    +0.017 A 
ENDBRANCH  29  30
ENDBRANCH  26  27
ENDBRANCH  25  26
TORSDOF 6
ENDMDL
MODEL 2
REMARK VINA RESULT:     -13.1      1.333      3.478
REMARK  Name = 
REMARK  6 active torsions:
REMARK  status: ('A' for Active; 'I' for Inactive)
REMARK    1  A    between atoms: C_2  and  C_5
REMARK    2  A    between atoms: C_5  and  C_6
REMARK    3  A    between atoms: C_15  and  C_17
REMARK    4  A    between atoms: C_25  and  C_26
REMARK    5  A    between atoms: C_26  and  C_27
REMARK    6  A    between atoms: N_29  and  C_30
REMARK                            x       y       z     vdW  Elec       q    Type
REMARK                         _______ _______ _______ _____ _____    ______ ____
ROOT
ATOM      6  C   UNL     1      -3.176  -1.463  25.048  0.00  0.00    +0.247 C 
ATOM      7  O   UNL     1      -2.359  -1.498  25.160  0.00  0.00    -0.273 OA
ATOM      8  N   UNL     1      -3.550  -0.732  24.972  0.00  0.00    -0.154 NA
ATOM      9  C   UNL     1      -3.108  -0.036  25.007  0.00  0.00    +0.185 A 
ATOM     10  N   UNL     1      -3.405   0.730  24.940  0.00  0.00    -0.227 NA
ATOM     11  C   UNL     1      -2.772   1.255  25.007  0.00  0.00    +0.063 A 
ATOM     12  C   UNL     1      -2.084   0.813  25.116  0.00  0.00    +0.023 A 
ATOM     13  C   UNL     1      -1.358   1.195  25.201  0.00  0.00    +0.034 C 
ATOM     14  C   UNL     1      -1.319   2.018  25.177  0.00  0.00    +0.010 C 
ATOM     15  C   UNL     1      -0.593   2.399  25.262  0.00  0.00    +0.059 C 
ATOM     16  C   UNL     1      -0.350   1.613  25.322  0.00  0.00    +0.005 C 
ATOM     19  C   UNL     1      -0.553   3.223  25.238  0.00  0.00    +0.154 C 
ATOM     20  O   UNL     1       0.174   3.605  25.323  0.00  0.00    -0.223 OA
ATOM     21  C   UNL     1      -1.241   3.665  25.129  0.00  0.00    +0.033 C 
ATOM     22  C   UNL     1      -1.968   3.284  25.044  0.00  0.00    +0.003 C 
ATOM     23  C   UNL     1      -2.006   2.460  25.068  0.00  0.00    +0.006 C 
ATOM     24  C   UNL     1      -2.694   2.903  24.959  0.00  0.00    +0.000 C 
ATOM     25  C   UNL     1      -2.733   2.080  24.983  0.00  0.00    +0.050 C 
ATOM     36  S   UNL     1      -2.292   0.014  25.116  0.00  0.00    -0.054 S 
ENDROOT
BRANCH  15  17
ATOM     17  C   UNL     1       0.219   2.508  25.368  0.00  0.00    +0.184 C 
ATOM     18  O   UNL     1       0.742   1.892  25.207  0.00  0.00    -0.220 OA
ENDBRANCH  15  17
BRANCH   6   5
ATOM      5  C   UNL     1      -3.618  -2.159  25.013  0.00  0.00    +0.087 C 
BRANCH   5   2
ATOM      1  C   UNL     1      -3.281  -3.293  23.863  0.00  0.00    +0.000 C 
ATOM      2  C   UNL     1      -3.449  -2.725  24.439  0.00  0.00    +0.009 C 
ATOM      3  C   UNL     1      -4.070  -2.441  23.975  0.00  0.00    +0.000 C 
ATOM      4  C   UNL     1      -2.829  -3.011  24.901  0.00  0.00    +0.000 C 
ENDBRANCH   5   2
ENDBRANCH   6   5
BRANCH  25  26
ATOM     26  C   UNL     1      -3.420   2.522  24.874  0.00  0.00    +0.093 C 
BRANCH  26  27
ATOM     27  C   UNL     1      -3.707   2.659  24.112  0.00  0.00    +0.246 C 
ATOM     28  O   UNL     1      -3.205   2.575  23.463  0.00  0.00    -0.273 OA
ATOM     29  N   UNL     1      -4.494   2.879  24.001  0.00  0.00    -0.179 NA
BRANCH  29  30
ATOM     30  C   UNL     1      -4.995   2.962  24.652  0.00  0.00    +0.073 A 
ATOM     31  C   UNL     1      -4.996   3.664  25.084  0.00  0.00    +0.017 A 
ATOM     32  C   UNL     1      -5.496   3.746  25.734  0.00  0.00    +0.001 A 
ATOM     33  C   UNL     1      -5.996   3.127  25.952  0.00  0.00    +0.000 A 
ATOM     34  C   UNL     1      -5.995   2.424  25.519  0.00  0.00    +0.001 A 
ATOM     35  C   UNL     1      -5.494   2.342  24.869  0.00  0.00    +0.017 A 
ENDBRANCH  29  30
ENDBRANCH  26  27
ENDBRANCH  25  26
TORSDOF 6
ENDMDL
MODEL 3
REMARK VINA RESULT:     -12.4      2.280      4.326
REMARK  Name = 
REMARK  6 active torsions:
REMARK  status: ('A' for Active; 'I' for Inactive)
REMARK    1  A    between atoms: C_2  and  C_5
REMARK    2  A    between atoms: C_5  and  C_6
REMARK    3  A    between atoms: C_15  and  C_17
REMARK    4  A    between atoms: C_25  and  C_26
REMARK    5  A    between atoms: C_26  and  C_27
REMARK    6  A    between atoms: N_29  and  C_30
REMARK                            x       y       z     vdW  Elec       q    Type
REMARK                         _______ _______ _______ _____ _____    ______ ____
ROOT
ATOM      6  C   UNL     1       1.079   0.372  23.312  0.00  0.00    +0.247 C 
ATOM      7  O   UNL     1       1.389   1.118  23.475  0.00  0.00    -0.273 OA
ATOM      8  N   UNL     1       0.284   0.215  23.462  0.00  0.00    -0.154 NA
ATOM      9  C   UNL     1      -0.201   0.804  23.776  0.00  0.00    +0.185 A 
ATOM     10  N   UNL     1      -1.003   0.727  23.954  0.00  0.00    -0.227 NA
ATOM     11  C   UNL     1      -1.267   1.449  24.255  0.00  0.00    +0.063 A 
ATOM     12  C   UNL     1      -0.628   1.971  24.262  0.00  0.00    +0.023 A 
ATOM     13  C   UNL     1      -0.729   2.742  24.537  0.00  0.00    +0.034 C 
ATOM     14  C   UNL     1      -1.468   2.991  24.805  0.00  0.00    +0.010 C 
ATOM     15  C   UNL     1      -1.569   3.762  25.080  0.00  0.00    +0.059 C 
ATOM     16  C   UNL     1      -0.768   3.783  24.884  0.00  0.00    +0.005 C 
ATOM     19  C   UNL     1      -2.308   4.012  25.348  0.00  0.00    +0.154 C 
ATOM     20  O   UNL     1      -2.409   4.783  25.624  0.00  0.00    -0.223 OA
ATOM     21  C   UNL     1      -2.947   3.490  25.341  0.00  0.00    +0.033 C 
ATOM     22  C   UNL     1      -2.846   2.718  25.066  0.00  0.00    +0.003 C 
ATOM     23  C   UNL     1      -2.107   2.469  24.798  0.00  0.00    +0.006 C 
ATOM     24  C   UNL     1      -2.746   1.947  24.791  0.00  0.00    +0.000 C 
ATOM     25  C   UNL     1      -2.007   1.698  24.523  0.00  0.00    +0.050 C 
ATOM     36  S   UNL     1       0.031   1.572  23.966  0.00  0.00    -0.054 S 
ENDROOT
BRANCH  15  17
ATOM     17  C   UNL     1      -1.392   4.541  25.287  0.00  0.00    +0.184 C 
ATOM     18  O   UNL     1      -0.699   4.894  25.012  0.00  0.00    -0.220 OA
ENDBRANCH  15  17
BRANCH   6   5
ATOM      5  C   UNL     1       1.564  -0.218  22.998  0.00  0.00    +0.087 C 
BRANCH   5   2
ATOM      1  C   UNL     1       2.818   0.188  22.005  0.00  0.00    +0.000 C 
ATOM      2  C   UNL     1       2.191  -0.015  22.502  0.00  0.00    +0.009 C 
ATOM      3  C   UNL     1       2.662   0.144  23.160  0.00  0.00    +0.000 C 
ATOM      4  C   UNL     1       1.721  -0.173  21.843  0.00  0.00    +0.000 C 
ENDBRANCH   5   2
ENDBRANCH   6   5
BRANCH  25  26
ATOM     26  C   UNL     1      -2.645   1.177  24.516  0.00  0.00    +0.093 C 
BRANCH  26  27
ATOM     27  C   UNL     1      -3.101   1.091  23.833  0.00  0.00    +0.246 C 
ATOM     28  O   UNL     1      -3.061   1.661  23.238  0.00  0.00    -0.273 OA
ATOM     29  N   UNL     1      -3.596   0.437  23.746  0.00  0.00    -0.179 NA
BRANCH  29  30
ATOM     30  C   UNL     1      -3.634  -0.132  24.343  0.00  0.00    +0.073 A 
ATOM     31  C   UNL     1      -4.110  -0.006  25.004  0.00  0.00    +0.017 A 
ATOM     32  C   UNL     1      -4.148  -0.574  25.600  0.00  0.00    +0.001 A 
ATOM     33  C   UNL     1      -3.711  -1.270  25.534  0.00  0.00    +0.000 A 
ATOM     34  C   UNL     1      -3.235  -1.398  24.873  0.00  0.00    +0.001 A 
ATOM     35  C   UNL     1      -3.197  -0.829  24.277  0.00  0.00    +0.017 A 
ENDBRANCH  29  30
ENDBRANCH  26  27
ENDBRANCH  25  26
TORSDOF 6
ENDMDL
MODEL 4
REMARK VINA RESULT:     -11.8      1.555      5.083
REMARK  Name = 
REMARK  6 active torsions:
REMARK  status: ('A' for Active; 'I' for Inactive)
REMARK    1  A    between atoms: C_2  and  C_5
REMARK    2  A    between atoms: C_5  and  C_6
REMARK    3  A    between atoms: C_15  and  C_17
REMARK    4  A    between atoms: C_25  and  C_26
REMARK    5  A    between atoms: C_26  and  C_27
REMARK    6  A    between atoms: N_29  and  C_30
REMARK                            x       y       z     vdW  Elec       q    Type
REMARK                         _______ _______ _______ _____ _____    ______ ____
ROOT
ATOM      6  C   UNL     1      -0.759   2.815  25.352  0.00  0.00    +0.247 C 
ATOM      7  O   UNL     1      -0.267   2.152  25.331  0.00  0.00    -0.273 OA
ATOM      8  N   UNL     1      -1.575   2.724  25.269  0.00  0.00    -0.154 NA
ATOM      9  C   UNL     1      -1.899   1.972  25.167  0.00  0.00    +0.185 A 
ATOM     10  N   UNL     1      -2.700   1.799  25.078  0.00  0.00    -0.227 NA
ATOM     11  C   UNL     1      -2.775   0.981  24.991  0.00  0.00    +0.063 A 
ATOM     12  C   UNL     1      -2.020   0.651  25.027  0.00  0.00    +0.023 A 
ATOM     13  C   UNL     1      -1.923  -0.166  24.956  0.00  0.00    +0.034 C 
ATOM     14  C   UNL     1      -2.581  -0.651  24.850  0.00  0.00    +0.010 C 
ATOM     15  C   UNL     1      -2.484  -1.467  24.779  0.00  0.00    +0.059 C 
ATOM     16  C   UNL     1      -1.697  -1.237  24.873  0.00  0.00    +0.005 C 
ATOM     19  C   UNL     1      -3.142  -1.954  24.673  0.00  0.00    +0.154 C 
ATOM     20  O   UNL     1      -3.045  -2.770  24.602  0.00  0.00    -0.223 OA
ATOM     21  C   UNL     1      -3.897  -1.623  24.637  0.00  0.00    +0.033 C 
ATOM     22  C   UNL     1      -3.994  -0.807  24.707  0.00  0.00    +0.003 C 
ATOM     23  C   UNL     1      -3.336  -0.321  24.814  0.00  0.00    +0.006 C 
ATOM     24  C   UNL     1      -4.091   0.009  24.778  0.00  0.00    +0.000 C 
ATOM     25  C   UNL     1      -3.433   0.495  24.885  0.00  0.00    +0.050 C 
ATOM     36  S   UNL     1      -1.478   1.264  25.136  0.00  0.00    -0.054 S 
ENDROOT
BRANCH  15  17
ATOM     17  C   UNL     1      -2.114  -2.204  24.741  0.00  0.00    +0.184 C 
ATOM     18  O   UNL     1      -1.292  -2.256  24.785  0.00  0.00    -0.220 OA
ENDBRANCH  15  17
BRANCH   6   5
ATOM      5  C   UNL     1      -0.435   3.566  25.454  0.00  0.00    +0.087 C 
BRANCH   5   2
ATOM      1  C   UNL     1      -0.550   4.685  24.247  0.00  0.00    +0.000 C 
ATOM      2  C   UNL     1      -0.492   4.125  24.851  0.00  0.00    +0.009 C 
ATOM      3  C   UNL     1      -1.046   4.547  25.293  0.00  0.00    +0.000 C 
ATOM      4  C   UNL     1       0.062   3.705  24.407  0.00  0.00    +0.000 C 
ENDBRANCH   5   2
ENDBRANCH   6   5
BRANCH  25  26
ATOM     26  C   UNL     1      -4.188   0.825  24.849  0.00  0.00    +0.093 C 
BRANCH  26  27
ATOM     27  C   UNL     1      -4.457   1.165  24.146  0.00  0.00    +0.246 C 
ATOM     28  O   UNL     1      -4.102   0.964  23.429  0.00  0.00    -0.273 OA
ATOM     29  N   UNL     1      -5.081   1.705  24.161  0.00  0.00    -0.179 NA
BRANCH  29  30
ATOM     30  C   UNL     1      -5.435   1.904  24.879  0.00  0.00    +0.073 A 
ATOM     31  C   UNL     1      -6.011   1.414  25.206  0.00  0.00    +0.017 A 
ATOM     32  C   UNL     1      -6.365   1.614  25.923  0.00  0.00    +0.001 A 
ATOM     33  C   UNL     1      -6.143   2.305  26.314  0.00  0.00    +0.000 A 
ATOM     34  C   UNL     1      -5.566   2.796  25.988  0.00  0.00    +0.001 A 
ATOM     35  C   UNL     1      -5.213   2.596  25.270  0.00  0.00    +0.017 A 
ENDBRANCH  29  30
ENDBRANCH  26  27
ENDBRANCH  25  26
TORSDOF 6
ENDMDL
MODEL 5
REMARK VINA RESULT:     -11.8      1.366      4.219
REMARK  Name = 
REMARK  6 active torsions:
REMARK  status: ('A' for Active; 'I' for Inactive)
REMARK    1  A    between atoms: C_2  and  C_5
REMARK    2  A    between atoms: C_5  and  C_6
REMARK    3  A    between atoms: C_15  and  C_17
REMARK    4  A    between atoms: C_25  and  C_26
REMARK    5  A    between atoms: C_26  and  C_27
REMARK    6  A    between atoms: N_29  and  C_30
REMARK                            x       y       z     vdW  Elec       q    Type
REMARK                         _______ _______ _______ _____ _____    ______ ____
ROOT
ATOM      6  C   UNL     1      -5.094   1.817  24.777  0.00  0.00    +0.247 C 
ATOM      7  O   UNL     1      -5.384   1.046  24.746  0.00  0.00    -0.273 OA
ATOM      8  N   UNL     1      -4.280   1.951  24.789  0.00  0.00    -0.154 NA
ATOM      9  C   UNL     1      -3.757   1.313  24.768  0.00  0.00    +0.185 A 
ATOM     10  N   UNL     1      -2.934   1.363  24.776  0.00  0.00    -0.227 NA
ATOM     11  C   UNL     1      -2.633   0.595  24.748  0.00  0.00    +0.063 A 
ATOM     12  C   UNL     1      -3.270   0.072  24.723  0.00  0.00    +0.023 A 
ATOM     13  C   UNL     1      -3.135  -0.741  24.693  0.00  0.00    +0.034 C 
ATOM     14  C   UNL     1      -2.364  -1.032  24.688  0.00  0.00    +0.010 C 
ATOM     15  C   UNL     1      -2.229  -1.845  24.657  0.00  0.00    +0.059 C 
ATOM     16  C   UNL     1      -3.054  -1.836  24.652  0.00  0.00    +0.005 C 
ATOM     19  C   UNL     1      -1.457  -2.136  24.652  0.00  0.00    +0.154 C 
ATOM     20  O   UNL     1      -1.322  -2.949  24.621  0.00  0.00    -0.223 OA
ATOM     21  C   UNL     1      -0.819  -1.613  24.676  0.00  0.00    +0.033 C 
ATOM     22  C   UNL     1      -0.954  -0.799  24.707  0.00  0.00    +0.003 C 
ATOM     23  C   UNL     1      -1.726  -0.509  24.712  0.00  0.00    +0.006 C 
ATOM     24  C   UNL     1      -1.088   0.014  24.737  0.00  0.00    +0.000 C 
ATOM     25  C   UNL     1      -1.860   0.304  24.743  0.00  0.00    +0.050 C 
ATOM     36  S   UNL     1      -3.965   0.517  24.736  0.00  0.00    -0.054 S 
ENDROOT
BRANCH  15  17
ATOM     17  C   UNL     1      -2.381  -2.655  24.625  0.00  0.00    +0.184 C 
ATOM     18  O   UNL     1      -3.158  -2.930  24.610  0.00  0.00    -0.220 OA
ENDBRANCH  15  17
BRANCH   6   5
ATOM      5  C   UNL     1      -5.618   2.455  24.798  0.00  0.00    +0.087 C 
BRANCH   5   2
ATOM      1  C   UNL     1      -6.302   2.914  26.228  0.00  0.00    +0.000 C 
ATOM      2  C   UNL     1      -5.960   2.684  25.512  0.00  0.00    +0.009 C 
ATOM      3  C   UNL     1      -5.470   3.347  25.535  0.00  0.00    +0.000 C 
ATOM      4  C   UNL     1      -6.450   2.021  25.491  0.00  0.00    +0.000 C 
ENDBRANCH   5   2
ENDBRANCH   6   5
BRANCH  25  26
ATOM     26  C   UNL     1      -1.223   0.827  24.768  0.00  0.00    +0.093 C 
BRANCH  26  27
ATOM     27  C   UNL     1      -0.926   1.149  24.068  0.00  0.00    +0.246 C 
ATOM     28  O   UNL     1      -1.070   0.773  23.348  0.00  0.00    -0.273 OA
ATOM     29  N   UNL     1      -0.485   1.846  24.089  0.00  0.00    -0.179 NA
BRANCH  29  30
ATOM     30  C   UNL     1      -0.342   2.221  24.810  0.00  0.00    +0.073 A 
ATOM     31  C   UNL     1       0.241   1.933  25.317  0.00  0.00    +0.017 A 
ATOM     32  C   UNL     1       0.384   2.308  26.037  0.00  0.00    +0.001 A 
ATOM     33  C   UNL     1      -0.057   2.971  26.251  0.00  0.00    +0.000 A 
ATOM     34  C   UNL     1      -0.641   3.260  25.745  0.00  0.00    +0.001 A 
ATOM     35  C   UNL     1      -0.783   2.885  25.024  0.00  0.00    +0.017 A 
ENDBRANCH  29  30
ENDBRANCH  26  27
ENDBRANCH  25  26
TORSDOF 6
ENDMDL
MODEL 6
REMARK VINA RESULT:     -11.7      1.731      5.331
REMARK  Name = 
REMARK  6 active torsions:
REMARK  status: ('A' for Active; 'I' for Inactive)
REMARK    1  A    between atoms: C_2  and  C_5
REMARK    2  A    between atoms: C_5  and  C_6
REMARK    3  A    between atoms: C_15  and  C_17
REMARK    4  A    between atoms: C_25  and  C_26
REMARK    5  A    between atoms: C_26  and  C_27
REMARK    6  A    between atoms: N_29  and  C_30
REMARK                            x       y       z     vdW  Elec       q    Type
REMARK                         _______ _______ _______ _____ _____    ______ ____
ROOT
ATOM      6  C   UNL     1      -4.280   2.680  24.652  0.00  0.00    +0.247 C 
ATOM      7  O   UNL     1      -3.628   3.144  24.454  0.00  0.00    -0.273 OA
ATOM      8  N   UNL     1      -4.195   1.864  24.732  0.00  0.00    -0.154 NA
ATOM      9  C   UNL     1      -3.459   1.512  24.613  0.00  0.00    +0.185 A 
ATOM     10  N   UNL     1      -3.292   0.706  24.674  0.00  0.00    -0.227 NA
ATOM     11  C   UNL     1      -2.490   0.600  24.511  0.00  0.00    +0.063 A 
ATOM     12  C   UNL     1      -2.162   1.340  24.351  0.00  0.00    +0.023 A 
ATOM     13  C   UNL     1      -1.360   1.404  24.168  0.00  0.00    +0.034 C 
ATOM     14  C   UNL     1      -0.886   0.730  24.146  0.00  0.00    +0.010 C 
ATOM     15  C   UNL     1      -0.085   0.795  23.963  0.00  0.00    +0.059 C 
ATOM     16  C   UNL     1      -0.307   1.588  23.916  0.00  0.00    +0.005 C 
ATOM     19  C   UNL     1       0.390   0.120  23.940  0.00  0.00    +0.154 C 
ATOM     20  O   UNL     1       1.192   0.184  23.758  0.00  0.00    -0.223 OA
ATOM     21  C   UNL     1       0.062  -0.620  24.101  0.00  0.00    +0.033 C 
ATOM     22  C   UNL     1      -0.740  -0.685  24.284  0.00  0.00    +0.003 C 
ATOM     23  C   UNL     1      -1.214  -0.010  24.306  0.00  0.00    +0.006 C 
ATOM     24  C   UNL     1      -1.542  -0.750  24.467  0.00  0.00    +0.000 C 
ATOM     25  C   UNL     1      -2.015  -0.076  24.489  0.00  0.00    +0.050 C 
ATOM     36  S   UNL     1      -2.762   1.903  24.414  0.00  0.00    -0.054 S 
ENDROOT
BRANCH  15  17
ATOM     17  C   UNL     1       0.640   1.135  23.764  0.00  0.00    +0.184 C 
ATOM     18  O   UNL     1       0.802   1.915  23.975  0.00  0.00    -0.220 OA
ENDBRANCH  15  17
BRANCH   6   5
ATOM      5  C   UNL     1      -5.017   3.032  24.771  0.00  0.00    +0.087 C 
BRANCH   5   2
ATOM      1  C   UNL     1      -5.247   4.054  26.046  0.00  0.00    +0.000 C 
ATOM      2  C   UNL     1      -5.132   3.543  25.408  0.00  0.00    +0.009 C 
ATOM      3  C   UNL     1      -5.549   2.953  25.807  0.00  0.00    +0.000 C 
ATOM      4  C   UNL     1      -4.716   4.134  25.010  0.00  0.00    +0.000 C 
ENDBRANCH   5   2
ENDBRANCH   6   5
BRANCH  25  26
ATOM     26  C   UNL     1      -2.343  -0.815  24.649  0.00  0.00    +0.093 C 
BRANCH  26  27
ATOM     27  C   UNL     1      -2.481  -1.045  25.430  0.00  0.00    +0.246 C 
ATOM     28  O   UNL     1      -2.107  -0.647  26.049  0.00  0.00    -0.273 OA
ATOM     29  N   UNL     1      -2.991  -1.673  25.591  0.00  0.00    -0.179 NA
BRANCH  29  30
ATOM     30  C   UNL     1      -3.364  -2.070  24.972  0.00  0.00    +0.073 A 
ATOM     31  C   UNL     1      -4.068  -1.778  24.658  0.00  0.00    +0.017 A 
ATOM     32  C   UNL     1      -4.440  -2.176  24.039  0.00  0.00    +0.001 A 
ATOM     33  C   UNL     1      -4.107  -2.866  23.733  0.00  0.00    +0.000 A 
ATOM     34  C   UNL     1      -3.403  -3.159  24.047  0.00  0.00    +0.001 A 
ATOM     35  C   UNL     1      -3.031  -2.761  24.666  0.00  0.00    +0.017 A 
ENDBRANCH  29  30
ENDBRANCH  26  27
ENDBRANCH  25  26
TORSDOF 6
ENDMDL
MODEL 7
REMARK VINA RESULT:     -11.6      2.322      4.276
REMARK  Name = 
REMARK  6 active torsions:
REMARK  status: ('A' for Active; 'I' for Inactive)
REMARK    1  A    between atoms: C_2  and  C_5
REMARK    2  A    between atoms: C_5  and  C_6
REMARK    3  A    between atoms: C_15  and  C_17
REMARK    4  A    between atoms: C_25  and  C_26
REMARK    5  A    between atoms: C_26  and  C_27
REMARK    6  A    between atoms: N_29  and  C_30
REMARK                            x       y       z     vdW  Elec       q    Type
REMARK                         _______ _______ _______ _____ _____    ______ ____
ROOT
ATOM      6  C   UNL     1      -2.963  -1.216  24.666  0.00  0.00    +0.247 C 
ATOM      7  O   UNL     1      -2.410  -1.643  24.227  0.00  0.00    -0.273 OA
ATOM      8  N   UNL     1      -2.793  -0.443  24.899  0.00  0.00    -0.154 NA
ATOM      9  C   UNL     1      -2.073  -0.098  24.694  0.00  0.00    +0.185 A 
ATOM     10  N   UNL     1      -1.829   0.666  24.888  0.00  0.00    -0.227 NA
ATOM     11  C   UNL     1      -1.075   0.780  24.572  0.00  0.00    +0.063 A 
ATOM     12  C   UNL     1      -0.854   0.086  24.184  0.00  0.00    +0.023 A 
ATOM     13  C   UNL     1      -0.119   0.039  23.812  0.00  0.00    +0.034 C 
ATOM     14  C   UNL     1       0.395   0.684  23.828  0.00  0.00    +0.010 C 
ATOM     15  C   UNL     1       1.129   0.637  23.456  0.00  0.00    +0.059 C 
ATOM     16  C   UNL     1       0.835  -0.116  23.291  0.00  0.00    +0.005 C 
ATOM     19  C   UNL     1       1.643   1.282  23.472  0.00  0.00    +0.154 C 
ATOM     20  O   UNL     1       2.378   1.235  23.100  0.00  0.00    -0.223 OA
ATOM     21  C   UNL     1       1.422   1.975  23.861  0.00  0.00    +0.033 C 
ATOM     22  C   UNL     1       0.686   2.023  24.234  0.00  0.00    +0.003 C 
ATOM     23  C   UNL     1       0.173   1.378  24.217  0.00  0.00    +0.006 C 
ATOM     24  C   UNL     1      -0.048   2.071  24.605  0.00  0.00    +0.000 C 
ATOM     25  C   UNL     1      -0.561   1.426  24.589  0.00  0.00    +0.050 C 
ATOM     36  S   UNL     1      -1.471  -0.456  24.259  0.00  0.00    -0.054 S 
ENDROOT
BRANCH  15  17
ATOM     17  C   UNL     1       1.762   0.328  23.027  0.00  0.00    +0.184 C 
ATOM     18  O   UNL     1       1.632  -0.262  22.465  0.00  0.00    -0.220 OA
ENDBRANCH  15  17
BRANCH   6   5
ATOM      5  C   UNL     1      -3.683  -1.561  24.871  0.00  0.00    +0.087 C 
BRANCH   5   2
ATOM      1  C   UNL     1      -4.295  -2.796  23.963  0.00  0.00    +0.000 C 
ATOM      2  C   UNL     1      -3.989  -2.178  24.418  0.00  0.00    +0.009 C 
ATOM      3  C   UNL     1      -4.384  -1.633  23.941  0.00  0.00    +0.000 C 
ATOM      4  C   UNL     1      -3.594  -2.724  24.894  0.00  0.00    +0.000 C 
ENDBRANCH   5   2
ENDBRANCH   6   5
BRANCH  25  26
ATOM     26  C   UNL     1      -0.782   2.118  24.977  0.00  0.00    +0.093 C 
BRANCH  26  27
ATOM     27  C   UNL     1      -0.657   2.195  25.790  0.00  0.00    +0.246 C 
ATOM     28  O   UNL     1      -0.194   1.640  26.189  0.00  0.00    -0.273 OA
ATOM     29  N   UNL     1      -0.994   2.824  26.202  0.00  0.00    -0.179 NA
BRANCH  29  30
ATOM     30  C   UNL     1      -1.457   3.378  25.802  0.00  0.00    +0.073 A 
ATOM     31  C   UNL     1      -1.104   4.039  25.456  0.00  0.00    +0.017 A 
ATOM     32  C   UNL     1      -1.567   4.592  25.057  0.00  0.00    +0.001 A 
ATOM     33  C   UNL     1      -2.383   4.484  25.002  0.00  0.00    +0.000 A 
ATOM     34  C   UNL     1      -2.736   3.824  25.348  0.00  0.00    +0.001 A 
ATOM     35  C   UNL     1      -2.273   3.271  25.748  0.00  0.00    +0.017 A 
ENDBRANCH  29  30
ENDBRANCH  26  27
ENDBRANCH  25  26
TORSDOF 6
ENDMDL
