MODEL 1
REMARK VINA RESULT:     -12.8      0.000      0.000
REMARK  Name = 
REMARK  7 active torsions:
REMARK  status: ('A' for Active; 'I' for Inactive)
REMARK    1  A    between atoms: C_5  and  C_6
REMARK    2  A    between atoms: C_6  and  C_7
REMARK    3  A    between atoms: C_10  and  C_12
REMARK    4  A    between atoms: C_20  and  C_21
REMARK    5  A    between atoms: C_21  and  N_22
REMARK    6  A    between atoms: N_22  and  C_23
REMARK    7  A    between atoms: C_23  and  C_24
REMARK                            x       y       z     vdW  Elec       q    Type
REMARK                         _______ _______ _______ _____ _____    ______ ____
ROOT
ATOM      1  O   UNL     1      -5.783   3.475  26.080  0.00  0.00    -0.220 OA
ATOM      2  C   UNL     1      -5.457   2.852  25.648  0.00  0.00    +0.180 C 
ATOM      3  C   UNL     1      -5.934   2.223  25.408  0.00  0.00    +0.038 C 
ATOM      4  C   UNL     1      -5.608   1.600  24.976  0.00  0.00    +0.033 C 
ATOM      5  C   UNL     1      -4.806   1.606  24.784  0.00  0.00    +0.121 C 
ATOM     19  O   UNL     1      -4.329   2.235  25.025  0.00  0.00    -0.354 OA
ATOM     20  C   UNL     1      -4.655   2.857  25.456  0.00  0.00    +0.163 C 
ENDROOT
BRANCH   5   6
ATOM      6  C   UNL     1      -4.480   0.982  24.352  0.00  0.00    +0.079 C 
BRANCH   6   7
ATOM      7  C   UNL     1      -4.042   0.399  24.736  0.00  0.00    +0.103 A 
ATOM      8  N   UNL     1      -4.327  -0.126  25.306  0.00  0.00    -0.081 NA
ATOM      9  O   UNL     1      -3.702  -0.611  25.540  0.00  0.00    -0.354 OA
ATOM     10  C   UNL     1      -3.032  -0.386  25.115  0.00  0.00    +0.177 A 
ATOM     11  C   UNL     1      -3.241   0.237  24.619  0.00  0.00    +0.058 A 
BRANCH  10  12
ATOM     12  C   UNL     1      -2.282  -0.727  25.177  0.00  0.00    +0.037 A 
ATOM     13  C   UNL     1      -1.693  -0.351  25.614  0.00  0.00    +0.005 A 
ATOM     14  C   UNL     1      -0.944  -0.692  25.675  0.00  0.00    +0.030 A 
ATOM     15  C   UNL     1      -0.784  -1.408  25.299  0.00  0.00    +0.140 A 
ATOM     16  F   UNL     1      -0.035  -1.748  25.360  0.00  0.00    -0.204 F 
ATOM     17  C   UNL     1      -1.374  -1.784  24.861  0.00  0.00    +0.030 A 
ATOM     18  C   UNL     1      -2.123  -1.444  24.799  0.00  0.00    +0.005 A 
ENDBRANCH  10  12
ENDBRANCH   6   7
ENDBRANCH   5   6
BRANCH  20  21
ATOM     21  C   UNL     1      -4.178   3.486  25.696  0.00  0.00    +0.121 C 
BRANCH  21  22
ATOM     22  N   UNL     1      -3.386   3.515  25.465  0.00  0.00    -0.215 NA
BRANCH  22  23
ATOM     23  C   UNL     1      -2.859   4.012  25.861  0.00  0.00    +0.089 C 
BRANCH  23  24
ATOM     24  C   UNL     1      -2.087   4.100  25.583  0.00  0.00    +0.017 C 
ATOM     25  C   UNL     1      -1.550   3.478  25.656  0.00  0.00    +0.001 C 
ATOM     26  C   UNL     1      -0.777   3.565  25.378  0.00  0.00    +0.000 C 
ATOM     27  C   UNL     1      -0.544   4.274  25.026  0.00  0.00    +0.000 C 
ATOM     28  C   UNL     1      -1.081   4.895  24.953  0.00  0.00    +0.000 C 
ATOM     29  C   UNL     1      -1.852   4.808  25.231  0.00  0.00    +0.001 C 
ENDBRANCH  23  24
ENDBRANCH  22  23
ENDBRANCH  21  22
ENDBRANCH  20  21
TORSDOF 7
ENDMDL
MODEL 2
REMARK VINA RESULT:     -12.6      1.816      3.544
REMARK  Name = 
REMARK  7 active torsions:
REMARK  status: ('A' for Active; 'I' for Inactive)
REMARK    1  A    between atoms: C_5  and  C_6
REMARK    2  A    between atoms: C_6  and  C_7
REMARK    3  A    between atoms: C_10  and  C_12
REMARK    4  A    between atoms: C_20  and  C_21
REMARK    5  A    between atoms: C_21  and  N_22
REMARK    6  A    between atoms: N_22  and  C_23
REMARK    7  A    between atoms: C_23  and  C_24
REMARK                            x       y       z     vdW  Elec       q    Type
REMARK                         _______ _______ _______ _____ _____    ______ ____
ROOT
ATOM      1  O   UNL     1      -1.065   3.849  25.765  0.00  0.00    -0.220 OA
ATOM      2  C   UNL     1      -0.965   3.066  25.530  0.00  0.00    +0.180 C 
ATOM      3  C   UNL     1      -0.287   2.651  25.753  0.00  0.00    +0.038 C 
ATOM      4  C   UNL     1      -0.187   1.866  25.517  0.00  0.00    +0.033 C 
ATOM      5  C   UNL     1      -0.765   1.497  25.059  0.00  0.00    +0.121 C 
ATOM     19  O   UNL     1      -1.442   1.911  24.836  0.00  0.00    -0.354 OA
ATOM     20  C   UNL     1      -1.542   2.695  25.071  0.00  0.00    +0.163 C 
ENDROOT
BRANCH   5   6
ATOM      6  C   UNL     1      -0.664   0.712  24.823  0.00  0.00    +0.079 C 
BRANCH   6   7
ATOM      7  C   UNL     1      -1.210   0.139  25.055  0.00  0.00    +0.103 A 
ATOM      8  N   UNL     1      -1.324  -0.140  25.824  0.00  0.00    -0.081 NA
ATOM      9  O   UNL     1      -1.922  -0.707  25.803  0.00  0.00    -0.354 OA
ATOM     10  C   UNL     1      -2.178  -0.780  25.022  0.00  0.00    +0.177 A 
ATOM     11  C   UNL     1      -1.738  -0.257  24.560  0.00  0.00    +0.058 A 
BRANCH  10  12
ATOM     12  C   UNL     1      -2.770  -1.287  24.751  0.00  0.00    +0.037 A 
ATOM     13  C   UNL     1      -2.641  -2.100  24.734  0.00  0.00    +0.005 A 
ATOM     14  C   UNL     1      -3.233  -2.607  24.463  0.00  0.00    +0.030 A 
ATOM     15  C   UNL     1      -3.954  -2.300  24.208  0.00  0.00    +0.140 A 
ATOM     16  F   UNL     1      -4.547  -2.806  23.937  0.00  0.00    -0.204 F 
ATOM     17  C   UNL     1      -4.084  -1.485  24.225  0.00  0.00    +0.030 A 
ATOM     18  C   UNL     1      -3.492  -0.978  24.496  0.00  0.00    +0.005 A 
ENDBRANCH  10  12
ENDBRANCH   6   7
ENDBRANCH   5   6
BRANCH  20  21
ATOM     21  C   UNL     1      -2.220   3.110  24.848  0.00  0.00    +0.121 C 
BRANCH  21  22
ATOM     22  N   UNL     1      -2.966   2.824  25.058  0.00  0.00    -0.215 NA
BRANCH  22  23
ATOM     23  C   UNL     1      -3.642   3.145  24.712  0.00  0.00    +0.089 C 
BRANCH  23  24
ATOM     24  C   UNL     1      -4.388   2.872  24.934  0.00  0.00    +0.017 C 
ATOM     25  C   UNL     1      -4.755   3.178  25.606  0.00  0.00    +0.001 C 
ATOM     26  C   UNL     1      -5.502   2.905  25.829  0.00  0.00    +0.000 C 
ATOM     27  C   UNL     1      -5.880   2.327  25.379  0.00  0.00    +0.000 C 
ATOM     28  C   UNL     1      -5.513   2.021  24.706  0.00  0.00    +0.000 C 
ATOM     29  C   UNL     1      -4.767   2.294  24.484  0.00  0.00    +0.001 C 
ENDBRANCH  23  24
ENDBRANCH  22  23
ENDBRANCH  21  22
ENDBRANCH  20  21
TORSDOF 7
ENDMDL
MODEL 3
REMARK VINA RESULT:     -12.5      1.708      2.928
REMARK  Name = 
REMARK  7 active torsions:
REMARK  status: ('A' for Active; 'I' for Inactive)
REMARK    1  A    between atoms: C_5  and  C_6
REMARK    2  A    between atoms: C_6  and  C_7
REMARK    3  A    between atoms: C_10  and  C_12
REMARK    4  A    between atoms: C_20  and  C_21
REMARK    5  A    between atoms: C_21  and  N_22
REMARK    6  A    between atoms: N_22  and  C_23
REMARK    7  A    between atoms: C_23  and  C_24
REMARK                            x       y       z     vdW  Elec       q    Type
REMARK                         _______ _______ _______ _____ _____    ______ ____
ROOT
ATOM      1  O   UNL     1      -2.182   4.266  25.754  0.00  0.00    -0.220 OA
ATOM      2  C   UNL     1      -2.727   3.751  25.410  0.00  0.00    +0.180 C 
ATOM      3  C   UNL     1      -3.535   3.901  25.476  0.00  0.00    +0.038 C 
ATOM      4  C   UNL     1      -4.081   3.385  25.133  0.00  0.00    +0.033 C 
ATOM      5  C   UNL     1      -3.816   2.720  24.723  0.00  0.00    +0.121 C 
ATOM     19  O   UNL     1      -3.008   2.570  24.657  0.00  0.00    -0.354 OA
ATOM     20  C   UNL     1      -2.464   3.085  25.001  0.00  0.00    +0.163 C 
ENDROOT
BRANCH   5   6
ATOM      6  C   UNL     1      -4.362   2.204  24.380  0.00  0.00    +0.079 C 
BRANCH   6   7
ATOM      7  C   UNL     1      -4.453   1.440  24.679  0.00  0.00    +0.103 A 
ATOM      8  N   UNL     1      -4.903   1.227  25.337  0.00  0.00    -0.081 NA
ATOM      9  O   UNL     1      -4.837   0.412  25.436  0.00  0.00    -0.354 OA
ATOM     10  C   UNL     1      -4.347   0.120  24.840  0.00  0.00    +0.177 A 
ATOM     11  C   UNL     1      -4.109   0.756  24.372  0.00  0.00    +0.058 A 
BRANCH  10  12
ATOM     12  C   UNL     1      -4.132  -0.669  24.732  0.00  0.00    +0.037 A 
ATOM     13  C   UNL     1      -4.277  -1.041  24.011  0.00  0.00    +0.005 A 
ATOM     14  C   UNL     1      -4.062  -1.831  23.902  0.00  0.00    +0.030 A 
ATOM     15  C   UNL     1      -3.702  -2.248  24.515  0.00  0.00    +0.140 A 
ATOM     16  F   UNL     1      -3.487  -3.037  24.408  0.00  0.00    -0.204 F 
ATOM     17  C   UNL     1      -3.557  -1.876  25.238  0.00  0.00    +0.030 A 
ATOM     18  C   UNL     1      -3.771  -1.086  25.346  0.00  0.00    +0.005 A 
ENDBRANCH  10  12
ENDBRANCH   6   7
ENDBRANCH   5   6
BRANCH  20  21
ATOM     21  C   UNL     1      -1.655   2.934  24.934  0.00  0.00    +0.121 C 
BRANCH  21  22
ATOM     22  N   UNL     1      -1.392   2.244  24.565  0.00  0.00    -0.215 NA
BRANCH  22  23
ATOM     23  C   UNL     1      -0.667   1.913  24.778  0.00  0.00    +0.089 C 
BRANCH  23  24
ATOM     24  C   UNL     1      -0.486   1.140  24.556  0.00  0.00    +0.017 C 
ATOM     25  C   UNL     1      -0.251   0.978  23.782  0.00  0.00    +0.001 C 
ATOM     26  C   UNL     1      -0.069   0.204  23.559  0.00  0.00    +0.000 C 
ATOM     27  C   UNL     1      -0.124  -0.407  24.110  0.00  0.00    +0.000 C 
ATOM     28  C   UNL     1      -0.360  -0.245  24.884  0.00  0.00    +0.000 C 
ATOM     29  C   UNL     1      -0.541   0.528  25.106  0.00  0.00    +0.001 C 
ENDBRANCH  23  24
ENDBRANCH  22  23
ENDBRANCH  21  22
ENDBRANCH  20  21
TORSDOF 7
ENDMDL
MODEL 4
REMARK VINA RESULT:     -12.4      1.981      4.128
REMARK  Name = 
REMARK  7 active torsions:
REMARK  status: ('A' for Active; 'I' for Inactive)
REMARK    1  A    between atoms: C_5  and  C_6
REMARK    2  A    between atoms: C_6  and  C_7
REMARK    3  A    between atoms: C_10  and  C_12
REMARK    4  A    between atoms: C_20  and  C_21
REMARK    5  A    between atoms: C_21  and  N_22
REMARK    6  A    between atoms: N_22  and  C_23
REMARK    7  A    between atoms: C_23  and  C_24
REMARK                            x       y       z     vdW  Elec       q    Type
REMARK                         _______ _______ _______ _____ _____    ______ ____
ROOT
ATOM      1  O   UNL     1      -0.105  -1.129  24.366  0.00  0.00    -0.220 OA
ATOM      2  C   UNL     1      -0.885  -1.104  24.633  0.00  0.00    +0.180 C 
ATOM      3  C   UNL     1      -1.393  -1.736  24.480  0.00  0.00    +0.038 C 
ATOM      4  C   UNL     1      -2.174  -1.712  24.748  0.00  0.00    +0.033 C 
ATOM      5  C   UNL     1      -2.445  -1.056  25.168  0.00  0.00    +0.121 C 
ATOM     19  O   UNL     1      -1.937  -0.425  25.321  0.00  0.00    -0.354 OA
ATOM     20  C   UNL     1      -1.157  -0.449  25.054  0.00  0.00    +0.163 C 
ENDROOT
BRANCH   5   6
ATOM      6  C   UNL     1      -3.226  -1.032  25.436  0.00  0.00    +0.079 C 
BRANCH   6   7
ATOM      7  C   UNL     1      -3.756  -0.487  25.114  0.00  0.00    +0.103 A 
ATOM      8  N   UNL     1      -4.198  -0.590  24.425  0.00  0.00    -0.081 NA
ATOM      9  O   UNL     1      -4.652   0.089  24.311  0.00  0.00    -0.354 OA
ATOM     10  C   UNL     1      -4.489   0.611  24.929  0.00  0.00    +0.177 A 
ATOM     11  C   UNL     1      -3.936   0.255  25.425  0.00  0.00    +0.058 A 
BRANCH  10  12
ATOM     12  C   UNL     1      -4.823   1.359  25.032  0.00  0.00    +0.037 A 
ATOM     13  C   UNL     1      -4.499   2.012  24.647  0.00  0.00    +0.005 A 
ATOM     14  C   UNL     1      -4.832   2.760  24.750  0.00  0.00    +0.030 A 
ATOM     15  C   UNL     1      -5.490   2.855  25.239  0.00  0.00    +0.140 A 
ATOM     16  F   UNL     1      -5.823   3.602  25.342  0.00  0.00    -0.204 F 
ATOM     17  C   UNL     1      -5.814   2.201  25.625  0.00  0.00    +0.030 A 
ATOM     18  C   UNL     1      -5.481   1.453  25.522  0.00  0.00    +0.005 A 
ENDBRANCH  10  12
ENDBRANCH   6   7
ENDBRANCH   5   6
BRANCH  20  21
ATOM     21  C   UNL     1      -0.649   0.183  25.207  0.00  0.00    +0.121 C 
BRANCH  21  22
ATOM     22  N   UNL     1      -0.929   0.958  25.161  0.00  0.00    -0.215 NA
BRANCH  22  23
ATOM     23  C   UNL     1      -0.450   1.585  25.404  0.00  0.00    +0.089 C 
BRANCH  23  24
ATOM     24  C   UNL     1      -0.725   2.360  25.348  0.00  0.00    +0.017 C 
ATOM     25  C   UNL     1      -1.118   2.705  25.986  0.00  0.00    +0.001 C 
ATOM     26  C   UNL     1      -1.393   3.481  25.929  0.00  0.00    +0.000 C 
ATOM     27  C   UNL     1      -1.276   3.911  25.235  0.00  0.00    +0.000 C 
ATOM     28  C   UNL     1      -0.883   3.565  24.597  0.00  0.00    +0.000 C 
ATOM     29  C   UNL     1      -0.608   2.790  24.654  0.00  0.00    +0.001 C 
ENDBRANCH  23  24
ENDBRANCH  22  23
ENDBRANCH  21  22
ENDBRANCH  20  21
TORSDOF 7
ENDMDL
MODEL 5
REMARK VINA RESULT:     -12.4      2.085      5.073
REMARK  Name = 
REMARK  7 active torsions:
REMARK  status: ('A' for Active; 'I' for Inactive)
REMARK    1  A    between atoms: C_5  and  C_6
REMARK    2  A    between atoms: C_6  and  C_7
REMARK    3  A    between atoms: C_10  and  C_12
REMARK    4  A    between atoms: C_20  and  C_21
REMARK    5  A    between atoms: C_21  and  N_22
REMARK    6  A    between atoms: N_22  and  C_23
REMARK    7  A    between atoms: C_23  and  C_24
REMARK                            x       y       z     vdW  Elec       q    Type
REMARK                         _______ _______ _______ _____ _____    ______ ____
ROOT
ATOM      1  O   UNL     1       0.533   1.478  24.300  0.00  0.00    -0.220 OA
ATOM      2  C   UNL     1      -0.031   1.970  24.645  0.00  0.00    +0.180 C 
ATOM      3  C   UNL     1       0.033   2.789  24.567  0.00  0.00    +0.038 C 
ATOM      4  C   UNL     1      -0.532   3.282  24.912  0.00  0.00    +0.033 C 
ATOM      5  C   UNL     1      -1.160   2.956  25.336  0.00  0.00    +0.121 C 
ATOM     19  O   UNL     1      -1.224   2.137  25.414  0.00  0.00    -0.354 OA
ATOM     20  C   UNL     1      -0.660   1.645  25.069  0.00  0.00    +0.163 C 
ENDROOT
BRANCH   5   6
ATOM      6  C   UNL     1      -1.725   3.449  25.681  0.00  0.00    +0.079 C 
BRANCH   6   7
ATOM      7  C   UNL     1      -2.490   3.479  25.373  0.00  0.00    +0.103 A 
ATOM      8  N   UNL     1      -2.771   4.029  24.825  0.00  0.00    -0.081 NA
ATOM      9  O   UNL     1      -3.562   3.854  24.673  0.00  0.00    -0.354 OA
ATOM     10  C   UNL     1      -3.771   3.198  25.127  0.00  0.00    +0.177 A 
ATOM     11  C   UNL     1      -3.108   2.966  25.560  0.00  0.00    +0.058 A 
BRANCH  10  12
ATOM     12  C   UNL     1      -4.513   2.836  25.145  0.00  0.00    +0.037 A 
ATOM     13  C   UNL     1      -5.066   3.057  25.714  0.00  0.00    +0.005 A 
ATOM     14  C   UNL     1      -5.808   2.696  25.732  0.00  0.00    +0.030 A 
ATOM     15  C   UNL     1      -5.996   2.114  25.180  0.00  0.00    +0.140 A 
ATOM     16  F   UNL     1      -6.737   1.752  25.197  0.00  0.00    -0.204 F 
ATOM     17  C   UNL     1      -5.442   1.892  24.609  0.00  0.00    +0.030 A 
ATOM     18  C   UNL     1      -4.700   2.253  24.591  0.00  0.00    +0.005 A 
ENDBRANCH  10  12
ENDBRANCH   6   7
ENDBRANCH   5   6
BRANCH  20  21
ATOM     21  C   UNL     1      -0.724   0.826  25.148  0.00  0.00    +0.121 C 
BRANCH  21  22
ATOM     22  N   UNL     1      -1.459   0.459  25.069  0.00  0.00    -0.215 NA
BRANCH  22  23
ATOM     23  C   UNL     1      -1.543  -0.341  25.249  0.00  0.00    +0.089 C 
BRANCH  23  24
ATOM     24  C   UNL     1      -2.285  -0.697  25.209  0.00  0.00    +0.017 C 
ATOM     25  C   UNL     1      -2.713  -0.837  25.901  0.00  0.00    +0.001 C 
ATOM     26  C   UNL     1      -3.457  -1.193  25.862  0.00  0.00    +0.000 C 
ATOM     27  C   UNL     1      -3.772  -1.409  25.132  0.00  0.00    +0.000 C 
ATOM     28  C   UNL     1      -3.345  -1.270  24.440  0.00  0.00    +0.000 C 
ATOM     29  C   UNL     1      -2.602  -0.914  24.479  0.00  0.00    +0.001 C 
ENDBRANCH  23  24
ENDBRANCH  22  23
ENDBRANCH  21  22
ENDBRANCH  20  21
TORSDOF 7
ENDMDL
MODEL 6
REMARK VINA RESULT:     -12.3      1.902      4.062
REMARK  Name = 
REMARK  7 active torsions:
REMARK  status: ('A' for Active; 'I' for Inactive)
REMARK    1  A    between atoms: C_5  and  C_6
REMARK    2  A    between atoms: C_6  and  C_7
REMARK    3  A    between atoms: C_10  and  C_12
REMARK    4  A    between atoms: C_20  and  C_21
REMARK    5  A    between atoms: C_21  and  N_22
REMARK    6  A    between atoms: N_22  and  C_23
REMARK    7  A    between atoms: C_23  and  C_24
REMARK                            x       y       z     vdW  Elec       q    Type
REMARK                         _______ _______ _______ _____ _____    ______ ____
ROOT
ATOM      1  O   UNL     1      -4.358  -1.816  24.036  0.00  0.00    -0.220 OA
ATOM      2  C   UNL     1      -3.691  -1.542  24.436  0.00  0.00    +0.180 C 
ATOM      3  C   UNL     1      -3.026  -2.024  24.506  0.00  0.00    +0.038 C 
ATOM      4  C   UNL     1      -2.358  -1.749  24.906  0.00  0.00    +0.033 C 
ATOM      5  C   UNL     1      -2.357  -0.993  25.235  0.00  0.00    +0.121 C 
ATOM     19  O   UNL     1      -3.022  -0.511  25.165  0.00  0.00    -0.354 OA
ATOM     20  C   UNL     1      -3.689  -0.785  24.765  0.00  0.00    +0.163 C 
ENDROOT
BRANCH   5   6
ATOM      6  C   UNL     1      -1.689  -0.718  25.635  0.00  0.00    +0.079 C 
BRANCH   6   7
ATOM      7  C   UNL     1      -1.262  -0.079  25.335  0.00  0.00    +0.103 A 
ATOM      8  N   UNL     1      -0.629  -0.123  24.807  0.00  0.00    -0.081 NA
ATOM      9  O   UNL     1      -0.369   0.644  24.656  0.00  0.00    -0.354 OA
ATOM     10  C   UNL     1      -0.840   1.163  25.092  0.00  0.00    +0.177 A 
ATOM     11  C   UNL     1      -1.391   0.716  25.511  0.00  0.00    +0.058 A 
BRANCH  10  12
ATOM     12  C   UNL     1      -0.771   1.986  25.105  0.00  0.00    +0.037 A 
ATOM     13  C   UNL     1      -0.829   2.393  25.819  0.00  0.00    +0.005 A 
ATOM     14  C   UNL     1      -0.760   3.216  25.832  0.00  0.00    +0.030 A 
ATOM     15  C   UNL     1      -0.633   3.630  25.130  0.00  0.00    +0.140 A 
ATOM     16  F   UNL     1      -0.564   4.452  25.143  0.00  0.00    -0.204 F 
ATOM     17  C   UNL     1      -0.575   3.222  24.415  0.00  0.00    +0.030 A 
ATOM     18  C   UNL     1      -0.644   2.400  24.402  0.00  0.00    +0.005 A 
ENDBRANCH  10  12
ENDBRANCH   6   7
ENDBRANCH   5   6
BRANCH  20  21
ATOM     21  C   UNL     1      -4.355  -0.303  24.694  0.00  0.00    +0.121 C 
BRANCH  21  22
ATOM     22  N   UNL     1      -4.318   0.488  24.926  0.00  0.00    -0.215 NA
BRANCH  22  23
ATOM     23  C   UNL     1      -4.910   1.014  24.693  0.00  0.00    +0.089 C 
BRANCH  23  24
ATOM     24  C   UNL     1      -4.823   1.822  24.836  0.00  0.00    +0.017 C 
ATOM     25  C   UNL     1      -4.427   2.296  24.289  0.00  0.00    +0.001 C 
ATOM     26  C   UNL     1      -4.340   3.105  24.432  0.00  0.00    +0.000 C 
ATOM     27  C   UNL     1      -4.649   3.437  25.121  0.00  0.00    +0.000 C 
ATOM     28  C   UNL     1      -5.045   2.963  25.667  0.00  0.00    +0.000 C 
ATOM     29  C   UNL     1      -5.132   2.155  25.524  0.00  0.00    +0.001 C 
ENDBRANCH  23  24
ENDBRANCH  22  23
ENDBRANCH  21  22
ENDBRANCH  20  21
TORSDOF 7
ENDMDL
