MODEL 1
REMARK VINA RESULT:     -12.4      0.000      0.000
REMARK  Name = 
REMARK  6 active torsions:
REMARK  status: ('A' for Active; 'I' for Inactive)
REMARK    1  A    between atoms: C_5  and  C_6
REMARK    2  A    between atoms: C_6  and  C_7
REMARK    3  A    between atoms: C_10  and  C_12
REMARK    4  A    between atoms: C_20  and  C_21
REMARK    5  A    between atoms: C_21  and  N_22
REMARK    6  A    between atoms: N_22  and  C_23
REMARK                            x       y       z     vdW  Elec       q    Type
REMARK                         _______ _______ _______ _____ _____    ______ ____
ROOT
ATOM      1  O   UNL     1      -3.036   4.365  26.023  0.00  0.00    -0.220 OA
ATOM      2  C   UNL     1      -3.410   3.758  25.606  0.00  0.00    +0.180 C 
ATOM      3  C   UNL     1      -4.228   3.772  25.503  0.00  0.00    +0.038 C 
ATOM      4  C   UNL     1      -4.602   3.165  25.088  0.00  0.00    +0.033 C 
ATOM      5  C   UNL     1      -4.156   2.545  24.775  0.00  0.00    +0.121 C 
ATOM     19  O   UNL     1      -3.339   2.532  24.878  0.00  0.00    -0.354 OA
ATOM     20  C   UNL     1      -2.965   3.138  25.294  0.00  0.00    +0.163 C 
ENDROOT
BRANCH   5   6
ATOM      6  C   UNL     1      -4.531   1.938  24.359  0.00  0.00    +0.079 C 
BRANCH   6   7
ATOM      7  C   UNL     1      -4.546   1.174  24.669  0.00  0.00    +0.103 A 
ATOM      8  N   UNL     1      -4.923   0.940  25.364  0.00  0.00    -0.081 NA
ATOM      9  O   UNL     1      -4.797   0.130  25.463  0.00  0.00    -0.354 OA
ATOM     10  C   UNL     1      -4.342  -0.136  24.829  0.00  0.00    +0.177 A 
ATOM     11  C   UNL     1      -4.187   0.509  24.338  0.00  0.00    +0.058 A 
BRANCH  10  12
ATOM     12  C   UNL     1      -4.087  -0.911  24.707  0.00  0.00    +0.037 A 
ATOM     13  C   UNL     1      -4.330  -1.323  24.035  0.00  0.00    +0.005 A 
ATOM     14  C   UNL     1      -4.075  -2.098  23.912  0.00  0.00    +0.030 A 
ATOM     15  C   UNL     1      -3.578  -2.461  24.461  0.00  0.00    +0.140 A 
ATOM     16  F   UNL     1      -3.323  -3.235  24.339  0.00  0.00    -0.204 F 
ATOM     17  C   UNL     1      -3.335  -2.048  25.134  0.00  0.00    +0.030 A 
ATOM     18  C   UNL     1      -3.590  -1.274  25.256  0.00  0.00    +0.005 A 
ENDBRANCH  10  12
ENDBRANCH   6   7
ENDBRANCH   5   6
BRANCH  20  21
ATOM     21  C   UNL     1      -2.146   3.124  25.397  0.00  0.00    +0.121 C 
BRANCH  21  22
ATOM     22  N   UNL     1      -1.745   2.404  25.413  0.00  0.00    -0.217 NA
BRANCH  22  23
ATOM     23  C   UNL     1      -0.921   2.392  25.464  0.00  0.00    +0.078 C 
ATOM     24  C   UNL     1      -0.468   2.252  24.788  0.00  0.00    +0.050 C 
ATOM     25  C   UNL     1       0.355   2.240  24.839  0.00  0.00    +0.144 C 
ATOM     26  O   UNL     1       0.726   2.368  25.565  0.00  0.00    -0.354 OA
ATOM     27  C   UNL     1       0.272   2.507  26.240  0.00  0.00    +0.144 C 
ATOM     28  C   UNL     1      -0.551   2.520  26.189  0.00  0.00    +0.050 C 
ENDBRANCH  22  23
ENDBRANCH  21  22
ENDBRANCH  20  21
TORSDOF 6
ENDMDL
MODEL 2
REMARK VINA RESULT:     -12.2      1.183      1.569
REMARK  Name = 
REMARK  6 active torsions:
REMARK  status: ('A' for Active; 'I' for Inactive)
REMARK    1  A    between atoms: C_5  and  C_6
REMARK    2  A    between atoms: C_6  and  C_7
REMARK    3  A    between atoms: C_10  and  C_12
REMARK    4  A    between atoms: C_20  and  C_21
REMARK    5  A    between atoms: C_21  and  N_22
REMARK    6  A    between atoms: N_22  and  C_23
REMARK                            x       y       z     vdW  Elec       q    Type
REMARK                         _______ _______ _______ _____ _____    ______ ____
ROOT
ATOM      1  O   UNL     1      -4.874   4.038  26.177  0.00  0.00    -0.220 OA
ATOM      2  C   UNL     1      -4.862   3.336  25.742  0.00  0.00    +0.180 C 
ATOM      3  C   UNL     1      -5.543   2.877  25.683  0.00  0.00    +0.038 C 
ATOM      4  C   UNL     1      -5.532   2.175  25.249  0.00  0.00    +0.033 C 
ATOM      5  C   UNL     1      -4.838   1.935  24.875  0.00  0.00    +0.121 C 
ATOM     19  O   UNL     1      -4.156   2.394  24.934  0.00  0.00    -0.354 OA
ATOM     20  C   UNL     1      -4.168   3.095  25.368  0.00  0.00    +0.163 C 
ENDROOT
BRANCH   5   6
ATOM      6  C   UNL     1      -4.826   1.233  24.440  0.00  0.00    +0.079 C 
BRANCH   6   7
ATOM      7  C   UNL     1      -4.497   0.550  24.767  0.00  0.00    +0.103 A 
ATOM      8  N   UNL     1      -4.673   0.235  25.509  0.00  0.00    -0.081 NA
ATOM      9  O   UNL     1      -4.219  -0.447  25.611  0.00  0.00    -0.354 OA
ATOM     10  C   UNL     1      -3.764  -0.553  24.932  0.00  0.00    +0.177 A 
ATOM     11  C   UNL     1      -3.936   0.063  24.410  0.00  0.00    +0.058 A 
BRANCH  10  12
ATOM     12  C   UNL     1      -3.231  -1.168  24.797  0.00  0.00    +0.037 A 
ATOM     13  C   UNL     1      -3.507  -1.916  24.585  0.00  0.00    +0.005 A 
ATOM     14  C   UNL     1      -2.974  -2.530  24.450  0.00  0.00    +0.030 A 
ATOM     15  C   UNL     1      -2.164  -2.397  24.527  0.00  0.00    +0.140 A 
ATOM     16  F   UNL     1      -1.630  -3.012  24.392  0.00  0.00    -0.204 F 
ATOM     17  C   UNL     1      -1.886  -1.649  24.739  0.00  0.00    +0.030 A 
ATOM     18  C   UNL     1      -2.420  -1.035  24.874  0.00  0.00    +0.005 A 
ENDBRANCH  10  12
ENDBRANCH   6   7
ENDBRANCH   5   6
BRANCH  20  21
ATOM     21  C   UNL     1      -3.485   3.555  25.427  0.00  0.00    +0.121 C 
BRANCH  21  22
ATOM     22  N   UNL     1      -2.878   3.464  24.878  0.00  0.00    -0.217 NA
BRANCH  22  23
ATOM     23  C   UNL     1      -2.144   3.819  25.011  0.00  0.00    +0.078 C 
ATOM     24  C   UNL     1      -2.071   4.640  24.972  0.00  0.00    +0.050 C 
ATOM     25  C   UNL     1      -1.338   4.995  25.105  0.00  0.00    +0.144 C 
ATOM     26  O   UNL     1      -0.678   4.529  25.276  0.00  0.00    -0.354 OA
ATOM     27  C   UNL     1      -0.753   3.709  25.315  0.00  0.00    +0.144 C 
ATOM     28  C   UNL     1      -1.486   3.354  25.182  0.00  0.00    +0.050 C 
ENDBRANCH  22  23
ENDBRANCH  21  22
ENDBRANCH  20  21
TORSDOF 6
ENDMDL
MODEL 3
REMARK VINA RESULT:     -11.6      1.416      3.253
REMARK  Name = 
REMARK  6 active torsions:
REMARK  status: ('A' for Active; 'I' for Inactive)
REMARK    1  A    between atoms: C_5  and  C_6
REMARK    2  A    between atoms: C_6  and  C_7
REMARK    3  A    between atoms: C_10  and  C_12
REMARK    4  A    between atoms: C_20  and  C_21
REMARK    5  A    between atoms: C_21  and  N_22
REMARK    6  A    between atoms: N_22  and  C_23
REMARK                            x       y       z     vdW  Elec       q    Type
REMARK                         _______ _______ _______ _____ _____    ______ ____
ROOT
ATOM      1  O   UNL     1      -1.759   4.280  25.781  0.00  0.00    -0.220 OA
ATOM      2  C   UNL     1      -1.560   3.549  25.453  0.00  0.00    +0.180 C 
ATOM      3  C   UNL     1      -0.768   3.338  25.366  0.00  0.00    +0.038 C 
ATOM      4  C   UNL     1      -0.568   2.608  25.039  0.00  0.00    +0.033 C 
ATOM      5  C   UNL     1      -1.163   2.088  24.799  0.00  0.00    +0.121 C 
ATOM     19  O   UNL     1      -1.955   2.299  24.886  0.00  0.00    -0.354 OA
ATOM     20  C   UNL     1      -2.154   3.029  25.213  0.00  0.00    +0.163 C 
ENDROOT
BRANCH   5   6
ATOM      6  C   UNL     1      -0.963   1.357  24.472  0.00  0.00    +0.079 C 
BRANCH   6   7
ATOM      7  C   UNL     1      -1.193   0.660  24.848  0.00  0.00    +0.103 A 
ATOM      8  N   UNL     1      -0.905   0.380  25.569  0.00  0.00    -0.081 NA
ATOM      9  O   UNL     1      -1.285  -0.333  25.736  0.00  0.00    -0.354 OA
ATOM     10  C   UNL     1      -1.808  -0.494  25.120  0.00  0.00    +0.177 A 
ATOM     11  C   UNL     1      -1.751   0.120  24.571  0.00  0.00    +0.058 A 
BRANCH  10  12
ATOM     12  C   UNL     1      -2.301  -1.152  25.061  0.00  0.00    +0.037 A 
ATOM     13  C   UNL     1      -2.044  -1.826  24.660  0.00  0.00    +0.005 A 
ATOM     14  C   UNL     1      -2.537  -2.484  24.602  0.00  0.00    +0.030 A 
ATOM     15  C   UNL     1      -3.287  -2.470  24.944  0.00  0.00    +0.140 A 
ATOM     16  F   UNL     1      -3.780  -3.129  24.886  0.00  0.00    -0.204 F 
ATOM     17  C   UNL     1      -3.545  -1.797  25.346  0.00  0.00    +0.030 A 
ATOM     18  C   UNL     1      -3.052  -1.138  25.404  0.00  0.00    +0.005 A 
ENDBRANCH  10  12
ENDBRANCH   6   7
ENDBRANCH   5   6
BRANCH  20  21
ATOM     21  C   UNL     1      -2.947   3.240  25.300  0.00  0.00    +0.121 C 
BRANCH  21  22
ATOM     22  N   UNL     1      -3.511   2.950  24.774  0.00  0.00    -0.217 NA
BRANCH  22  23
ATOM     23  C   UNL     1      -4.305   2.915  24.998  0.00  0.00    +0.078 C 
ATOM     24  C   UNL     1      -4.666   3.574  25.341  0.00  0.00    +0.050 C 
ATOM     25  C   UNL     1      -5.459   3.539  25.564  0.00  0.00    +0.144 C 
ATOM     26  O   UNL     1      -5.892   2.847  25.444  0.00  0.00    -0.354 OA
ATOM     27  C   UNL     1      -5.531   2.189  25.101  0.00  0.00    +0.144 C 
ATOM     28  C   UNL     1      -4.738   2.224  24.878  0.00  0.00    +0.050 C 
ENDBRANCH  22  23
ENDBRANCH  21  22
ENDBRANCH  20  21
TORSDOF 6
ENDMDL
MODEL 4
REMARK VINA RESULT:     -11.3      2.087      3.829
REMARK  Name = 
REMARK  6 active torsions:
REMARK  status: ('A' for Active; 'I' for Inactive)
REMARK    1  A    between atoms: C_5  and  C_6
REMARK    2  A    between atoms: C_6  and  C_7
REMARK    3  A    between atoms: C_10  and  C_12
REMARK    4  A    between atoms: C_20  and  C_21
REMARK    5  A    between atoms: C_21  and  N_22
REMARK    6  A    between atoms: N_22  and  C_23
REMARK                            x       y       z     vdW  Elec       q    Type
REMARK                         _______ _______ _______ _____ _____    ______ ____
ROOT
ATOM      1  O   UNL     1      -0.459  -1.660  24.396  0.00  0.00    -0.220 OA
ATOM      2  C   UNL     1      -1.232  -1.531  24.658  0.00  0.00    +0.180 C 
ATOM      3  C   UNL     1      -1.789  -2.136  24.610  0.00  0.00    +0.038 C 
ATOM      4  C   UNL     1      -2.561  -2.008  24.873  0.00  0.00    +0.033 C 
ATOM      5  C   UNL     1      -2.773  -1.274  25.183  0.00  0.00    +0.121 C 
ATOM     19  O   UNL     1      -2.216  -0.669  25.231  0.00  0.00    -0.354 OA
ATOM     20  C   UNL     1      -1.444  -0.797  24.968  0.00  0.00    +0.163 C 
ENDROOT
BRANCH   5   6
ATOM      6  C   UNL     1      -3.546  -1.146  25.445  0.00  0.00    +0.079 C 
BRANCH   6   7
ATOM      7  C   UNL     1      -4.000  -0.543  25.113  0.00  0.00    +0.103 A 
ATOM      8  N   UNL     1      -4.366  -0.563  24.374  0.00  0.00    -0.081 NA
ATOM      9  O   UNL     1      -4.760   0.154  24.265  0.00  0.00    -0.354 OA
ATOM     10  C   UNL     1      -4.637   0.617  24.936  0.00  0.00    +0.177 A 
ATOM     11  C   UNL     1      -4.167   0.186  25.460  0.00  0.00    +0.058 A 
BRANCH  10  12
ATOM     12  C   UNL     1      -4.932   1.377  25.061  0.00  0.00    +0.037 A 
ATOM     13  C   UNL     1      -4.502   2.033  24.807  0.00  0.00    +0.005 A 
ATOM     14  C   UNL     1      -4.797   2.793  24.932  0.00  0.00    +0.030 A 
ATOM     15  C   UNL     1      -5.521   2.898  25.312  0.00  0.00    +0.140 A 
ATOM     16  F   UNL     1      -5.816   3.657  25.438  0.00  0.00    -0.204 F 
ATOM     17  C   UNL     1      -5.952   2.241  25.567  0.00  0.00    +0.030 A 
ATOM     18  C   UNL     1      -5.657   1.481  25.442  0.00  0.00    +0.005 A 
ENDBRANCH  10  12
ENDBRANCH   6   7
ENDBRANCH   5   6
BRANCH  20  21
ATOM     21  C   UNL     1      -0.886  -0.191  25.016  0.00  0.00    +0.121 C 
BRANCH  21  22
ATOM     22  N   UNL     1      -1.102   0.583  24.836  0.00  0.00    -0.217 NA
BRANCH  22  23
ATOM     23  C   UNL     1      -0.571   1.202  24.968  0.00  0.00    +0.078 C 
ATOM     24  C   UNL     1      -0.069   1.450  24.362  0.00  0.00    +0.050 C 
ATOM     25  C   UNL     1       0.461   2.068  24.494  0.00  0.00    +0.144 C 
ATOM     26  O   UNL     1       0.491   2.437  25.232  0.00  0.00    -0.354 OA
ATOM     27  C   UNL     1      -0.011   2.187  25.837  0.00  0.00    +0.144 C 
ATOM     28  C   UNL     1      -0.542   1.569  25.705  0.00  0.00    +0.050 C 
ENDBRANCH  22  23
ENDBRANCH  21  22
ENDBRANCH  20  21
TORSDOF 6
ENDMDL
