REMARK  Name = 
REMARK  5 active torsions:
REMARK  status: ('A' for Active; 'I' for Inactive)
REMARK    1  A    between atoms: C_2  and  C_27
REMARK    2  A    between atoms: C_9  and  N_10
REMARK    3  A    between atoms: N_13  and  C_14
REMARK    4  A    between atoms: C_27  and  C_29
REMARK    5  A    between atoms: N_31  and  C_32
REMARK                            x       y       z     vdW  Elec       q    Type
REMARK                         _______ _______ _______ _____ _____    ______ ____
ROOT
ATOM      1  C   UNL     1       0.715  -1.238   0.000  0.00  0.00    +0.052 C 
ATOM      2  C   UNL     1       0.715  -0.412   0.000  0.00  0.00    -0.001 C 
ATOM      3  C   UNL     1       1.429   0.000   0.000  0.00  0.00    -0.000 C 
ATOM      4  C   UNL     1       2.143  -0.412   0.000  0.00  0.00    -0.001 C 
ATOM      5  C   UNL     1       2.143   0.412   0.000  0.00  0.00    -0.000 C 
ATOM      6  C   UNL     1       2.858   0.000   0.000  0.00  0.00    +0.002 C 
ATOM      7  C   UNL     1       3.572  -0.412   0.000  0.00  0.00    +0.022 C 
ATOM      8  C   UNL     1       3.572  -1.238   0.000  0.00  0.00    +0.097 C 
ATOM     20  C   UNL     1       2.858  -1.650   0.000  0.00  0.00    +0.019 C 
ATOM     21  C   UNL     1       2.858  -2.475   0.000  0.00  0.00    +0.002 C 
ATOM     22  C   UNL     1       2.143  -1.238   0.000  0.00  0.00    +0.045 C 
ATOM     23  C   UNL     1       1.429  -1.650   0.000  0.00  0.00    +0.145 C 
ATOM     24  O   UNL     1       1.429  -2.475   0.000  0.00  0.00    -0.224 OA
ENDROOT
BRANCH   8   9
ATOM      9  N   UNL     1       4.287  -1.650   0.000  0.00  0.00    -0.189 NA
ATOM     10  C   UNL     1       5.001  -1.238   0.000  0.00  0.00    +0.343 C 
ATOM     11  O   UNL     1       5.001  -0.412   0.000  0.00  0.00    -0.249 OA
ATOM     12  N   UNL     1       5.716  -1.650   0.000  0.00  0.00    -0.161 NA
BRANCH  12  13
ATOM     13  C   UNL     1       6.430  -1.238   0.000  0.00  0.00    +0.077 A 
ATOM     14  C   UNL     1       6.430  -0.412   0.000  0.00  0.00    +0.017 A 
ATOM     15  C   UNL     1       7.145   0.000   0.000  0.00  0.00    +0.004 A 
ATOM     16  C   UNL     1       7.859  -0.412   0.000  0.00  0.00    +0.030 A 
ATOM     17  C   UNL     1       7.859  -1.238   0.000  0.00  0.00    +0.141 A 
ATOM     18  F   UNL     1       8.574  -1.650   0.000  0.00  0.00    -0.204 F 
ATOM     19  C   UNL     1       7.145  -1.650   0.000  0.00  0.00    +0.046 A 
ENDBRANCH  12  13
ENDBRANCH   8   9
BRANCH   1  25
ATOM     25  C   UNL     1       0.000  -1.650   0.000  0.00  0.00    +0.077 C 
ATOM     26  C   UNL     1       0.000  -2.475   0.000  0.00  0.00    +0.009 C 
BRANCH  25  27
ATOM     27  C   UNL     1      -0.715  -1.238   0.000  0.00  0.00    +0.241 C 
ATOM     28  O   UNL     1      -0.715  -0.412   0.000  0.00  0.00    -0.273 OA
ATOM     29  N   UNL     1      -1.429  -1.650   0.000  0.00  0.00    -0.207 NA
BRANCH  29  30
ATOM     30  C   UNL     1      -2.143  -1.238   0.000  0.00  0.00    +0.095 C 
ATOM     31  C   UNL     1      -2.968  -1.238   0.000  0.00  0.00    +0.023 C 
ATOM     32  C   UNL     1      -2.556  -0.523   0.000  0.00  0.00    +0.023 C 
ENDBRANCH  29  30
ENDBRANCH  25  27
ENDBRANCH   1  25
TORSDOF 5
