MODEL 1
REMARK VINA RESULT:      -9.7      0.000      0.000
REMARK  Name = 
REMARK  7 active torsions:
REMARK  status: ('A' for Active; 'I' for Inactive)
REMARK    1  A    between atoms: O_2  and  C_3
REMARK    2  A    between atoms: C_6  and  C_9
REMARK    3  A    between atoms: C_12  and  C_13
REMARK    4  A    between atoms: C_13  and  C_14
REMARK    5  A    between atoms: C_16  and  C_17
REMARK    6  A    between atoms: C_20  and  C_21
REMARK    7  A    between atoms: C_21  and  N_22
REMARK                            x       y       z     vdW  Elec       q    Type
REMARK                         _______ _______ _______ _____ _____    ______ ____
ROOT
ATOM     14  C   UNL     1      -2.846   0.206  24.347  0.00  0.00    +0.027 C 
ATOM     15  C   UNL     1      -2.659   0.866  23.888  0.00  0.00    +0.005 C 
ATOM     16  C   UNL     1      -3.178   1.507  23.856  0.00  0.00    +0.006 C 
ATOM     20  C   UNL     1      -3.883   1.488  24.283  0.00  0.00    +0.037 C 
ATOM     29  C   UNL     1      -4.070   0.828  24.742  0.00  0.00    -0.034 C 
ATOM     30  C   UNL     1      -3.552   0.188  24.774  0.00  0.00    -0.048 C 
ATOM     31  C   UNL     1      -3.739  -0.472  25.233  0.00  0.00    +0.026 C 
ENDROOT
BRANCH  16  17
ATOM     17  C   UNL     1      -2.991   2.167  23.397  0.00  0.00    +0.000 C 
ATOM     18  C   UNL     1      -2.572   2.794  23.728  0.00  0.00    +0.000 C 
ATOM     19  C   UNL     1      -3.224   2.198  22.606  0.00  0.00    +0.000 C 
ENDBRANCH  16  17
BRANCH  14  13
ATOM     13  C   UNL     1      -2.328  -0.434  24.379  0.00  0.00    +0.091 C 
BRANCH  13  12
ATOM      9  C   UNL     1      -0.240  -0.096  24.089  0.00  0.00    +0.250 A 
ATOM     10  N   UNL     1      -0.285  -0.116  24.912  0.00  0.00    -0.107 NA
ATOM     11  N   UNL     1      -1.073  -0.245  25.122  0.00  0.00    -0.111 NA
ATOM     12  C   UNL     1      -1.515  -0.305  24.427  0.00  0.00    +0.227 A 
ATOM     32  O   UNL     1      -1.000  -0.213  23.789  0.00  0.00    -0.420 OA
BRANCH   9   6
ATOM      3  C   UNL     1       1.815   0.252  22.753  0.00  0.00    +0.139 A 
ATOM      4  C   UNL     1       1.580   0.818  23.306  0.00  0.00    +0.037 A 
ATOM      5  C   UNL     1       0.896   0.702  23.751  0.00  0.00    +0.008 A 
ATOM      6  C   UNL     1       0.445   0.020  23.644  0.00  0.00    +0.055 A 
ATOM      7  C   UNL     1       0.678  -0.547  23.091  0.00  0.00    +0.008 A 
ATOM      8  C   UNL     1       1.363  -0.431  22.646  0.00  0.00    +0.037 A 
BRANCH   3   2
ATOM      1  C   UNL     1       3.232   0.421  22.685  0.00  0.00    +0.252 C 
ATOM      2  O   UNL     1       2.499   0.368  22.308  0.00  0.00    -0.471 OA
ENDBRANCH   3   2
ENDBRANCH   9   6
ENDBRANCH  13  12
ENDBRANCH  14  13
BRANCH  20  21
ATOM     21  C   UNL     1      -4.403   2.129  24.251  0.00  0.00    +0.076 C 
BRANCH  21  22
ATOM     22  N   UNL     1      -4.946   2.250  24.859  0.00  0.00    -0.272 NA
ATOM     23  C   UNL     1      -5.692   1.898  24.822  0.00  0.00    +0.075 C 
ATOM     24  C   UNL     1      -6.235   2.018  25.430  0.00  0.00    +0.050 C 
ATOM     25  C   UNL     1      -6.034   2.491  26.076  0.00  0.00    +0.155 C 
ATOM     26  O   UNL     1      -6.579   2.612  26.684  0.00  0.00    -0.223 OA
ATOM     27  C   UNL     1      -5.289   2.843  26.113  0.00  0.00    +0.050 C 
ATOM     28  C   UNL     1      -4.745   2.723  25.505  0.00  0.00    +0.075 C 
ENDBRANCH  21  22
ENDBRANCH  20  21
TORSDOF 7
ENDMDL
MODEL 2
REMARK VINA RESULT:      -9.7      1.853      2.596
REMARK  Name = 
REMARK  7 active torsions:
REMARK  status: ('A' for Active; 'I' for Inactive)
REMARK    1  A    between atoms: O_2  and  C_3
REMARK    2  A    between atoms: C_6  and  C_9
REMARK    3  A    between atoms: C_12  and  C_13
REMARK    4  A    between atoms: C_13  and  C_14
REMARK    5  A    between atoms: C_16  and  C_17
REMARK    6  A    between atoms: C_20  and  C_21
REMARK    7  A    between atoms: C_21  and  N_22
REMARK                            x       y       z     vdW  Elec       q    Type
REMARK                         _______ _______ _______ _____ _____    ______ ____
ROOT
ATOM     14  C   UNL     1      -1.962   3.092  24.778  0.00  0.00    +0.027 C 
ATOM     15  C   UNL     1      -2.259   2.889  24.035  0.00  0.00    +0.005 C 
ATOM     16  C   UNL     1      -3.071   2.924  23.892  0.00  0.00    +0.006 C 
ATOM     20  C   UNL     1      -3.585   3.163  24.490  0.00  0.00    +0.037 C 
ATOM     29  C   UNL     1      -3.289   3.367  25.233  0.00  0.00    -0.034 C 
ATOM     30  C   UNL     1      -2.478   3.331  25.377  0.00  0.00    -0.048 C 
ATOM     31  C   UNL     1      -2.181   3.535  26.119  0.00  0.00    +0.026 C 
ENDROOT
BRANCH  16  17
ATOM     17  C   UNL     1      -3.368   2.721  23.149  0.00  0.00    +0.000 C 
ATOM     18  C   UNL     1      -3.413   1.928  22.926  0.00  0.00    +0.000 C 
ATOM     19  C   UNL     1      -3.619   3.310  22.630  0.00  0.00    +0.000 C 
ENDBRANCH  16  17
BRANCH  14  13
ATOM     13  C   UNL     1      -1.151   3.057  24.922  0.00  0.00    +0.091 C 
BRANCH  13  12
ATOM      9  C   UNL     1      -0.473   1.035  24.815  0.00  0.00    +0.250 A 
ATOM     10  N   UNL     1       0.216   1.445  24.621  0.00  0.00    -0.107 NA
ATOM     11  N   UNL     1       0.046   2.253  24.638  0.00  0.00    -0.111 NA
ATOM     12  C   UNL     1      -0.748   2.342  24.842  0.00  0.00    +0.227 A 
ATOM     32  O   UNL     1      -1.070   1.589  24.951  0.00  0.00    -0.420 OA
BRANCH   9   6
ATOM      3  C   UNL     1      -0.712  -1.424  24.961  0.00  0.00    +0.139 A 
ATOM      4  C   UNL     1      -0.997  -0.944  25.569  0.00  0.00    +0.037 A 
ATOM      5  C   UNL     1      -0.918  -0.125  25.520  0.00  0.00    +0.008 A 
ATOM      6  C   UNL     1      -0.553   0.216  24.864  0.00  0.00    +0.055 A 
ATOM      7  C   UNL     1      -0.267  -0.263  24.255  0.00  0.00    +0.008 A 
ATOM      8  C   UNL     1      -0.347  -1.083  24.304  0.00  0.00    +0.037 A 
BRANCH   3   2
ATOM      1  C   UNL     1      -1.480  -2.608  24.736  0.00  0.00    +0.252 C 
ATOM      2  O   UNL     1      -0.792  -2.244  25.010  0.00  0.00    -0.471 OA
ENDBRANCH   3   2
ENDBRANCH   9   6
ENDBRANCH  13  12
ENDBRANCH  14  13
BRANCH  20  21
ATOM     21  C   UNL     1      -4.398   3.199  24.347  0.00  0.00    +0.076 C 
BRANCH  21  22
ATOM     22  N   UNL     1      -4.930   2.966  24.931  0.00  0.00    -0.272 NA
ATOM     23  C   UNL     1      -5.282   3.531  25.419  0.00  0.00    +0.075 C 
ATOM     24  C   UNL     1      -5.814   3.298  26.003  0.00  0.00    +0.050 C 
ATOM     25  C   UNL     1      -5.997   2.499  26.101  0.00  0.00    +0.155 C 
ATOM     26  O   UNL     1      -6.530   2.267  26.686  0.00  0.00    -0.223 OA
ATOM     27  C   UNL     1      -5.645   1.934  25.614  0.00  0.00    +0.050 C 
ATOM     28  C   UNL     1      -5.112   2.166  25.029  0.00  0.00    +0.075 C 
ENDBRANCH  21  22
ENDBRANCH  20  21
TORSDOF 7
ENDMDL
MODEL 3
REMARK VINA RESULT:      -9.7      2.646      4.475
REMARK  Name = 
REMARK  7 active torsions:
REMARK  status: ('A' for Active; 'I' for Inactive)
REMARK    1  A    between atoms: O_2  and  C_3
REMARK    2  A    between atoms: C_6  and  C_9
REMARK    3  A    between atoms: C_12  and  C_13
REMARK    4  A    between atoms: C_13  and  C_14
REMARK    5  A    between atoms: C_16  and  C_17
REMARK    6  A    between atoms: C_20  and  C_21
REMARK    7  A    between atoms: C_21  and  N_22
REMARK                            x       y       z     vdW  Elec       q    Type
REMARK                         _______ _______ _______ _____ _____    ______ ____
ROOT
ATOM     14  C   UNL     1      -4.437   1.601  24.661  0.00  0.00    +0.027 C 
ATOM     15  C   UNL     1      -3.827   1.678  24.109  0.00  0.00    +0.005 C 
ATOM     16  C   UNL     1      -3.480   1.005  23.782  0.00  0.00    +0.006 C 
ATOM     20  C   UNL     1      -3.742   0.256  24.006  0.00  0.00    +0.037 C 
ATOM     29  C   UNL     1      -4.351   0.179  24.557  0.00  0.00    -0.034 C 
ATOM     30  C   UNL     1      -4.698   0.851  24.885  0.00  0.00    -0.048 C 
ATOM     31  C   UNL     1      -5.307   0.775  25.436  0.00  0.00    +0.026 C 
ENDROOT
BRANCH  16  17
ATOM     17  C   UNL     1      -2.871   1.082  23.230  0.00  0.00    +0.000 C 
ATOM     18  C   UNL     1      -3.048   1.217  22.437  0.00  0.00    +0.000 C 
ATOM     19  C   UNL     1      -2.085   1.023  23.474  0.00  0.00    +0.000 C 
ENDBRANCH  16  17
BRANCH  14  13
ATOM     13  C   UNL     1      -4.784   2.274  24.989  0.00  0.00    +0.091 C 
BRANCH  13  12
ATOM      9  C   UNL     1      -3.327   3.746  25.506  0.00  0.00    +0.250 A 
ATOM     10  N   UNL     1      -3.839   3.795  26.150  0.00  0.00    -0.107 NA
ATOM     11  N   UNL     1      -4.447   3.249  26.035  0.00  0.00    -0.111 NA
ATOM     12  C   UNL     1      -4.311   2.863  25.319  0.00  0.00    +0.227 A 
ATOM     32  O   UNL     1      -3.618   3.170  24.991  0.00  0.00    -0.420 OA
BRANCH   9   6
ATOM      3  C   UNL     1      -1.275   5.090  25.170  0.00  0.00    +0.139 A 
ATOM      4  C   UNL     1      -2.016   5.423  25.027  0.00  0.00    +0.037 A 
ATOM      5  C   UNL     1      -2.700   4.976  25.139  0.00  0.00    +0.008 A 
ATOM      6  C   UNL     1      -2.643   4.194  25.394  0.00  0.00    +0.055 A 
ATOM      7  C   UNL     1      -1.903   3.858  25.538  0.00  0.00    +0.008 A 
ATOM      8  C   UNL     1      -1.219   4.306  25.426  0.00  0.00    +0.037 A 
BRANCH   3   2
ATOM      1  C   UNL     1      -0.064   5.340  24.456  0.00  0.00    +0.252 C 
ATOM      2  O   UNL     1      -0.592   5.537  25.058  0.00  0.00    -0.471 OA
ENDBRANCH   3   2
ENDBRANCH   9   6
ENDBRANCH  13  12
ENDBRANCH  14  13
BRANCH  20  21
ATOM     21  C   UNL     1      -3.395  -0.418  23.678  0.00  0.00    +0.076 C 
BRANCH  21  22
ATOM     22  N   UNL     1      -3.451  -1.142  24.068  0.00  0.00    -0.272 NA
ATOM     23  C   UNL     1      -4.013  -1.697  23.830  0.00  0.00    +0.075 C 
ATOM     24  C   UNL     1      -4.069  -2.421  24.220  0.00  0.00    +0.050 C 
ATOM     25  C   UNL     1      -3.563  -2.591  24.850  0.00  0.00    +0.155 C 
ATOM     26  O   UNL     1      -3.620  -3.316  25.240  0.00  0.00    -0.223 OA
ATOM     27  C   UNL     1      -3.002  -2.036  25.088  0.00  0.00    +0.050 C 
ATOM     28  C   UNL     1      -2.945  -1.312  24.698  0.00  0.00    +0.075 C 
ENDBRANCH  21  22
ENDBRANCH  20  21
TORSDOF 7
ENDMDL
MODEL 4
REMARK VINA RESULT:      -9.6      3.133      4.639
REMARK  Name = 
REMARK  7 active torsions:
REMARK  status: ('A' for Active; 'I' for Inactive)
REMARK    1  A    between atoms: O_2  and  C_3
REMARK    2  A    between atoms: C_6  and  C_9
REMARK    3  A    between atoms: C_12  and  C_13
REMARK    4  A    between atoms: C_13  and  C_14
REMARK    5  A    between atoms: C_16  and  C_17
REMARK    6  A    between atoms: C_20  and  C_21
REMARK    7  A    between atoms: C_21  and  N_22
REMARK                            x       y       z     vdW  Elec       q    Type
REMARK                         _______ _______ _______ _____ _____    ______ ____
ROOT
ATOM     14  C   UNL     1      -4.052   2.548  24.279  0.00  0.00    +0.027 C 
ATOM     15  C   UNL     1      -4.373   2.858  24.974  0.00  0.00    +0.005 C 
ATOM     16  C   UNL     1      -3.962   3.437  25.395  0.00  0.00    +0.006 C 
ATOM     20  C   UNL     1      -3.232   3.706  25.122  0.00  0.00    +0.037 C 
ATOM     29  C   UNL     1      -2.912   3.396  24.427  0.00  0.00    -0.034 C 
ATOM     30  C   UNL     1      -3.321   2.818  24.006  0.00  0.00    -0.048 C 
ATOM     31  C   UNL     1      -3.001   2.509  23.312  0.00  0.00    +0.026 C 
ENDROOT
BRANCH  16  17
ATOM     17  C   UNL     1      -4.283   3.746  26.090  0.00  0.00    +0.000 C 
ATOM     18  C   UNL     1      -4.901   4.290  26.052  0.00  0.00    +0.000 C 
ATOM     19  C   UNL     1      -3.985   3.510  26.822  0.00  0.00    +0.000 C 
ENDBRANCH  16  17
BRANCH  14  13
ATOM     13  C   UNL     1      -4.462   1.970  23.858  0.00  0.00    +0.091 C 
BRANCH  13  12
ATOM      9  C   UNL     1      -4.413  -0.050  24.546  0.00  0.00    +0.250 A 
ATOM     10  N   UNL     1      -5.131   0.208  24.860  0.00  0.00    -0.107 NA
ATOM     11  N   UNL     1      -5.237   0.997  24.640  0.00  0.00    -0.111 NA
ATOM     12  C   UNL     1      -4.584   1.226  24.191  0.00  0.00    +0.227 A 
ATOM     32  O   UNL     1      -4.075   0.579  24.132  0.00  0.00    -0.420 OA
BRANCH   9   6
ATOM      3  C   UNL     1      -3.444  -2.313  24.800  0.00  0.00    +0.139 A 
ATOM      4  C   UNL     1      -3.329  -1.747  25.389  0.00  0.00    +0.037 A 
ATOM      5  C   UNL     1      -3.653  -0.992  25.304  0.00  0.00    +0.008 A 
ATOM      6  C   UNL     1      -4.090  -0.805  24.631  0.00  0.00    +0.055 A 
ATOM      7  C   UNL     1      -4.205  -1.371  24.042  0.00  0.00    +0.008 A 
ATOM      8  C   UNL     1      -3.882  -2.125  24.126  0.00  0.00    +0.037 A 
BRANCH   3   2
ATOM      1  C   UNL     1      -2.388  -3.242  24.548  0.00  0.00    +0.252 C 
ATOM      2  O   UNL     1      -3.121  -3.068  24.885  0.00  0.00    -0.471 OA
ENDBRANCH   3   2
ENDBRANCH   9   6
ENDBRANCH  13  12
ENDBRANCH  14  13
BRANCH  20  21
ATOM     21  C   UNL     1      -2.821   4.285  25.544  0.00  0.00    +0.076 C 
BRANCH  21  22
ATOM     22  N   UNL     1      -2.071   4.519  25.298  0.00  0.00    -0.272 NA
ATOM     23  C   UNL     1      -1.421   4.027  25.429  0.00  0.00    +0.075 C 
ATOM     24  C   UNL     1      -0.670   4.261  25.183  0.00  0.00    +0.050 C 
ATOM     25  C   UNL     1      -0.567   4.988  24.805  0.00  0.00    +0.155 C 
ATOM     26  O   UNL     1       0.185   5.222  24.559  0.00  0.00    -0.223 OA
ATOM     27  C   UNL     1      -1.216   5.479  24.674  0.00  0.00    +0.050 C 
ATOM     28  C   UNL     1      -1.968   5.246  24.920  0.00  0.00    +0.075 C 
ENDBRANCH  21  22
ENDBRANCH  20  21
TORSDOF 7
ENDMDL
MODEL 5
REMARK VINA RESULT:      -9.6      2.807      3.974
REMARK  Name = 
REMARK  7 active torsions:
REMARK  status: ('A' for Active; 'I' for Inactive)
REMARK    1  A    between atoms: O_2  and  C_3
REMARK    2  A    between atoms: C_6  and  C_9
REMARK    3  A    between atoms: C_12  and  C_13
REMARK    4  A    between atoms: C_13  and  C_14
REMARK    5  A    between atoms: C_16  and  C_17
REMARK    6  A    between atoms: C_20  and  C_21
REMARK    7  A    between atoms: C_21  and  N_22
REMARK                            x       y       z     vdW  Elec       q    Type
REMARK                         _______ _______ _______ _____ _____    ______ ____
ROOT
ATOM     14  C   UNL     1      -3.584   1.826  23.840  0.00  0.00    +0.027 C 
ATOM     15  C   UNL     1      -4.202   1.865  24.386  0.00  0.00    +0.005 C 
ATOM     16  C   UNL     1      -4.591   1.175  24.618  0.00  0.00    +0.006 C 
ATOM     20  C   UNL     1      -4.364   0.448  24.303  0.00  0.00    +0.037 C 
ATOM     29  C   UNL     1      -3.746   0.409  23.757  0.00  0.00    -0.034 C 
ATOM     30  C   UNL     1      -3.356   1.098  23.526  0.00  0.00    -0.048 C 
ATOM     31  C   UNL     1      -2.739   1.060  22.980  0.00  0.00    +0.026 C 
ENDROOT
BRANCH  16  17
ATOM     17  C   UNL     1      -5.209   1.214  25.164  0.00  0.00    +0.000 C 
ATOM     18  C   UNL     1      -5.986   1.300  24.902  0.00  0.00    +0.000 C 
ATOM     19  C   UNL     1      -5.049   1.167  25.971  0.00  0.00    +0.000 C 
ENDBRANCH  16  17
BRANCH  14  13
ATOM     13  C   UNL     1      -3.194   2.515  23.609  0.00  0.00    +0.091 C 
BRANCH  13  12
ATOM      9  C   UNL     1      -1.673   3.124  24.977  0.00  0.00    +0.250 A 
ATOM     10  N   UNL     1      -2.099   3.825  24.890  0.00  0.00    -0.107 NA
ATOM     11  N   UNL     1      -2.721   3.682  24.367  0.00  0.00    -0.111 NA
ATOM     12  C   UNL     1      -2.679   2.893  24.130  0.00  0.00    +0.227 A 
ATOM     32  O   UNL     1      -2.031   2.548  24.508  0.00  0.00    -0.420 OA
BRANCH   9   6
ATOM      3  C   UNL     1       0.329   2.805  26.397  0.00  0.00    +0.139 A 
ATOM      4  C   UNL     1       0.322   3.394  25.819  0.00  0.00    +0.037 A 
ATOM      5  C   UNL     1      -0.345   3.501  25.346  0.00  0.00    +0.008 A 
ATOM      6  C   UNL     1      -1.005   3.018  25.450  0.00  0.00    +0.055 A 
ATOM      7  C   UNL     1      -0.999   2.428  26.027  0.00  0.00    +0.008 A 
ATOM      8  C   UNL     1      -0.332   2.322  26.500  0.00  0.00    +0.037 A 
BRANCH   3   2
ATOM      1  C   UNL     1       0.918   2.657  27.690  0.00  0.00    +0.252 C 
ATOM      2  O   UNL     1       0.997   2.699  26.870  0.00  0.00    -0.471 OA
ENDBRANCH   3   2
ENDBRANCH   9   6
ENDBRANCH  13  12
ENDBRANCH  14  13
BRANCH  20  21
ATOM     21  C   UNL     1      -4.754  -0.242  24.534  0.00  0.00    +0.076 C 
BRANCH  21  22
ATOM     22  N   UNL     1      -4.366  -0.968  24.493  0.00  0.00    -0.272 NA
ATOM     23  C   UNL     1      -3.851  -1.197  25.096  0.00  0.00    +0.075 C 
ATOM     24  C   UNL     1      -3.464  -1.923  25.054  0.00  0.00    +0.050 C 
ATOM     25  C   UNL     1      -3.590  -2.423  24.409  0.00  0.00    +0.155 C 
ATOM     26  O   UNL     1      -3.202  -3.149  24.368  0.00  0.00    -0.223 OA
ATOM     27  C   UNL     1      -4.104  -2.194  23.807  0.00  0.00    +0.050 C 
ATOM     28  C   UNL     1      -4.492  -1.468  23.848  0.00  0.00    +0.075 C 
ENDBRANCH  21  22
ENDBRANCH  20  21
TORSDOF 7
ENDMDL
MODEL 6
REMARK VINA RESULT:      -9.5      2.450      4.349
REMARK  Name = 
REMARK  7 active torsions:
REMARK  status: ('A' for Active; 'I' for Inactive)
REMARK    1  A    between atoms: O_2  and  C_3
REMARK    2  A    between atoms: C_6  and  C_9
REMARK    3  A    between atoms: C_12  and  C_13
REMARK    4  A    between atoms: C_13  and  C_14
REMARK    5  A    between atoms: C_16  and  C_17
REMARK    6  A    between atoms: C_20  and  C_21
REMARK    7  A    between atoms: C_21  and  N_22
REMARK                            x       y       z     vdW  Elec       q    Type
REMARK                         _______ _______ _______ _____ _____    ______ ____
ROOT
ATOM     14  C   UNL     1      -1.482   0.402  24.663  0.00  0.00    +0.027 C 
ATOM     15  C   UNL     1      -2.185   0.832  24.607  0.00  0.00    +0.005 C 
ATOM     16  C   UNL     1      -2.911   0.444  24.673  0.00  0.00    +0.006 C 
ATOM     20  C   UNL     1      -2.934  -0.370  24.795  0.00  0.00    +0.037 C 
ATOM     29  C   UNL     1      -2.231  -0.800  24.852  0.00  0.00    -0.034 C 
ATOM     30  C   UNL     1      -1.506  -0.414  24.785  0.00  0.00    -0.048 C 
ATOM     31  C   UNL     1      -0.803  -0.843  24.842  0.00  0.00    +0.026 C 
ENDROOT
BRANCH  16  17
ATOM     17  C   UNL     1      -3.613   0.874  24.617  0.00  0.00    +0.000 C 
ATOM     18  C   UNL     1      -4.040   1.058  25.298  0.00  0.00    +0.000 C 
ATOM     19  C   UNL     1      -3.888   1.119  23.879  0.00  0.00    +0.000 C 
ENDBRANCH  16  17
BRANCH  14  13
ATOM     13  C   UNL     1      -0.756   0.788  24.597  0.00  0.00    +0.091 C 
BRANCH  13  12
ATOM      9  C   UNL     1      -0.703   2.831  25.213  0.00  0.00    +0.250 A 
ATOM     10  N   UNL     1      -0.246   2.476  25.801  0.00  0.00    -0.107 NA
ATOM     11  N   UNL     1      -0.210   1.667  25.641  0.00  0.00    -0.111 NA
ATOM     12  C   UNL     1      -0.645   1.522  24.955  0.00  0.00    +0.227 A 
ATOM     32  O   UNL     1      -0.950   2.242  24.690  0.00  0.00    -0.420 OA
BRANCH   9   6
ATOM      3  C   UNL     1      -1.240   5.242  25.047  0.00  0.00    +0.139 A 
ATOM      4  C   UNL     1      -0.550   4.948  24.703  0.00  0.00    +0.037 A 
ATOM      5  C   UNL     1      -0.371   4.144  24.758  0.00  0.00    +0.008 A 
ATOM      6  C   UNL     1      -0.882   3.635  25.158  0.00  0.00    +0.055 A 
ATOM      7  C   UNL     1      -1.572   3.928  25.503  0.00  0.00    +0.008 A 
ATOM      8  C   UNL     1      -1.751   4.732  25.448  0.00  0.00    +0.037 A 
BRANCH   3   2
ATOM      1  C   UNL     1      -2.206   6.293  24.994  0.00  0.00    +0.252 C 
ATOM      2  O   UNL     1      -1.419   6.045  24.992  0.00  0.00    -0.471 OA
ENDBRANCH   3   2
ENDBRANCH   9   6
ENDBRANCH  13  12
ENDBRANCH  14  13
BRANCH  20  21
ATOM     21  C   UNL     1      -3.660  -0.758  24.862  0.00  0.00    +0.076 C 
BRANCH  21  22
ATOM     22  N   UNL     1      -3.723  -1.553  24.656  0.00  0.00    -0.272 NA
ATOM     23  C   UNL     1      -4.003  -1.766  23.909  0.00  0.00    +0.075 C 
ATOM     24  C   UNL     1      -4.067  -2.561  23.703  0.00  0.00    +0.050 C 
ATOM     25  C   UNL     1      -3.850  -3.146  24.244  0.00  0.00    +0.155 C 
ATOM     26  O   UNL     1      -3.914  -3.942  24.037  0.00  0.00    -0.223 OA
ATOM     27  C   UNL     1      -3.571  -2.934  24.990  0.00  0.00    +0.050 C 
ATOM     28  C   UNL     1      -3.507  -2.138  25.197  0.00  0.00    +0.075 C 
ENDBRANCH  21  22
ENDBRANCH  20  21
TORSDOF 7
ENDMDL
MODEL 7
REMARK VINA RESULT:      -9.4      1.936      3.161
REMARK  Name = 
REMARK  7 active torsions:
REMARK  status: ('A' for Active; 'I' for Inactive)
REMARK    1  A    between atoms: O_2  and  C_3
REMARK    2  A    between atoms: C_6  and  C_9
REMARK    3  A    between atoms: C_12  and  C_13
REMARK    4  A    between atoms: C_13  and  C_14
REMARK    5  A    between atoms: C_16  and  C_17
REMARK    6  A    between atoms: C_20  and  C_21
REMARK    7  A    between atoms: C_21  and  N_22
REMARK                            x       y       z     vdW  Elec       q    Type
REMARK                         _______ _______ _______ _____ _____    ______ ____
ROOT
ATOM     14  C   UNL     1      -1.424   1.764  24.530  0.00  0.00    +0.027 C 
ATOM     15  C   UNL     1      -1.739   1.681  23.772  0.00  0.00    +0.005 C 
ATOM     16  C   UNL     1      -2.394   2.129  23.546  0.00  0.00    +0.006 C 
ATOM     20  C   UNL     1      -2.734   2.660  24.078  0.00  0.00    +0.037 C 
ATOM     29  C   UNL     1      -2.419   2.743  24.836  0.00  0.00    -0.034 C 
ATOM     30  C   UNL     1      -1.765   2.296  25.062  0.00  0.00    -0.048 C 
ATOM     31  C   UNL     1      -1.450   2.379  25.820  0.00  0.00    +0.026 C 
ENDROOT
BRANCH  16  17
ATOM     17  C   UNL     1      -2.709   2.046  22.788  0.00  0.00    +0.000 C 
ATOM     18  C   UNL     1      -3.228   1.427  22.623  0.00  0.00    +0.000 C 
ATOM     19  C   UNL     1      -2.504   2.581  22.195  0.00  0.00    +0.000 C 
ENDBRANCH  16  17
BRANCH  14  13
ATOM     13  C   UNL     1      -0.769   1.317  24.757  0.00  0.00    +0.091 C 
BRANCH  13  12
ATOM      9  C   UNL     1      -1.289  -0.754  24.768  0.00  0.00    +0.250 A 
ATOM     10  N   UNL     1      -0.466  -0.796  24.737  0.00  0.00    -0.107 NA
ATOM     11  N   UNL     1      -0.171  -0.025  24.730  0.00  0.00    -0.111 NA
ATOM     12  C   UNL     1      -0.812   0.493  24.755  0.00  0.00    +0.227 A 
ATOM     32  O   UNL     1      -1.503   0.043  24.779  0.00  0.00    -0.420 OA
BRANCH   9   6
ATOM      3  C   UNL     1      -2.845  -2.678  24.817  0.00  0.00    +0.139 A 
ATOM      4  C   UNL     1      -3.027  -1.989  25.232  0.00  0.00    +0.037 A 
ATOM      5  C   UNL     1      -2.509  -1.347  25.215  0.00  0.00    +0.008 A 
ATOM      6  C   UNL     1      -1.808  -1.395  24.784  0.00  0.00    +0.055 A 
ATOM      7  C   UNL     1      -1.624  -2.084  24.369  0.00  0.00    +0.008 A 
ATOM      8  C   UNL     1      -2.142  -2.726  24.385  0.00  0.00    +0.037 A 
BRANCH   3   2
ATOM      1  C   UNL     1      -3.986  -3.360  24.294  0.00  0.00    +0.252 C 
ATOM      2  O   UNL     1      -3.363  -3.320  24.833  0.00  0.00    -0.471 OA
ENDBRANCH   3   2
ENDBRANCH   9   6
ENDBRANCH  13  12
ENDBRANCH  14  13
BRANCH  20  21
ATOM     21  C   UNL     1      -3.389   3.108  23.852  0.00  0.00    +0.076 C 
BRANCH  21  22
ATOM     22  N   UNL     1      -3.983   3.274  24.398  0.00  0.00    -0.272 NA
ATOM     23  C   UNL     1      -4.563   2.709  24.563  0.00  0.00    +0.075 C 
ATOM     24  C   UNL     1      -5.157   2.875  25.110  0.00  0.00    +0.050 C 
ATOM     25  C   UNL     1      -5.173   3.607  25.493  0.00  0.00    +0.155 C 
ATOM     26  O   UNL     1      -5.768   3.772  26.039  0.00  0.00    -0.223 OA
ATOM     27  C   UNL     1      -4.595   4.170  25.328  0.00  0.00    +0.050 C 
ATOM     28  C   UNL     1      -4.000   4.005  24.781  0.00  0.00    +0.075 C 
ENDBRANCH  21  22
ENDBRANCH  20  21
TORSDOF 7
ENDMDL
MODEL 8
REMARK VINA RESULT:      -9.3      1.968      3.393
REMARK  Name = 
REMARK  7 active torsions:
REMARK  status: ('A' for Active; 'I' for Inactive)
REMARK    1  A    between atoms: O_2  and  C_3
REMARK    2  A    between atoms: C_6  and  C_9
REMARK    3  A    between atoms: C_12  and  C_13
REMARK    4  A    between atoms: C_13  and  C_14
REMARK    5  A    between atoms: C_16  and  C_17
REMARK    6  A    between atoms: C_20  and  C_21
REMARK    7  A    between atoms: C_21  and  N_22
REMARK                            x       y       z     vdW  Elec       q    Type
REMARK                         _______ _______ _______ _____ _____    ______ ____
ROOT
ATOM     14  C   UNL     1      -1.413   2.105  23.843  0.00  0.00    +0.027 C 
ATOM     15  C   UNL     1      -1.052   2.487  24.480  0.00  0.00    +0.005 C 
ATOM     16  C   UNL     1      -1.452   3.088  24.879  0.00  0.00    +0.006 C 
ATOM     20  C   UNL     1      -2.210   3.308  24.642  0.00  0.00    +0.037 C 
ATOM     29  C   UNL     1      -2.570   2.927  24.004  0.00  0.00    -0.034 C 
ATOM     30  C   UNL     1      -2.172   2.326  23.605  0.00  0.00    -0.048 C 
ATOM     31  C   UNL     1      -2.531   1.945  22.968  0.00  0.00    +0.026 C 
ENDROOT
BRANCH  16  17
ATOM     17  C   UNL     1      -1.092   3.470  25.517  0.00  0.00    +0.000 C 
ATOM     18  C   UNL     1      -1.042   3.092  26.248  0.00  0.00    +0.000 C 
ATOM     19  C   UNL     1      -0.783   4.228  25.422  0.00  0.00    +0.000 C 
ENDBRANCH  16  17
BRANCH  14  13
ATOM     13  C   UNL     1      -1.014   1.504  23.443  0.00  0.00    +0.091 C 
BRANCH  13  12
ATOM      9  C   UNL     1      -1.262  -0.452  24.263  0.00  0.00    +0.250 A 
ATOM     10  N   UNL     1      -0.448  -0.347  24.344  0.00  0.00    -0.107 NA
ATOM     11  N   UNL     1      -0.256   0.399  24.047  0.00  0.00    -0.111 NA
ATOM     12  C   UNL     1      -0.951   0.755  23.782  0.00  0.00    +0.227 A 
ATOM     32  O   UNL     1      -1.574   0.229  23.915  0.00  0.00    -0.420 OA
BRANCH   9   6
ATOM      3  C   UNL     1      -2.546  -2.456  24.942  0.00  0.00    +0.139 A 
ATOM      4  C   UNL     1      -1.872  -2.536  24.474  0.00  0.00    +0.037 A 
ATOM      5  C   UNL     1      -1.444  -1.868  24.248  0.00  0.00    +0.008 A 
ATOM      6  C   UNL     1      -1.690  -1.120  24.489  0.00  0.00    +0.055 A 
ATOM      7  C   UNL     1      -2.365  -1.038  24.957  0.00  0.00    +0.008 A 
ATOM      8  C   UNL     1      -2.793  -1.705  25.183  0.00  0.00    +0.037 A 
BRANCH   3   2
ATOM      1  C   UNL     1      -3.690  -3.300  24.797  0.00  0.00    +0.252 C 
ATOM      2  O   UNL     1      -2.975  -3.123  25.168  0.00  0.00    -0.471 OA
ENDBRANCH   3   2
ENDBRANCH   9   6
ENDBRANCH  13  12
ENDBRANCH  14  13
BRANCH  20  21
ATOM     21  C   UNL     1      -2.610   3.910  25.041  0.00  0.00    +0.076 C 
BRANCH  21  22
ATOM     22  N   UNL     1      -3.424   3.859  25.156  0.00  0.00    -0.272 NA
ATOM     23  C   UNL     1      -3.724   3.447  25.806  0.00  0.00    +0.075 C 
ATOM     24  C   UNL     1      -4.538   3.396  25.922  0.00  0.00    +0.050 C 
ATOM     25  C   UNL     1      -5.055   3.755  25.388  0.00  0.00    +0.155 C 
ATOM     26  O   UNL     1      -5.870   3.703  25.504  0.00  0.00    -0.223 OA
ATOM     27  C   UNL     1      -4.756   4.166  24.739  0.00  0.00    +0.050 C 
ATOM     28  C   UNL     1      -3.941   4.218  24.622  0.00  0.00    +0.075 C 
ENDBRANCH  21  22
ENDBRANCH  20  21
TORSDOF 7
ENDMDL
MODEL 9
REMARK VINA RESULT:      -9.2      1.825      5.784
REMARK  Name = 
REMARK  7 active torsions:
REMARK  status: ('A' for Active; 'I' for Inactive)
REMARK    1  A    between atoms: O_2  and  C_3
REMARK    2  A    between atoms: C_6  and  C_9
REMARK    3  A    between atoms: C_12  and  C_13
REMARK    4  A    between atoms: C_13  and  C_14
REMARK    5  A    between atoms: C_16  and  C_17
REMARK    6  A    between atoms: C_20  and  C_21
REMARK    7  A    between atoms: C_21  and  N_22
REMARK                            x       y       z     vdW  Elec       q    Type
REMARK                         _______ _______ _______ _____ _____    ______ ____
ROOT
ATOM     14  C   UNL     1      -2.124   2.156  23.521  0.00  0.00    +0.027 C 
ATOM     15  C   UNL     1      -1.632   2.517  24.078  0.00  0.00    +0.005 C 
ATOM     16  C   UNL     1      -1.050   2.074  24.461  0.00  0.00    +0.006 C 
ATOM     20  C   UNL     1      -0.961   1.273  24.289  0.00  0.00    +0.037 C 
ATOM     29  C   UNL     1      -1.453   0.912  23.733  0.00  0.00    -0.034 C 
ATOM     30  C   UNL     1      -2.034   1.354  23.349  0.00  0.00    -0.048 C 
ATOM     31  C   UNL     1      -2.526   0.994  22.794  0.00  0.00    +0.026 C 
ENDROOT
BRANCH  16  17
ATOM     17  C   UNL     1      -0.558   2.434  25.017  0.00  0.00    +0.000 C 
ATOM     18  C   UNL     1       0.196   2.684  24.799  0.00  0.00    +0.000 C 
ATOM     19  C   UNL     1      -0.822   2.544  25.791  0.00  0.00    +0.000 C 
ENDBRANCH  16  17
BRANCH  14  13
ATOM     13  C   UNL     1      -2.705   2.598  23.138  0.00  0.00    +0.091 C 
BRANCH  13  12
ATOM      9  C   UNL     1      -4.385   2.977  24.400  0.00  0.00    +0.250 A 
ATOM     10  N   UNL     1      -4.292   3.710  24.033  0.00  0.00    -0.107 NA
ATOM     11  N   UNL     1      -3.652   3.657  23.516  0.00  0.00    -0.111 NA
ATOM     12  C   UNL     1      -3.348   2.891  23.562  0.00  0.00    +0.227 A 
ATOM     32  O   UNL     1      -3.802   2.470  24.109  0.00  0.00    -0.420 OA
BRANCH   9   6
ATOM      3  C   UNL     1      -6.110   2.396  26.077  0.00  0.00    +0.139 A 
ATOM      4  C   UNL     1      -6.060   1.971  25.372  0.00  0.00    +0.037 A 
ATOM      5  C   UNL     1      -5.485   2.165  24.813  0.00  0.00    +0.008 A 
ATOM      6  C   UNL     1      -4.960   2.783  24.959  0.00  0.00    +0.055 A 
ATOM      7  C   UNL     1      -5.009   3.209  25.664  0.00  0.00    +0.008 A 
ATOM      8  C   UNL     1      -5.583   3.015  26.223  0.00  0.00    +0.037 A 
BRANCH   3   2
ATOM      1  C   UNL     1      -6.675   1.460  26.997  0.00  0.00    +0.252 C 
ATOM      2  O   UNL     1      -6.685   2.202  26.636  0.00  0.00    -0.471 OA
ENDBRANCH   3   2
ENDBRANCH   9   6
ENDBRANCH  13  12
ENDBRANCH  14  13
BRANCH  20  21
ATOM     21  C   UNL     1      -0.380   0.830  24.673  0.00  0.00    +0.076 C 
BRANCH  21  22
ATOM     22  N   UNL     1      -0.483   0.020  24.783  0.00  0.00    -0.272 NA
ATOM     23  C   UNL     1      -0.125  -0.516  24.267  0.00  0.00    +0.075 C 
ATOM     24  C   UNL     1      -0.229  -1.326  24.376  0.00  0.00    +0.050 C 
ATOM     25  C   UNL     1      -0.690  -1.603  25.002  0.00  0.00    +0.155 C 
ATOM     26  O   UNL     1      -0.794  -2.414  25.111  0.00  0.00    -0.223 OA
ATOM     27  C   UNL     1      -1.048  -1.067  25.518  0.00  0.00    +0.050 C 
ATOM     28  C   UNL     1      -0.945  -0.257  25.409  0.00  0.00    +0.075 C 
ENDBRANCH  21  22
ENDBRANCH  20  21
TORSDOF 7
ENDMDL
