MODEL 1
REMARK VINA RESULT:     -11.1      0.000      0.000
REMARK  Name = 
REMARK  6 active torsions:
REMARK  status: ('A' for Active; 'I' for Inactive)
REMARK    1  A    between atoms: C_4  and  C_13
REMARK    2  A    between atoms: C_6  and  C_8
REMARK    3  A    between atoms: C_20  and  C_21
REMARK    4  A    between atoms: C_21  and  N_22
REMARK    5  A    between atoms: C_23  and  C_25
REMARK    6  A    between atoms: C_25  and  C_26
REMARK                            x       y       z     vdW  Elec       q    Type
REMARK                         _______ _______ _______ _____ _____    ______ ____
ROOT
ATOM     13  C   UNL     1      -3.681   0.389  24.458  0.00  0.00    +0.056 C 
ATOM     14  C   UNL     1      -3.290   0.885  24.003  0.00  0.00    +0.078 C 
ATOM     15  N   UNL     1      -3.848   1.086  24.577  0.00  0.00    -0.272 NA
ATOM     16  C   UNL     1      -4.184   0.192  25.009  0.00  0.00    +0.072 C 
ATOM     17  C   UNL     1      -4.563  -0.124  25.437  0.00  0.00    +0.018 C 
ATOM     18  C   UNL     1      -4.226   0.595  25.020  0.00  0.00    +0.010 C 
ATOM     19  C   UNL     1      -4.536   1.373  25.282  0.00  0.00    +0.018 C 
ATOM     20  C   UNL     1      -4.174   1.892  24.855  0.00  0.00    +0.079 C 
ENDROOT
BRANCH  13   4
ATOM      1  C   UNL     1      -4.519  -2.210  23.614  0.00  0.00    +0.074 C 
ATOM      2  C   UNL     1      -3.944  -1.715  23.939  0.00  0.00    +0.139 A 
ATOM      3  N   UNL     1      -4.100  -0.911  24.036  0.00  0.00    -0.235 NA
ATOM      4  C   UNL     1      -3.525  -0.416  24.361  0.00  0.00    +0.063 A 
ATOM      5  C   UNL     1      -2.795  -0.725  24.589  0.00  0.00    +0.037 A 
ATOM      6  C   UNL     1      -2.640  -1.529  24.492  0.00  0.00    +0.118 A 
ATOM      7  N   UNL     1      -3.214  -2.025  24.167  0.00  0.00    -0.228 NA
BRANCH   6   8
ATOM      8  C   UNL     1      -1.910  -1.840  24.719  0.00  0.00    +0.163 A 
ATOM      9  C   UNL     1      -1.607  -2.576  24.503  0.00  0.00    +0.042 A 
ATOM     10  C   UNL     1      -0.866  -2.660  24.852  0.00  0.00    +0.044 A 
ATOM     11  C   UNL     1      -0.709  -1.976  25.286  0.00  0.00    +0.180 A 
ATOM     12  O   UNL     1      -1.354  -1.469  25.204  0.00  0.00    -0.449 OA
ENDBRANCH   6   8
ENDBRANCH  13   4
BRANCH  20  21
ATOM     21  C   UNL     1      -4.114   2.704  24.722  0.00  0.00    +0.131 C 
BRANCH  21  22
ATOM     22  N   UNL     1      -3.651   3.169  25.221  0.00  0.00    -0.204 NA
ATOM     23  C   UNL     1      -3.394   3.912  24.972  0.00  0.00    +0.246 C 
ATOM     24  O   UNL     1      -3.600   4.190  24.223  0.00  0.00    -0.273 OA
BRANCH  23  25
ATOM     25  C   UNL     1      -2.930   4.378  25.471  0.00  0.00    +0.120 C 
BRANCH  25  26
ATOM     26  C   UNL     1      -2.127   4.480  25.312  0.00  0.00    +0.016 A 
ATOM     27  C   UNL     1      -1.540   3.906  25.393  0.00  0.00    +0.003 A 
ATOM     28  C   UNL     1      -0.820   4.246  25.175  0.00  0.00    +0.007 A 
ATOM     29  C   UNL     1      -0.963   5.029  24.959  0.00  0.00    +0.035 A 
ATOM     30  S   UNL     1      -1.770   5.175  25.044  0.00  0.00    -0.090 S 
ENDBRANCH  25  26
ENDBRANCH  23  25
ENDBRANCH  21  22
ENDBRANCH  20  21
TORSDOF 6
ENDMDL
MODEL 2
REMARK VINA RESULT:     -10.9      2.255      5.729
REMARK  Name = 
REMARK  6 active torsions:
REMARK  status: ('A' for Active; 'I' for Inactive)
REMARK    1  A    between atoms: C_4  and  C_13
REMARK    2  A    between atoms: C_6  and  C_8
REMARK    3  A    between atoms: C_20  and  C_21
REMARK    4  A    between atoms: C_21  and  N_22
REMARK    5  A    between atoms: C_23  and  C_25
REMARK    6  A    between atoms: C_25  and  C_26
REMARK                            x       y       z     vdW  Elec       q    Type
REMARK                         _______ _______ _______ _____ _____    ______ ____
ROOT
ATOM     13  C   UNL     1      -1.474   2.099  24.988  0.00  0.00    +0.056 C 
ATOM     14  C   UNL     1      -1.695   1.660  24.385  0.00  0.00    +0.078 C 
ATOM     15  N   UNL     1      -1.158   1.445  24.974  0.00  0.00    -0.272 NA
ATOM     16  C   UNL     1      -1.082   2.256  25.634  0.00  0.00    +0.072 C 
ATOM     17  C   UNL     1      -0.828   2.531  26.169  0.00  0.00    +0.018 C 
ATOM     18  C   UNL     1      -0.947   1.882  25.562  0.00  0.00    +0.010 C 
ATOM     19  C   UNL     1      -0.487   1.145  25.690  0.00  0.00    +0.018 C 
ATOM     20  C   UNL     1      -0.676   0.682  25.113  0.00  0.00    +0.079 C 
ENDROOT
BRANCH  13   4
ATOM      1  C   UNL     1      -1.184   4.943  24.948  0.00  0.00    +0.074 C 
ATOM      2  C   UNL     1      -1.661   4.274  25.027  0.00  0.00    +0.139 A 
ATOM      3  N   UNL     1      -1.329   3.522  24.968  0.00  0.00    -0.235 NA
ATOM      4  C   UNL     1      -1.807   2.853  25.047  0.00  0.00    +0.063 A 
ATOM      5  C   UNL     1      -2.615   2.937  25.186  0.00  0.00    +0.037 A 
ATOM      6  C   UNL     1      -2.947   3.690  25.245  0.00  0.00    +0.118 A 
ATOM      7  N   UNL     1      -2.470   4.359  25.166  0.00  0.00    -0.228 NA
BRANCH   6   8
ATOM      8  C   UNL     1      -3.756   3.775  25.384  0.00  0.00    +0.163 A 
ATOM      9  C   UNL     1      -4.344   3.829  24.807  0.00  0.00    +0.042 A 
ATOM     10  C   UNL     1      -5.070   3.908  25.189  0.00  0.00    +0.044 A 
ATOM     11  C   UNL     1      -4.932   3.904  26.003  0.00  0.00    +0.180 A 
ATOM     12  O   UNL     1      -4.120   3.821  26.123  0.00  0.00    -0.449 OA
ENDBRANCH   6   8
ENDBRANCH  13   4
BRANCH  20  21
ATOM     21  C   UNL     1      -0.531  -0.066  24.800  0.00  0.00    +0.131 C 
BRANCH  21  22
ATOM     22  N   UNL     1      -0.904  -0.728  25.123  0.00  0.00    -0.204 NA
ATOM     23  C   UNL     1      -0.977  -1.419  24.680  0.00  0.00    +0.246 C 
ATOM     24  O   UNL     1      -0.676  -1.450  23.912  0.00  0.00    -0.273 OA
BRANCH  23  25
ATOM     25  C   UNL     1      -1.349  -2.080  25.003  0.00  0.00    +0.120 C 
BRANCH  25  26
ATOM     26  C   UNL     1      -2.147  -2.221  24.848  0.00  0.00    +0.016 A 
ATOM     27  C   UNL     1      -2.784  -1.944  25.294  0.00  0.00    +0.003 A 
ATOM     28  C   UNL     1      -3.479  -2.215  24.942  0.00  0.00    +0.007 A 
ATOM     29  C   UNL     1      -3.272  -2.659  24.278  0.00  0.00    +0.035 A 
ATOM     30  S   UNL     1      -2.449  -2.664  24.220  0.00  0.00    -0.090 S 
ENDBRANCH  25  26
ENDBRANCH  23  25
ENDBRANCH  21  22
ENDBRANCH  20  21
TORSDOF 6
ENDMDL
MODEL 3
REMARK VINA RESULT:     -10.6      1.910      2.991
REMARK  Name = 
REMARK  6 active torsions:
REMARK  status: ('A' for Active; 'I' for Inactive)
REMARK    1  A    between atoms: C_4  and  C_13
REMARK    2  A    between atoms: C_6  and  C_8
REMARK    3  A    between atoms: C_20  and  C_21
REMARK    4  A    between atoms: C_21  and  N_22
REMARK    5  A    between atoms: C_23  and  C_25
REMARK    6  A    between atoms: C_25  and  C_26
REMARK                            x       y       z     vdW  Elec       q    Type
REMARK                         _______ _______ _______ _____ _____    ______ ____
ROOT
ATOM     13  C   UNL     1      -0.840   0.170  24.905  0.00  0.00    +0.056 C 
ATOM     14  C   UNL     1      -1.105   0.606  25.493  0.00  0.00    +0.078 C 
ATOM     15  N   UNL     1      -0.665   0.873  24.848  0.00  0.00    -0.272 NA
ATOM     16  C   UNL     1      -0.468   0.041  24.241  0.00  0.00    +0.072 C 
ATOM     17  C   UNL     1      -0.200  -0.221  23.706  0.00  0.00    +0.018 C 
ATOM     18  C   UNL     1      -0.408   0.440  24.275  0.00  0.00    +0.010 C 
ATOM     19  C   UNL     1      -0.119   1.240  24.060  0.00  0.00    +0.018 C 
ATOM     20  C   UNL     1      -0.361   1.702  24.618  0.00  0.00    +0.079 C 
ENDROOT
BRANCH  13   4
ATOM      1  C   UNL     1      -0.018  -2.528  25.371  0.00  0.00    +0.074 C 
ATOM      2  C   UNL     1      -0.602  -1.986  25.158  0.00  0.00    +0.139 A 
ATOM      3  N   UNL     1      -0.429  -1.180  25.138  0.00  0.00    -0.235 NA
ATOM      4  C   UNL     1      -1.013  -0.637  24.925  0.00  0.00    +0.063 A 
ATOM      5  C   UNL     1      -1.770  -0.901  24.732  0.00  0.00    +0.037 A 
ATOM      6  C   UNL     1      -1.943  -1.707  24.752  0.00  0.00    +0.118 A 
ATOM      7  N   UNL     1      -1.360  -2.250  24.965  0.00  0.00    -0.228 NA
BRANCH   6   8
ATOM      8  C   UNL     1      -2.701  -1.972  24.559  0.00  0.00    +0.163 A 
ATOM      9  C   UNL     1      -3.150  -2.513  24.991  0.00  0.00    +0.042 A 
ATOM     10  C   UNL     1      -3.868  -2.618  24.600  0.00  0.00    +0.044 A 
ATOM     11  C   UNL     1      -3.864  -2.142  23.926  0.00  0.00    +0.180 A 
ATOM     12  O   UNL     1      -3.142  -1.743  23.901  0.00  0.00    -0.449 OA
ENDBRANCH   6   8
ENDBRANCH  13   4
BRANCH  20  21
ATOM     21  C   UNL     1      -0.352   2.488  24.866  0.00  0.00    +0.131 C 
BRANCH  21  22
ATOM     22  N   UNL     1      -0.981   2.987  24.676  0.00  0.00    -0.204 NA
ATOM     23  C   UNL     1      -1.071   3.706  25.070  0.00  0.00    +0.246 C 
ATOM     24  O   UNL     1      -0.532   3.926  25.654  0.00  0.00    -0.273 OA
BRANCH  23  25
ATOM     25  C   UNL     1      -1.700   4.205  24.880  0.00  0.00    +0.120 C 
BRANCH  25  26
ATOM     26  C   UNL     1      -2.429   4.111  25.255  0.00  0.00    +0.016 A 
ATOM     27  C   UNL     1      -2.584   4.244  26.054  0.00  0.00    +0.003 A 
ATOM     28  C   UNL     1      -3.382   4.082  26.190  0.00  0.00    +0.007 A 
ATOM     29  C   UNL     1      -3.719   3.848  25.474  0.00  0.00    +0.035 A 
ATOM     30  S   UNL     1      -3.131   3.866  24.896  0.00  0.00    -0.090 S 
ENDBRANCH  25  26
ENDBRANCH  23  25
ENDBRANCH  21  22
ENDBRANCH  20  21
TORSDOF 6
ENDMDL
MODEL 4
REMARK VINA RESULT:     -10.5      2.080      3.220
REMARK  Name = 
REMARK  6 active torsions:
REMARK  status: ('A' for Active; 'I' for Inactive)
REMARK    1  A    between atoms: C_4  and  C_13
REMARK    2  A    between atoms: C_6  and  C_8
REMARK    3  A    between atoms: C_20  and  C_21
REMARK    4  A    between atoms: C_21  and  N_22
REMARK    5  A    between atoms: C_23  and  C_25
REMARK    6  A    between atoms: C_25  and  C_26
REMARK                            x       y       z     vdW  Elec       q    Type
REMARK                         _______ _______ _______ _____ _____    ______ ____
ROOT
ATOM     13  C   UNL     1      -1.255   1.455  24.279  0.00  0.00    +0.056 C 
ATOM     14  C   UNL     1      -1.860   1.590  23.807  0.00  0.00    +0.078 C 
ATOM     15  N   UNL     1      -1.620   2.063  24.440  0.00  0.00    -0.272 NA
ATOM     16  C   UNL     1      -0.779   1.606  24.867  0.00  0.00    +0.072 C 
ATOM     17  C   UNL     1      -0.305   1.595  25.317  0.00  0.00    +0.018 C 
ATOM     18  C   UNL     1      -1.026   1.925  24.897  0.00  0.00    +0.010 C 
ATOM     19  C   UNL     1      -1.351   2.674  25.218  0.00  0.00    +0.018 C 
ATOM     20  C   UNL     1      -1.952   2.843  24.778  0.00  0.00    +0.079 C 
ENDROOT
BRANCH  13   4
ATOM      1  C   UNL     1       1.032   0.195  23.116  0.00  0.00    +0.074 C 
ATOM      2  C   UNL     1       0.335   0.146  23.555  0.00  0.00    +0.139 A 
ATOM      3  N   UNL     1      -0.111   0.824  23.697  0.00  0.00    -0.235 NA
ATOM      4  C   UNL     1      -0.808   0.775  24.136  0.00  0.00    +0.063 A 
ATOM      5  C   UNL     1      -1.059   0.048  24.432  0.00  0.00    +0.037 A 
ATOM      6  C   UNL     1      -0.613  -0.631  24.289  0.00  0.00    +0.118 A 
ATOM      7  N   UNL     1       0.084  -0.583  23.851  0.00  0.00    -0.228 NA
BRANCH   6   8
ATOM      8  C   UNL     1      -0.863  -1.359  24.585  0.00  0.00    +0.163 A 
ATOM      9  C   UNL     1      -1.426  -1.856  24.240  0.00  0.00    +0.042 A 
ATOM     10  C   UNL     1      -1.506  -2.522  24.718  0.00  0.00    +0.044 A 
ATOM     11  C   UNL     1      -0.993  -2.439  25.360  0.00  0.00    +0.180 A 
ATOM     12  O   UNL     1      -0.596  -1.720  25.277  0.00  0.00    -0.449 OA
ENDBRANCH   6   8
ENDBRANCH  13   4
BRANCH  20  21
ATOM     21  C   UNL     1      -2.549   3.401  24.672  0.00  0.00    +0.131 C 
BRANCH  21  22
ATOM     22  N   UNL     1      -3.217   3.386  25.155  0.00  0.00    -0.204 NA
ATOM     23  C   UNL     1      -3.928   3.709  24.888  0.00  0.00    +0.246 C 
ATOM     24  O   UNL     1      -3.969   4.048  24.137  0.00  0.00    -0.273 OA
BRANCH  23  25
ATOM     25  C   UNL     1      -4.596   3.694  25.371  0.00  0.00    +0.120 C 
BRANCH  25  26
ATOM     26  C   UNL     1      -5.105   3.045  25.351  0.00  0.00    +0.016 A 
ATOM     27  C   UNL     1      -5.320   2.618  24.679  0.00  0.00    +0.003 A 
ATOM     28  C   UNL     1      -5.836   2.018  24.912  0.00  0.00    +0.007 A 
ATOM     29  C   UNL     1      -5.940   2.075  25.728  0.00  0.00    +0.035 A 
ATOM     30  S   UNL     1      -5.489   2.710  26.000  0.00  0.00    -0.090 S 
ENDBRANCH  25  26
ENDBRANCH  23  25
ENDBRANCH  21  22
ENDBRANCH  20  21
TORSDOF 6
ENDMDL
MODEL 5
REMARK VINA RESULT:     -10.3      1.725      5.073
REMARK  Name = 
REMARK  6 active torsions:
REMARK  status: ('A' for Active; 'I' for Inactive)
REMARK    1  A    between atoms: C_4  and  C_13
REMARK    2  A    between atoms: C_6  and  C_8
REMARK    3  A    between atoms: C_20  and  C_21
REMARK    4  A    between atoms: C_21  and  N_22
REMARK    5  A    between atoms: C_23  and  C_25
REMARK    6  A    between atoms: C_25  and  C_26
REMARK                            x       y       z     vdW  Elec       q    Type
REMARK                         _______ _______ _______ _____ _____    ______ ____
ROOT
ATOM     13  C   UNL     1      -3.852   1.639  24.366  0.00  0.00    +0.056 C 
ATOM     14  C   UNL     1      -3.520   1.171  23.840  0.00  0.00    +0.078 C 
ATOM     15  N   UNL     1      -4.072   0.947  24.412  0.00  0.00    -0.272 NA
ATOM     16  C   UNL     1      -4.319   1.808  24.957  0.00  0.00    +0.072 C 
ATOM     17  C   UNL     1      -4.655   2.101  25.435  0.00  0.00    +0.018 C 
ATOM     18  C   UNL     1      -4.393   1.412  24.924  0.00  0.00    +0.010 C 
ATOM     19  C   UNL     1      -4.756   0.635  25.109  0.00  0.00    +0.018 C 
ATOM     20  C   UNL     1      -4.454   0.142  24.610  0.00  0.00    +0.079 C 
ENDROOT
BRANCH  13   4
ATOM      1  C   UNL     1      -4.483   4.370  23.806  0.00  0.00    +0.074 C 
ATOM      2  C   UNL     1      -3.950   3.800  24.074  0.00  0.00    +0.139 A 
ATOM      3  N   UNL     1      -4.167   3.005  24.086  0.00  0.00    -0.235 NA
ATOM      4  C   UNL     1      -3.634   2.435  24.354  0.00  0.00    +0.063 A 
ATOM      5  C   UNL     1      -2.883   2.661  24.610  0.00  0.00    +0.037 A 
ATOM      6  C   UNL     1      -2.666   3.456  24.598  0.00  0.00    +0.118 A 
ATOM      7  N   UNL     1      -3.198   4.026  24.330  0.00  0.00    -0.228 NA
BRANCH   6   8
ATOM      8  C   UNL     1      -1.915   3.683  24.854  0.00  0.00    +0.163 A 
ATOM      9  C   UNL     1      -1.749   4.261  25.419  0.00  0.00    +0.042 A 
ATOM     10  C   UNL     1      -0.931   4.307  25.505  0.00  0.00    +0.044 A 
ATOM     11  C   UNL     1      -0.589   3.757  24.993  0.00  0.00    +0.180 A 
ATOM     12  O   UNL     1      -1.197   3.371  24.590  0.00  0.00    -0.449 OA
ENDBRANCH   6   8
ENDBRANCH  13   4
BRANCH  20  21
ATOM     21  C   UNL     1      -4.465  -0.650  24.384  0.00  0.00    +0.131 C 
BRANCH  21  22
ATOM     22  N   UNL     1      -3.978  -1.195  24.766  0.00  0.00    -0.204 NA
ATOM     23  C   UNL     1      -3.857  -1.942  24.439  0.00  0.00    +0.246 C 
ATOM     24  O   UNL     1      -4.225  -2.145  23.728  0.00  0.00    -0.273 OA
BRANCH  23  25
ATOM     25  C   UNL     1      -3.369  -2.487  24.821  0.00  0.00    +0.120 C 
BRANCH  25  26
ATOM     26  C   UNL     1      -2.553  -2.461  24.706  0.00  0.00    +0.016 A 
ATOM     27  C   UNL     1      -2.145  -2.760  24.054  0.00  0.00    +0.003 A 
ATOM     28  C   UNL     1      -1.341  -2.616  24.167  0.00  0.00    +0.007 A 
ATOM     29  C   UNL     1      -1.251  -2.227  24.890  0.00  0.00    +0.035 A 
ATOM     30  S   UNL     1      -2.000  -2.131  25.223  0.00  0.00    -0.090 S 
ENDBRANCH  25  26
ENDBRANCH  23  25
ENDBRANCH  21  22
ENDBRANCH  20  21
TORSDOF 6
ENDMDL
MODEL 6
REMARK VINA RESULT:      -9.8      1.972      3.010
REMARK  Name = 
REMARK  6 active torsions:
REMARK  status: ('A' for Active; 'I' for Inactive)
REMARK    1  A    between atoms: C_4  and  C_13
REMARK    2  A    between atoms: C_6  and  C_8
REMARK    3  A    between atoms: C_20  and  C_21
REMARK    4  A    between atoms: C_21  and  N_22
REMARK    5  A    between atoms: C_23  and  C_25
REMARK    6  A    between atoms: C_25  and  C_26
REMARK                            x       y       z     vdW  Elec       q    Type
REMARK                         _______ _______ _______ _____ _____    ______ ____
ROOT
ATOM     13  C   UNL     1      -2.438  -0.490  24.992  0.00  0.00    +0.056 C 
ATOM     14  C   UNL     1      -2.557   0.162  25.400  0.00  0.00    +0.078 C 
ATOM     15  N   UNL     1      -3.138  -0.300  25.038  0.00  0.00    -0.272 NA
ATOM     16  C   UNL     1      -2.650  -1.102  24.572  0.00  0.00    +0.072 C 
ATOM     17  C   UNL     1      -2.670  -1.650  24.216  0.00  0.00    +0.018 C 
ATOM     18  C   UNL     1      -3.013  -0.937  24.639  0.00  0.00    +0.010 C 
ATOM     19  C   UNL     1      -3.886  -0.849  24.600  0.00  0.00    +0.018 C 
ATOM     20  C   UNL     1      -4.045  -0.214  24.993  0.00  0.00    +0.079 C 
ENDROOT
BRANCH  13   4
ATOM      1  C   UNL     1      -0.340  -2.295  25.709  0.00  0.00    +0.074 C 
ATOM      2  C   UNL     1      -0.609  -1.650  25.269  0.00  0.00    +0.139 A 
ATOM      3  N   UNL     1      -1.388  -1.393  25.350  0.00  0.00    -0.235 NA
ATOM      4  C   UNL     1      -1.657  -0.748  24.911  0.00  0.00    +0.063 A 
ATOM      5  C   UNL     1      -1.148  -0.362  24.391  0.00  0.00    +0.037 A 
ATOM      6  C   UNL     1      -0.368  -0.620  24.310  0.00  0.00    +0.118 A 
ATOM      7  N   UNL     1      -0.099  -1.264  24.749  0.00  0.00    -0.228 NA
BRANCH   6   8
ATOM      8  C   UNL     1       0.143  -0.233  23.790  0.00  0.00    +0.163 A 
ATOM      9  C   UNL     1       0.389   0.552  23.845  0.00  0.00    +0.042 A 
ATOM     10  C   UNL     1       0.895   0.707  23.214  0.00  0.00    +0.044 A 
ATOM     11  C   UNL     1       0.963   0.017  22.766  0.00  0.00    +0.180 A 
ATOM     12  O   UNL     1       0.498  -0.564  23.122  0.00  0.00    -0.449 OA
ENDBRANCH   6   8
ENDBRANCH  13   4
BRANCH  20  21
ATOM     21  C   UNL     1      -4.670   0.266  25.235  0.00  0.00    +0.131 C 
BRANCH  21  22
ATOM     22  N   UNL     1      -4.820   0.976  24.843  0.00  0.00    -0.204 NA
ATOM     23  C   UNL     1      -5.343   1.525  25.167  0.00  0.00    +0.246 C 
ATOM     24  O   UNL     1      -5.718   1.363  25.884  0.00  0.00    -0.273 OA
BRANCH  23  25
ATOM     25  C   UNL     1      -5.493   2.235  24.775  0.00  0.00    +0.120 C 
BRANCH  25  26
ATOM     26  C   UNL     1      -5.025   2.897  24.928  0.00  0.00    +0.016 A 
ATOM     27  C   UNL     1      -4.404   3.171  24.458  0.00  0.00    +0.003 A 
ATOM     28  C   UNL     1      -4.090   3.844  24.816  0.00  0.00    +0.007 A 
ATOM     29  C   UNL     1      -4.517   3.987  25.508  0.00  0.00    +0.035 A 
ATOM     30  S   UNL     1      -5.095   3.402  25.577  0.00  0.00    -0.090 S 
ENDBRANCH  25  26
ENDBRANCH  23  25
ENDBRANCH  21  22
ENDBRANCH  20  21
TORSDOF 6
ENDMDL
MODEL 7
REMARK VINA RESULT:      -9.7      3.249      4.669
REMARK  Name = 
REMARK  6 active torsions:
REMARK  status: ('A' for Active; 'I' for Inactive)
REMARK    1  A    between atoms: C_4  and  C_13
REMARK    2  A    between atoms: C_6  and  C_8
REMARK    3  A    between atoms: C_20  and  C_21
REMARK    4  A    between atoms: C_21  and  N_22
REMARK    5  A    between atoms: C_23  and  C_25
REMARK    6  A    between atoms: C_25  and  C_26
REMARK                            x       y       z     vdW  Elec       q    Type
REMARK                         _______ _______ _______ _____ _____    ______ ____
ROOT
ATOM     13  C   UNL     1      -2.056   0.403  24.253  0.00  0.00    +0.056 C 
ATOM     14  C   UNL     1      -1.839   0.843  23.649  0.00  0.00    +0.078 C 
ATOM     15  N   UNL     1      -1.339   0.520  24.221  0.00  0.00    -0.272 NA
ATOM     16  C   UNL     1      -1.942  -0.016  24.891  0.00  0.00    +0.072 C 
ATOM     17  C   UNL     1      -2.007  -0.387  25.425  0.00  0.00    +0.018 C 
ATOM     18  C   UNL     1      -1.560   0.090  24.811  0.00  0.00    +0.010 C 
ATOM     19  C   UNL     1      -0.690   0.135  24.915  0.00  0.00    +0.018 C 
ATOM     20  C   UNL     1      -0.435   0.562  24.336  0.00  0.00    +0.079 C 
ENDROOT
BRANCH  13   4
ATOM      1  C   UNL     1      -4.248  -1.420  24.046  0.00  0.00    +0.074 C 
ATOM      2  C   UNL     1      -3.958  -0.670  24.229  0.00  0.00    +0.139 A 
ATOM      3  N   UNL     1      -3.153  -0.509  24.150  0.00  0.00    -0.235 NA
ATOM      4  C   UNL     1      -2.862   0.242  24.332  0.00  0.00    +0.063 A 
ATOM      5  C   UNL     1      -3.377   0.831  24.594  0.00  0.00    +0.037 A 
ATOM      6  C   UNL     1      -4.181   0.670  24.673  0.00  0.00    +0.118 A 
ATOM      7  N   UNL     1      -4.472  -0.080  24.491  0.00  0.00    -0.228 NA
BRANCH   6   8
ATOM      8  C   UNL     1      -4.697   1.259  24.935  0.00  0.00    +0.163 A 
ATOM      9  C   UNL     1      -4.912   1.936  24.516  0.00  0.00    +0.042 A 
ATOM     10  C   UNL     1      -5.435   2.370  24.982  0.00  0.00    +0.044 A 
ATOM     11  C   UNL     1      -5.545   1.960  25.690  0.00  0.00    +0.180 A 
ATOM     12  O   UNL     1      -5.089   1.273  25.661  0.00  0.00    -0.449 OA
ENDBRANCH   6   8
ENDBRANCH  13   4
BRANCH  20  21
ATOM     21  C   UNL     1       0.253   0.877  24.009  0.00  0.00    +0.131 C 
BRANCH  21  22
ATOM     22  N   UNL     1       0.728   0.410  23.521  0.00  0.00    -0.204 NA
ATOM     23  C   UNL     1       1.471   0.681  23.287  0.00  0.00    +0.246 C 
ATOM     24  O   UNL     1       1.739   1.419  23.540  0.00  0.00    -0.273 OA
BRANCH  23  25
ATOM     25  C   UNL     1       1.946   0.215  22.800  0.00  0.00    +0.120 C 
BRANCH  25  26
ATOM     26  C   UNL     1       2.767   0.284  22.836  0.00  0.00    +0.016 A 
ATOM     27  C   UNL     1       3.212   0.922  22.560  0.00  0.00    +0.003 A 
ATOM     28  C   UNL     1       4.008   0.760  22.707  0.00  0.00    +0.007 A 
ATOM     29  C   UNL     1       4.054   0.022  23.073  0.00  0.00    +0.035 A 
ATOM     30  S   UNL     1       3.288  -0.273  23.153  0.00  0.00    -0.090 S 
ENDBRANCH  25  26
ENDBRANCH  23  25
ENDBRANCH  21  22
ENDBRANCH  20  21
TORSDOF 6
ENDMDL
