REMARK  Name = 
REMARK  8 active torsions:
REMARK  status: ('A' for Active; 'I' for Inactive)
REMARK    1  A    between atoms: O_2  and  C_3
REMARK    2  A    between atoms: C_3  and  C_4
REMARK    3  A    between atoms: C_4  and  O_5
REMARK    4  A    between atoms: O_5  and  C_6
REMARK    5  A    between atoms: C_8  and  C_12
REMARK    6  A    between atoms: C_15  and  C_17
REMARK    7  A    between atoms: N_21  and  C_22
REMARK    8  A    between atoms: C_22  and  C_23
REMARK                            x       y       z     vdW  Elec       q    Type
REMARK                         _______ _______ _______ _____ _____    ______ ____
ROOT
ATOM     12  C   UNL     1      -2.099   2.649   0.000  0.00  0.00    +0.204 A 
ATOM     13  N   UNL     1      -1.764   3.403   0.000  0.00  0.00    -0.056 NA
ATOM     14  O   UNL     1      -0.943   3.317   0.000  0.00  0.00    -0.336 OA
ATOM     15  C   UNL     1      -0.772   2.510   0.000  0.00  0.00    +0.251 A 
ATOM     16  N   UNL     1      -1.486   2.097   0.000  0.00  0.00    -0.190 NA
ENDROOT
BRANCH  12   8
ATOM      6  C   UNL     1      -4.265   2.919   0.000  0.00  0.00    +0.225 A 
ATOM      7  C   UNL     1      -3.458   3.091   0.000  0.00  0.00    +0.061 A 
ATOM      8  C   UNL     1      -2.906   2.478   0.000  0.00  0.00    +0.045 A 
ATOM      9  C   UNL     1      -3.161   1.693   0.000  0.00  0.00    +0.024 A 
ATOM     10  C   UNL     1      -3.968   1.522   0.000  0.00  0.00    +0.102 A 
ATOM     11  N   UNL     1      -4.520   2.135   0.000  0.00  0.00    -0.210 NA
BRANCH   6   5
ATOM      5  O   UNL     1      -4.817   3.532   0.000  0.00  0.00    -0.457 OA
BRANCH   5   4
ATOM      4  C   UNL     1      -5.624   3.361   0.000  0.00  0.00    +0.239 C 
BRANCH   4   3
ATOM      3  C   UNL     1      -6.176   3.974   0.000  0.00  0.00    +0.189 C 
BRANCH   3   2
ATOM      1  C   UNL     1      -7.535   4.415   0.000  0.00  0.00    +0.174 C 
ATOM      2  O   UNL     1      -6.983   3.802   0.000  0.00  0.00    -0.347 OA
ENDBRANCH   3   2
ENDBRANCH   4   3
ENDBRANCH   5   4
ENDBRANCH   6   5
ENDBRANCH  12   8
BRANCH  15  17
ATOM     17  C   UNL     1      -0.018   2.174   0.000  0.00  0.00    +0.138 C 
ATOM     18  C   UNL     1       0.697   2.587   0.000  0.00  0.00    +0.027 C 
ATOM     19  C   UNL     1       1.310   2.035   0.000  0.00  0.00    +0.019 C 
ATOM     20  C   UNL     1       0.974   1.281   0.000  0.00  0.00    +0.073 C 
ATOM     21  N   UNL     1       0.154   1.367   0.000  0.00  0.00    -0.263 NA
BRANCH  21  22
ATOM     22  C   UNL     1      -0.398   0.754   0.000  0.00  0.00    +0.101 C 
BRANCH  22  23
ATOM     23  C   UNL     1      -0.143  -0.030   0.000  0.00  0.00    +0.014 A 
ATOM     24  C   UNL     1      -0.628  -0.698   0.000  0.00  0.00    +0.096 A 
ATOM     25  N   UNL     1      -0.143  -1.365   0.000  0.00  0.00    -0.244 NA
ATOM     26  C   UNL     1       0.641  -1.110   0.000  0.00  0.00    +0.081 A 
ATOM     27  C   UNL     1       0.641  -0.285   0.000  0.00  0.00    +0.016 A 
ATOM     28  C   UNL     1       1.356   0.127   0.000  0.00  0.00    +0.001 A 
ATOM     29  C   UNL     1       2.070  -0.285   0.000  0.00  0.00    +0.000 A 
ATOM     30  C   UNL     1       2.070  -1.110   0.000  0.00  0.00    +0.002 A 
ATOM     31  C   UNL     1       1.356  -1.523   0.000  0.00  0.00    +0.019 A 
ENDBRANCH  22  23
ENDBRANCH  21  22
ENDBRANCH  15  17
TORSDOF 8
