MODEL 1
REMARK VINA RESULT:     -10.3      0.000      0.000
REMARK  Name = 
REMARK  6 active torsions:
REMARK  status: ('A' for Active; 'I' for Inactive)
REMARK    1  A    between atoms: C_3  and  C_4
REMARK    2  A    between atoms: C_4  and  N_5
REMARK    3  A    between atoms: C_6  and  C_8
REMARK    4  A    between atoms: C_17  and  N_18
REMARK    5  A    between atoms: N_18  and  C_19
REMARK    6  A    between atoms: C_19  and  C_20
REMARK                            x       y       z     vdW  Elec       q    Type
REMARK                         _______ _______ _______ _____ _____    ______ ____
ROOT
ATOM      1  O   UNL     1      -3.814   2.848  24.403  0.00  0.00    -0.219 OA
ATOM      2  C   UNL     1      -3.143   2.429  24.639  0.00  0.00    +0.199 C 
ATOM      3  C   UNL     1      -3.097   1.613  24.753  0.00  0.00    +0.169 C 
ATOM     15  O   UNL     1      -2.326   1.431  24.986  0.00  0.00    -0.350 OA
ATOM     16  C   UNL     1      -1.897   2.135  25.017  0.00  0.00    +0.162 C 
ATOM     17  C   UNL     1      -2.401   2.751  24.802  0.00  0.00    +0.135 C 
ENDROOT
BRANCH   3   4
ATOM      4  C   UNL     1      -3.712   1.073  24.651  0.00  0.00    +0.148 C 
BRANCH   4   5
ATOM      5  N   UNL     1      -3.549   0.266  24.603  0.00  0.00    -0.199 NA
ATOM      6  C   UNL     1      -4.167  -0.282  24.619  0.00  0.00    +0.265 C 
ATOM      7  O   UNL     1      -4.947  -0.020  24.683  0.00  0.00    -0.268 OA
BRANCH   6   8
ATOM      8  C   UNL     1      -4.004  -1.088  24.571  0.00  0.00    +0.055 A 
ATOM      9  C   UNL     1      -4.223  -1.514  23.898  0.00  0.00    +0.007 A 
ATOM     10  C   UNL     1      -4.061  -2.321  23.851  0.00  0.00    +0.030 A 
ATOM     11  C   UNL     1      -3.679  -2.703  24.475  0.00  0.00    +0.140 A 
ATOM     12  F   UNL     1      -3.516  -3.510  24.427  0.00  0.00    -0.204 F 
ATOM     13  C   UNL     1      -3.460  -2.277  25.147  0.00  0.00    +0.030 A 
ATOM     14  C   UNL     1      -3.622  -1.471  25.195  0.00  0.00    +0.007 A 
ENDBRANCH   6   8
ENDBRANCH   4   5
ENDBRANCH   3   4
BRANCH  17  18
ATOM     18  N   UNL     1      -2.200   3.550  24.759  0.00  0.00    -0.214 NA
BRANCH  18  19
ATOM     19  C   UNL     1      -1.519   3.825  25.135  0.00  0.00    +0.089 C 
BRANCH  19  20
ATOM     20  C   UNL     1      -1.291   4.613  25.051  0.00  0.00    +0.017 C 
ATOM     21  C   UNL     1      -1.461   5.417  25.122  0.00  0.00    +0.001 C 
ATOM     22  C   UNL     1      -0.726   5.174  24.834  0.00  0.00    +0.001 C 
ENDBRANCH  19  20
ENDBRANCH  18  19
ENDBRANCH  17  18
TORSDOF 6
ENDMDL
MODEL 2
REMARK VINA RESULT:      -9.8      2.400      5.807
REMARK  Name = 
REMARK  6 active torsions:
REMARK  status: ('A' for Active; 'I' for Inactive)
REMARK    1  A    between atoms: C_3  and  C_4
REMARK    2  A    between atoms: C_4  and  N_5
REMARK    3  A    between atoms: C_6  and  C_8
REMARK    4  A    between atoms: C_17  and  N_18
REMARK    5  A    between atoms: N_18  and  C_19
REMARK    6  A    between atoms: C_19  and  C_20
REMARK                            x       y       z     vdW  Elec       q    Type
REMARK                         _______ _______ _______ _____ _____    ______ ____
ROOT
ATOM      1  O   UNL     1      -1.421  -0.347  25.626  0.00  0.00    -0.219 OA
ATOM      2  C   UNL     1      -1.958   0.057  25.147  0.00  0.00    +0.199 C 
ATOM      3  C   UNL     1      -1.974   0.872  25.018  0.00  0.00    +0.169 C 
ATOM     15  O   UNL     1      -2.599   1.037  24.505  0.00  0.00    -0.350 OA
ATOM     16  C   UNL     1      -2.968   0.323  24.316  0.00  0.00    +0.162 C 
ATOM     17  C   UNL     1      -2.572  -0.281  24.712  0.00  0.00    +0.135 C 
ENDROOT
BRANCH   3   4
ATOM      4  C   UNL     1      -1.457   1.426  25.346  0.00  0.00    +0.148 C 
BRANCH   4   5
ATOM      5  N   UNL     1      -1.556   2.229  25.184  0.00  0.00    -0.199 NA
ATOM      6  C   UNL     1      -1.096   2.789  25.579  0.00  0.00    +0.265 C 
ATOM      7  O   UNL     1      -0.537   2.545  26.135  0.00  0.00    -0.268 OA
BRANCH   6   8
ATOM      8  C   UNL     1      -1.195   3.591  25.418  0.00  0.00    +0.055 A 
ATOM      9  C   UNL     1      -0.629   3.996  24.973  0.00  0.00    +0.007 A 
ATOM     10  C   UNL     1      -0.728   4.798  24.813  0.00  0.00    +0.030 A 
ATOM     11  C   UNL     1      -1.392   5.198  25.096  0.00  0.00    +0.140 A 
ATOM     12  F   UNL     1      -1.491   6.000  24.935  0.00  0.00    -0.204 F 
ATOM     13  C   UNL     1      -1.957   4.793  25.541  0.00  0.00    +0.030 A 
ATOM     14  C   UNL     1      -1.859   3.991  25.702  0.00  0.00    +0.007 A 
ENDBRANCH   6   8
ENDBRANCH   4   5
ENDBRANCH   3   4
BRANCH  17  18
ATOM     18  N   UNL     1      -2.758  -1.084  24.680  0.00  0.00    -0.214 NA
BRANCH  18  19
ATOM     19  C   UNL     1      -3.501  -1.326  24.419  0.00  0.00    +0.089 C 
BRANCH  19  20
ATOM     20  C   UNL     1      -3.673  -2.130  24.349  0.00  0.00    +0.017 C 
ATOM     21  C   UNL     1      -4.026  -2.752  23.938  0.00  0.00    +0.001 C 
ATOM     22  C   UNL     1      -3.618  -2.900  24.641  0.00  0.00    +0.001 C 
ENDBRANCH  19  20
ENDBRANCH  18  19
ENDBRANCH  17  18
TORSDOF 6
ENDMDL
MODEL 3
REMARK VINA RESULT:      -9.3      1.522      1.928
REMARK  Name = 
REMARK  6 active torsions:
REMARK  status: ('A' for Active; 'I' for Inactive)
REMARK    1  A    between atoms: C_3  and  C_4
REMARK    2  A    between atoms: C_4  and  N_5
REMARK    3  A    between atoms: C_6  and  C_8
REMARK    4  A    between atoms: C_17  and  N_18
REMARK    5  A    between atoms: N_18  and  C_19
REMARK    6  A    between atoms: C_19  and  C_20
REMARK                            x       y       z     vdW  Elec       q    Type
REMARK                         _______ _______ _______ _____ _____    ______ ____
ROOT
ATOM      1  O   UNL     1      -0.615   1.762  26.066  0.00  0.00    -0.219 OA
ATOM      2  C   UNL     1      -0.991   1.747  25.332  0.00  0.00    +0.199 C 
ATOM      3  C   UNL     1      -1.246   1.072  24.932  0.00  0.00    +0.169 C 
ATOM     15  O   UNL     1      -1.592   1.311  24.222  0.00  0.00    -0.350 OA
ATOM     16  C   UNL     1      -1.551   2.135  24.183  0.00  0.00    +0.162 C 
ATOM     17  C   UNL     1      -1.180   2.403  24.869  0.00  0.00    +0.135 C 
ENDROOT
BRANCH   3   4
ATOM      4  C   UNL     1      -1.169   0.293  25.195  0.00  0.00    +0.148 C 
BRANCH   4   5
ATOM      5  N   UNL     1      -1.738  -0.269  24.992  0.00  0.00    -0.199 NA
ATOM      6  C   UNL     1      -1.654  -1.050  25.244  0.00  0.00    +0.265 C 
ATOM      7  O   UNL     1      -1.001  -1.268  25.700  0.00  0.00    -0.268 OA
BRANCH   6   8
ATOM      8  C   UNL     1      -2.222  -1.612  25.042  0.00  0.00    +0.055 A 
ATOM      9  C   UNL     1      -2.981  -1.566  25.362  0.00  0.00    +0.007 A 
ATOM     10  C   UNL     1      -3.549  -2.129  25.159  0.00  0.00    +0.030 A 
ATOM     11  C   UNL     1      -3.359  -2.738  24.636  0.00  0.00    +0.140 A 
ATOM     12  F   UNL     1      -3.926  -3.301  24.433  0.00  0.00    -0.204 F 
ATOM     13  C   UNL     1      -2.599  -2.784  24.316  0.00  0.00    +0.030 A 
ATOM     14  C   UNL     1      -2.032  -2.222  24.519  0.00  0.00    +0.007 A 
ENDBRANCH   6   8
ENDBRANCH   4   5
ENDBRANCH   3   4
BRANCH  17  18
ATOM     18  N   UNL     1      -1.024   3.191  25.059  0.00  0.00    -0.214 NA
BRANCH  18  19
ATOM     19  C   UNL     1      -1.472   3.794  24.719  0.00  0.00    +0.089 C 
BRANCH  19  20
ATOM     20  C   UNL     1      -1.313   4.582  24.905  0.00  0.00    +0.017 C 
ATOM     21  C   UNL     1      -0.793   5.222  24.917  0.00  0.00    +0.001 C 
ATOM     22  C   UNL     1      -1.558   5.306  25.215  0.00  0.00    +0.001 C 
ENDBRANCH  19  20
ENDBRANCH  18  19
ENDBRANCH  17  18
TORSDOF 6
ENDMDL
MODEL 4
REMARK VINA RESULT:      -7.8      3.425      3.924
REMARK  Name = 
REMARK  6 active torsions:
REMARK  status: ('A' for Active; 'I' for Inactive)
REMARK    1  A    between atoms: C_3  and  C_4
REMARK    2  A    between atoms: C_4  and  N_5
REMARK    3  A    between atoms: C_6  and  C_8
REMARK    4  A    between atoms: C_17  and  N_18
REMARK    5  A    between atoms: N_18  and  C_19
REMARK    6  A    between atoms: C_19  and  C_20
REMARK                            x       y       z     vdW  Elec       q    Type
REMARK                         _______ _______ _______ _____ _____    ______ ____
ROOT
ATOM      1  O   UNL     1       0.536   1.487  24.187  0.00  0.00    -0.219 OA
ATOM      2  C   UNL     1       0.488   0.741  23.836  0.00  0.00    +0.199 C 
ATOM      3  C   UNL     1      -0.149   0.220  23.891  0.00  0.00    +0.169 C 
ATOM     15  O   UNL     1       0.038  -0.457  23.459  0.00  0.00    -0.350 OA
ATOM     16  C   UNL     1       0.791  -0.355  23.137  0.00  0.00    +0.162 C 
ATOM     17  C   UNL     1       1.068   0.385  23.370  0.00  0.00    +0.135 C 
ENDROOT
BRANCH   3   4
ATOM      4  C   UNL     1      -0.850   0.353  24.306  0.00  0.00    +0.148 C 
BRANCH   4   5
ATOM      5  N   UNL     1      -1.509  -0.122  24.164  0.00  0.00    -0.199 NA
ATOM      6  C   UNL     1      -2.183  -0.044  24.634  0.00  0.00    +0.265 C 
ATOM      7  O   UNL     1      -2.197   0.510  25.246  0.00  0.00    -0.268 OA
BRANCH   6   8
ATOM      8  C   UNL     1      -2.842  -0.518  24.492  0.00  0.00    +0.055 A 
ATOM      9  C   UNL     1      -3.474  -0.226  24.049  0.00  0.00    +0.007 A 
ATOM     10  C   UNL     1      -4.133  -0.701  23.908  0.00  0.00    +0.030 A 
ATOM     11  C   UNL     1      -4.162  -1.468  24.209  0.00  0.00    +0.140 A 
ATOM     12  F   UNL     1      -4.821  -1.944  24.067  0.00  0.00    -0.204 F 
ATOM     13  C   UNL     1      -3.530  -1.761  24.652  0.00  0.00    +0.030 A 
ATOM     14  C   UNL     1      -2.871  -1.287  24.793  0.00  0.00    +0.007 A 
ENDBRANCH   6   8
ENDBRANCH   4   5
ENDBRANCH   3   4
BRANCH  17  18
ATOM     18  N   UNL     1       1.799   0.713  23.172  0.00  0.00    -0.214 NA
BRANCH  18  19
ATOM     19  C   UNL     1       2.376   0.248  22.810  0.00  0.00    +0.089 C 
BRANCH  19  20
ATOM     20  C   UNL     1       3.151   0.524  22.748  0.00  0.00    +0.017 C 
ATOM     21  C   UNL     1       3.948   0.465  22.950  0.00  0.00    +0.001 C 
ATOM     22  C   UNL     1       3.694   1.062  22.439  0.00  0.00    +0.001 C 
ENDBRANCH  19  20
ENDBRANCH  18  19
ENDBRANCH  17  18
TORSDOF 6
ENDMDL
MODEL 5
REMARK VINA RESULT:      -7.6      2.892      4.158
REMARK  Name = 
REMARK  6 active torsions:
REMARK  status: ('A' for Active; 'I' for Inactive)
REMARK    1  A    between atoms: C_3  and  C_4
REMARK    2  A    between atoms: C_4  and  N_5
REMARK    3  A    between atoms: C_6  and  C_8
REMARK    4  A    between atoms: C_17  and  N_18
REMARK    5  A    between atoms: N_18  and  C_19
REMARK    6  A    between atoms: C_19  and  C_20
REMARK                            x       y       z     vdW  Elec       q    Type
REMARK                         _______ _______ _______ _____ _____    ______ ____
ROOT
ATOM      1  O   UNL     1      -0.646   2.497  23.846  0.00  0.00    -0.219 OA
ATOM      2  C   UNL     1      -0.921   1.798  24.189  0.00  0.00    +0.199 C 
ATOM      3  C   UNL     1      -1.624   1.710  24.612  0.00  0.00    +0.169 C 
ATOM     15  O   UNL     1      -1.679   0.924  24.854  0.00  0.00    -0.350 OA
ATOM     16  C   UNL     1      -1.010   0.525  24.580  0.00  0.00    +0.162 C 
ATOM     17  C   UNL     1      -0.542   1.066  24.170  0.00  0.00    +0.135 C 
ENDROOT
BRANCH   3   4
ATOM      4  C   UNL     1      -2.175   2.305  24.766  0.00  0.00    +0.148 C 
BRANCH   4   5
ATOM      5  N   UNL     1      -2.969   2.111  24.880  0.00  0.00    -0.199 NA
ATOM      6  C   UNL     1      -3.534   2.709  24.948  0.00  0.00    +0.265 C 
ATOM      7  O   UNL     1      -3.303   3.501  24.900  0.00  0.00    -0.268 OA
BRANCH   6   8
ATOM      8  C   UNL     1      -4.327   2.517  25.062  0.00  0.00    +0.055 A 
ATOM      9  C   UNL     1      -4.736   2.819  25.712  0.00  0.00    +0.007 A 
ATOM     10  C   UNL     1      -5.530   2.626  25.825  0.00  0.00    +0.030 A 
ATOM     11  C   UNL     1      -5.915   2.131  25.290  0.00  0.00    +0.140 A 
ATOM     12  F   UNL     1      -6.709   1.938  25.404  0.00  0.00    -0.204 F 
ATOM     13  C   UNL     1      -5.506   1.829  24.640  0.00  0.00    +0.030 A 
ATOM     14  C   UNL     1      -4.713   2.021  24.526  0.00  0.00    +0.007 A 
ENDBRANCH   6   8
ENDBRANCH   4   5
ENDBRANCH   3   4
BRANCH  17  18
ATOM     18  N   UNL     1       0.179   0.903  23.804  0.00  0.00    -0.214 NA
BRANCH  18  19
ATOM     19  C   UNL     1       0.318   0.158  23.479  0.00  0.00    +0.089 C 
BRANCH  19  20
ATOM     20  C   UNL     1       0.998   0.022  23.032  0.00  0.00    +0.017 C 
ATOM     21  C   UNL     1       1.815   0.090  22.937  0.00  0.00    +0.001 C 
ATOM     22  C   UNL     1       1.359  -0.280  22.355  0.00  0.00    +0.001 C 
ENDBRANCH  19  20
ENDBRANCH  18  19
ENDBRANCH  17  18
TORSDOF 6
ENDMDL
MODEL 6
REMARK VINA RESULT:      -7.1      2.622      5.037
REMARK  Name = 
REMARK  6 active torsions:
REMARK  status: ('A' for Active; 'I' for Inactive)
REMARK    1  A    between atoms: C_3  and  C_4
REMARK    2  A    between atoms: C_4  and  N_5
REMARK    3  A    between atoms: C_6  and  C_8
REMARK    4  A    between atoms: C_17  and  N_18
REMARK    5  A    between atoms: N_18  and  C_19
REMARK    6  A    between atoms: C_19  and  C_20
REMARK                            x       y       z     vdW  Elec       q    Type
REMARK                         _______ _______ _______ _____ _____    ______ ____
ROOT
ATOM      1  O   UNL     1      -1.861   0.691  23.680  0.00  0.00    -0.219 OA
ATOM      2  C   UNL     1      -1.570   0.687  24.453  0.00  0.00    +0.199 C 
ATOM      3  C   UNL     1      -1.538   1.337  24.961  0.00  0.00    +0.169 C 
ATOM     15  O   UNL     1      -1.209   1.086  25.675  0.00  0.00    -0.350 OA
ATOM     16  C   UNL     1      -1.038   0.281  25.608  0.00  0.00    +0.162 C 
ATOM     17  C   UNL     1      -1.261   0.036  24.853  0.00  0.00    +0.135 C 
ENDROOT
BRANCH   3   4
ATOM      4  C   UNL     1      -1.790   2.103  24.786  0.00  0.00    +0.148 C 
BRANCH   4   5
ATOM      5  N   UNL     1      -2.556   2.339  24.980  0.00  0.00    -0.199 NA
ATOM      6  C   UNL     1      -2.771   3.134  24.918  0.00  0.00    +0.265 C 
ATOM      7  O   UNL     1      -2.219   3.691  24.662  0.00  0.00    -0.268 OA
BRANCH   6   8
ATOM      8  C   UNL     1      -3.537   3.370  25.112  0.00  0.00    +0.055 A 
ATOM      9  C   UNL     1      -4.158   3.228  24.588  0.00  0.00    +0.007 A 
ATOM     10  C   UNL     1      -4.924   3.465  24.783  0.00  0.00    +0.030 A 
ATOM     11  C   UNL     1      -5.069   3.844  25.501  0.00  0.00    +0.140 A 
ATOM     12  F   UNL     1      -5.835   4.081  25.696  0.00  0.00    -0.204 F 
ATOM     13  C   UNL     1      -4.447   3.986  26.025  0.00  0.00    +0.030 A 
ATOM     14  C   UNL     1      -3.682   3.749  25.831  0.00  0.00    +0.007 A 
ENDBRANCH   6   8
ENDBRANCH   4   5
ENDBRANCH   3   4
BRANCH  17  18
ATOM     18  N   UNL     1      -1.188  -0.728  24.551  0.00  0.00    -0.214 NA
BRANCH  18  19
ATOM     19  C   UNL     1      -1.388  -1.378  25.018  0.00  0.00    +0.089 C 
BRANCH  19  20
ATOM     20  C   UNL     1      -1.564  -2.102  24.665  0.00  0.00    +0.017 C 
ATOM     21  C   UNL     1      -1.327  -2.757  24.222  0.00  0.00    +0.001 C 
ATOM     22  C   UNL     1      -2.105  -2.701  24.495  0.00  0.00    +0.001 C 
ENDBRANCH  19  20
ENDBRANCH  18  19
ENDBRANCH  17  18
TORSDOF 6
ENDMDL
MODEL 7
REMARK VINA RESULT:      -6.8      2.619      5.185
REMARK  Name = 
REMARK  6 active torsions:
REMARK  status: ('A' for Active; 'I' for Inactive)
REMARK    1  A    between atoms: C_3  and  C_4
REMARK    2  A    between atoms: C_4  and  N_5
REMARK    3  A    between atoms: C_6  and  C_8
REMARK    4  A    between atoms: C_17  and  N_18
REMARK    5  A    between atoms: N_18  and  C_19
REMARK    6  A    between atoms: C_19  and  C_20
REMARK                            x       y       z     vdW  Elec       q    Type
REMARK                         _______ _______ _______ _____ _____    ______ ____
ROOT
ATOM      1  O   UNL     1      -4.082  -0.644  23.678  0.00  0.00    -0.219 OA
ATOM      2  C   UNL     1      -4.000  -0.668  24.499  0.00  0.00    +0.199 C 
ATOM      3  C   UNL     1      -4.315  -0.123  25.033  0.00  0.00    +0.169 C 
ATOM     15  O   UNL     1      -4.098  -0.358  25.794  0.00  0.00    -0.350 OA
ATOM     16  C   UNL     1      -3.650  -1.048  25.729  0.00  0.00    +0.162 C 
ATOM     17  C   UNL     1      -3.589  -1.239  24.930  0.00  0.00    +0.135 C 
ENDROOT
BRANCH   3   4
ATOM      4  C   UNL     1      -4.767   0.540  24.840  0.00  0.00    +0.148 C 
BRANCH   4   5
ATOM      5  N   UNL     1      -4.414   1.285  24.811  0.00  0.00    -0.199 NA
ATOM      6  C   UNL     1      -4.882   1.960  24.737  0.00  0.00    +0.265 C 
ATOM      7  O   UNL     1      -5.703   1.890  24.692  0.00  0.00    -0.268 OA
BRANCH   6   8
ATOM      8  C   UNL     1      -4.530   2.705  24.707  0.00  0.00    +0.055 A 
ATOM      9  C   UNL     1      -4.568   3.206  25.362  0.00  0.00    +0.007 A 
ATOM     10  C   UNL     1      -4.216   3.951  25.332  0.00  0.00    +0.030 A 
ATOM     11  C   UNL     1      -3.825   4.196  24.648  0.00  0.00    +0.140 A 
ATOM     12  F   UNL     1      -3.472   4.941  24.618  0.00  0.00    -0.204 F 
ATOM     13  C   UNL     1      -3.787   3.695  23.993  0.00  0.00    +0.030 A 
ATOM     14  C   UNL     1      -4.139   2.950  24.023  0.00  0.00    +0.007 A 
ENDBRANCH   6   8
ENDBRANCH   4   5
ENDBRANCH   3   4
BRANCH  17  18
ATOM     18  N   UNL     1      -3.188  -1.887  24.615  0.00  0.00    -0.214 NA
BRANCH  18  19
ATOM     19  C   UNL     1      -2.497  -2.159  24.974  0.00  0.00    +0.089 C 
BRANCH  19  20
ATOM     20  C   UNL     1      -1.919  -2.538  24.524  0.00  0.00    +0.017 C 
ATOM     21  C   UNL     1      -1.714  -3.069  23.927  0.00  0.00    +0.001 C 
ATOM     22  C   UNL     1      -1.125  -2.665  24.341  0.00  0.00    +0.001 C 
ENDBRANCH  19  20
ENDBRANCH  18  19
ENDBRANCH  17  18
TORSDOF 6
ENDMDL
MODEL 8
REMARK VINA RESULT:      -6.6      2.263      2.987
REMARK  Name = 
REMARK  6 active torsions:
REMARK  status: ('A' for Active; 'I' for Inactive)
REMARK    1  A    between atoms: C_3  and  C_4
REMARK    2  A    between atoms: C_4  and  N_5
REMARK    3  A    between atoms: C_6  and  C_8
REMARK    4  A    between atoms: C_17  and  N_18
REMARK    5  A    between atoms: N_18  and  C_19
REMARK    6  A    between atoms: C_19  and  C_20
REMARK                            x       y       z     vdW  Elec       q    Type
REMARK                         _______ _______ _______ _____ _____    ______ ____
ROOT
ATOM      1  O   UNL     1      -2.241   2.395  25.375  0.00  0.00    -0.219 OA
ATOM      2  C   UNL     1      -2.557   2.263  24.624  0.00  0.00    +0.199 C 
ATOM      3  C   UNL     1      -2.236   1.773  24.043  0.00  0.00    +0.169 C 
ATOM     15  O   UNL     1      -2.729   1.805  23.382  0.00  0.00    -0.350 OA
ATOM     16  C   UNL     1      -3.354   2.315  23.555  0.00  0.00    +0.162 C 
ATOM     17  C   UNL     1      -3.248   2.598  24.322  0.00  0.00    +0.135 C 
ENDROOT
BRANCH   3   4
ATOM      4  C   UNL     1      -1.544   1.328  24.111  0.00  0.00    +0.148 C 
BRANCH   4   5
ATOM      5  N   UNL     1      -1.583   0.538  24.344  0.00  0.00    -0.199 NA
ATOM      6  C   UNL     1      -0.917   0.055  24.277  0.00  0.00    +0.265 C 
ATOM      7  O   UNL     1      -0.213   0.364  23.977  0.00  0.00    -0.268 OA
BRANCH   6   8
ATOM      8  C   UNL     1      -0.955  -0.735  24.510  0.00  0.00    +0.055 A 
ATOM      9  C   UNL     1      -0.531  -0.992  25.170  0.00  0.00    +0.007 A 
ATOM     10  C   UNL     1      -0.570  -1.782  25.402  0.00  0.00    +0.030 A 
ATOM     11  C   UNL     1      -1.032  -2.316  24.976  0.00  0.00    +0.140 A 
ATOM     12  F   UNL     1      -1.071  -3.106  25.209  0.00  0.00    -0.204 F 
ATOM     13  C   UNL     1      -1.456  -2.059  24.316  0.00  0.00    +0.030 A 
ATOM     14  C   UNL     1      -1.418  -1.269  24.084  0.00  0.00    +0.007 A 
ENDBRANCH   6   8
ENDBRANCH   4   5
ENDBRANCH   3   4
BRANCH  17  18
ATOM     18  N   UNL     1      -3.745   3.124  24.718  0.00  0.00    -0.214 NA
BRANCH  18  19
ATOM     19  C   UNL     1      -4.555   3.123  24.563  0.00  0.00    +0.089 C 
BRANCH  19  20
ATOM     20  C   UNL     1      -5.085   3.398  25.132  0.00  0.00    +0.017 C 
ATOM     21  C   UNL     1      -5.645   3.247  25.718  0.00  0.00    +0.001 C 
ATOM     22  C   UNL     1      -5.442   4.026  25.530  0.00  0.00    +0.001 C 
ENDBRANCH  19  20
ENDBRANCH  18  19
ENDBRANCH  17  18
TORSDOF 6
ENDMDL
MODEL 9
REMARK VINA RESULT:      -6.4      3.265      4.398
REMARK  Name = 
REMARK  6 active torsions:
REMARK  status: ('A' for Active; 'I' for Inactive)
REMARK    1  A    between atoms: C_3  and  C_4
REMARK    2  A    between atoms: C_4  and  N_5
REMARK    3  A    between atoms: C_6  and  C_8
REMARK    4  A    between atoms: C_17  and  N_18
REMARK    5  A    between atoms: N_18  and  C_19
REMARK    6  A    between atoms: C_19  and  C_20
REMARK                            x       y       z     vdW  Elec       q    Type
REMARK                         _______ _______ _______ _____ _____    ______ ____
ROOT
ATOM      1  O   UNL     1      -2.514   0.720  25.537  0.00  0.00    -0.219 OA
ATOM      2  C   UNL     1      -2.522   1.032  24.773  0.00  0.00    +0.199 C 
ATOM      3  C   UNL     1      -1.999   0.837  24.165  0.00  0.00    +0.169 C 
ATOM     15  O   UNL     1      -2.206   1.277  23.499  0.00  0.00    -0.350 OA
ATOM     16  C   UNL     1      -2.858   1.744  23.695  0.00  0.00    +0.162 C 
ATOM     17  C   UNL     1      -3.052   1.593  24.481  0.00  0.00    +0.135 C 
ENDROOT
BRANCH   3   4
ATOM      4  C   UNL     1      -1.377   0.296  24.215  0.00  0.00    +0.148 C 
BRANCH   4   5
ATOM      5  N   UNL     1      -0.678   0.433  23.799  0.00  0.00    -0.199 NA
ATOM      6  C   UNL     1      -0.064  -0.118  23.832  0.00  0.00    +0.265 C 
ATOM      7  O   UNL     1      -0.151  -0.805  24.281  0.00  0.00    -0.268 OA
BRANCH   6   8
ATOM      8  C   UNL     1       0.635   0.018  23.417  0.00  0.00    +0.055 A 
ATOM      9  C   UNL     1       0.847  -0.478  22.792  0.00  0.00    +0.007 A 
ATOM     10  C   UNL     1       1.547  -0.342  22.377  0.00  0.00    +0.030 A 
ATOM     11  C   UNL     1       2.034   0.290  22.585  0.00  0.00    +0.140 A 
ATOM     12  F   UNL     1       2.734   0.426  22.170  0.00  0.00    -0.204 F 
ATOM     13  C   UNL     1       1.822   0.786  23.210  0.00  0.00    +0.030 A 
ATOM     14  C   UNL     1       1.123   0.650  23.625  0.00  0.00    +0.007 A 
ENDBRANCH   6   8
ENDBRANCH   4   5
ENDBRANCH   3   4
BRANCH  17  18
ATOM     18  N   UNL     1      -3.669   1.941  24.904  0.00  0.00    -0.214 NA
BRANCH  18  19
ATOM     19  C   UNL     1      -4.291   2.305  24.502  0.00  0.00    +0.089 C 
BRANCH  19  20
ATOM     20  C   UNL     1      -4.950   2.575  24.918  0.00  0.00    +0.017 C 
ATOM     21  C   UNL     1      -5.692   2.434  25.249  0.00  0.00    +0.001 C 
ATOM     22  C   UNL     1      -5.348   3.183  25.308  0.00  0.00    +0.001 C 
ENDBRANCH  19  20
ENDBRANCH  18  19
ENDBRANCH  17  18
TORSDOF 6
ENDMDL
MODEL 10
REMARK VINA RESULT:      -6.3     14.805     16.969
REMARK  Name = 
REMARK  6 active torsions:
REMARK  status: ('A' for Active; 'I' for Inactive)
REMARK    1  A    between atoms: C_3  and  C_4
REMARK    2  A    between atoms: C_4  and  N_5
REMARK    3  A    between atoms: C_6  and  C_8
REMARK    4  A    between atoms: C_17  and  N_18
REMARK    5  A    between atoms: N_18  and  C_19
REMARK    6  A    between atoms: C_19  and  C_20
REMARK                            x       y       z     vdW  Elec       q    Type
REMARK                         _______ _______ _______ _____ _____    ______ ____
ROOT
ATOM      1  O   UNL     1      -2.592 -10.713  14.371  0.00  0.00    -0.219 OA
ATOM      2  C   UNL     1      -3.382 -10.647  14.144  0.00  0.00    +0.199 C 
ATOM      3  C   UNL     1      -3.658 -10.559  13.371  0.00  0.00    +0.169 C 
ATOM     15  O   UNL     1      -4.482 -10.516  13.398  0.00  0.00    -0.350 OA
ATOM     16  C   UNL     1      -4.715 -10.578  14.187  0.00  0.00    +0.162 C 
ATOM     17  C   UNL     1      -4.036 -10.659  14.647  0.00  0.00    +0.135 C 
ENDROOT
BRANCH   3   4
ATOM      4  C   UNL     1      -3.192 -10.520  12.691  0.00  0.00    +0.148 C 
BRANCH   4   5
ATOM      5  N   UNL     1      -3.519 -10.253  11.982  0.00  0.00    -0.199 NA
ATOM      6  C   UNL     1      -3.063 -10.246  11.294  0.00  0.00    +0.265 C 
ATOM      7  O   UNL     1      -2.280 -10.508  11.316  0.00  0.00    -0.268 OA
BRANCH   6   8
ATOM      8  C   UNL     1      -3.389  -9.980  10.586  0.00  0.00    +0.055 A 
ATOM      9  C   UNL     1      -3.287  -9.194  10.354  0.00  0.00    +0.007 A 
ATOM     10  C   UNL     1      -3.614  -8.928   9.645  0.00  0.00    +0.030 A 
ATOM     11  C   UNL     1      -4.042  -9.446   9.167  0.00  0.00    +0.140 A 
ATOM     12  F   UNL     1      -4.368  -9.180   8.458  0.00  0.00    -0.204 F 
ATOM     13  C   UNL     1      -4.143 -10.232   9.398  0.00  0.00    +0.030 A 
ATOM     14  C   UNL     1      -3.817 -10.498  10.107  0.00  0.00    +0.007 A 
ENDBRANCH   6   8
ENDBRANCH   4   5
ENDBRANCH   3   4
BRANCH  17  18
ATOM     18  N   UNL     1      -4.013 -10.738  15.468  0.00  0.00    -0.214 NA
BRANCH  18  19
ATOM     19  C   UNL     1      -4.670 -10.529  15.921  0.00  0.00    +0.089 C 
BRANCH  19  20
ATOM     20  C   UNL     1      -4.658 -10.636  16.739  0.00  0.00    +0.017 C 
ATOM     21  C   UNL     1      -4.236 -10.751  17.438  0.00  0.00    +0.001 C 
ATOM     22  C   UNL     1      -5.061 -10.705  17.456  0.00  0.00    +0.001 C 
ENDBRANCH  19  20
ENDBRANCH  18  19
ENDBRANCH  17  18
TORSDOF 6
ENDMDL
