REMARK  Name = 
REMARK  7 active torsions:
REMARK  status: ('A' for Active; 'I' for Inactive)
REMARK    1  A    between atoms: O_2  and  C_3
REMARK    2  A    between atoms: C_6  and  C_7
REMARK    3  A    between atoms: C_7  and  N_8
REMARK    4  A    between atoms: C_13  and  C_14
REMARK    5  A    between atoms: C_16  and  C_19
REMARK    6  A    between atoms: C_22  and  O_23
REMARK    7  A    between atoms: O_23  and  C_24
REMARK                            x       y       z     vdW  Elec       q    Type
REMARK                         _______ _______ _______ _____ _____    ______ ____
ROOT
ATOM      8  N   UNL     1       0.715   1.238   0.000  0.00  0.00    -0.260 NA
ATOM      9  C   UNL     1      -0.039   0.902   0.000  0.00  0.00    +0.106 C 
ATOM     10  C   UNL     1      -0.591   1.515   0.000  0.00  0.00    +0.170 C 
ATOM     11  O   UNL     1      -1.412   1.429   0.000  0.00  0.00    -0.222 OA
ATOM     12  C   UNL     1      -0.179   2.229   0.000  0.00  0.00    +0.060 C 
ATOM     13  C   UNL     1       0.628   2.058   0.000  0.00  0.00    +0.140 C 
ENDROOT
BRANCH  13  14
ATOM     14  C   UNL     1       1.241   2.610   0.000  0.00  0.00    +0.251 A 
ATOM     15  N   UNL     1       1.155   3.430   0.000  0.00  0.00    -0.190 NA
ATOM     16  C   UNL     1       1.909   3.766   0.000  0.00  0.00    +0.203 A 
ATOM     17  N   UNL     1       2.461   3.153   0.000  0.00  0.00    -0.056 NA
ATOM     18  O   UNL     1       2.048   2.438   0.000  0.00  0.00    -0.336 OA
BRANCH  16  19
ATOM     19  C   UNL     1       2.080   4.573   0.000  0.00  0.00    +0.039 A 
ATOM     20  C   UNL     1       1.467   5.125   0.000  0.00  0.00    +0.006 A 
ATOM     21  C   UNL     1       1.639   5.932   0.000  0.00  0.00    +0.037 A 
ATOM     22  C   UNL     1       2.423   6.187   0.000  0.00  0.00    +0.147 A 
ATOM     28  C   UNL     1       3.036   5.635   0.000  0.00  0.00    +0.037 A 
ATOM     29  C   UNL     1       2.865   4.828   0.000  0.00  0.00    +0.006 A 
BRANCH  22  23
ATOM     23  O   UNL     1       2.595   6.994   0.000  0.00  0.00    -0.404 OA
BRANCH  23  24
ATOM     24  C   UNL     1       1.982   7.546   0.000  0.00  0.00    +0.575 C 
ATOM     25  F   UNL     1       1.369   8.098   0.000  0.00  0.00    -0.133 F 
ATOM     26  F   UNL     1       2.534   8.159   0.000  0.00  0.00    -0.133 F 
ATOM     27  F   UNL     1       1.430   6.933   0.000  0.00  0.00    -0.133 F 
ENDBRANCH  23  24
ENDBRANCH  22  23
ENDBRANCH  16  19
ENDBRANCH  13  14
BRANCH   8   7
ATOM      7  C   UNL     1       1.429   0.825   0.000  0.00  0.00    +0.100 C 
BRANCH   7   6
ATOM      3  C   UNL     1       1.429  -1.650   0.000  0.00  0.00    +0.139 A 
ATOM      4  C   UNL     1       0.715  -1.238   0.000  0.00  0.00    +0.037 A 
ATOM      5  C   UNL     1       0.715  -0.412   0.000  0.00  0.00    +0.000 A 
ATOM      6  C   UNL     1       1.429   0.000   0.000  0.00  0.00    -0.006 A 
ATOM     30  C   UNL     1       2.143  -0.412   0.000  0.00  0.00    +0.000 A 
ATOM     31  C   UNL     1       2.858   0.000   0.000  0.00  0.00    -0.000 A 
ATOM     32  C   UNL     1       3.572  -0.412   0.000  0.00  0.00    -0.000 A 
ATOM     33  C   UNL     1       3.572  -1.238   0.000  0.00  0.00    +0.000 A 
ATOM     34  C   UNL     1       2.858  -1.650   0.000  0.00  0.00    +0.003 A 
ATOM     35  C   UNL     1       2.143  -1.238   0.000  0.00  0.00    +0.034 A 
BRANCH   3   2
ATOM      1  C   UNL     1       2.143  -2.888   0.000  0.00  0.00    +0.252 C 
ATOM      2  O   UNL     1       1.429  -2.475   0.000  0.00  0.00    -0.471 OA
ENDBRANCH   3   2
ENDBRANCH   7   6
ENDBRANCH   8   7
TORSDOF 7
