MODEL 1
REMARK VINA RESULT:     -10.4      0.000      0.000
REMARK  Name = 
REMARK  7 active torsions:
REMARK  status: ('A' for Active; 'I' for Inactive)
REMARK    1  A    between atoms: C_5  and  C_8
REMARK    2  A    between atoms: N_10  and  C_11
REMARK    3  A    between atoms: C_11  and  C_12
REMARK    4  A    between atoms: C_14  and  C_15
REMARK    5  A    between atoms: C_15  and  C_16
REMARK    6  A    between atoms: N_18  and  C_19
REMARK    7  A    between atoms: C_19  and  C_20
REMARK                            x       y       z     vdW  Elec       q    Type
REMARK                         _______ _______ _______ _____ _____    ______ ____
ROOT
ATOM     12  C   UNL     1      -1.272   1.548  25.472  0.00  0.00    +0.170 C 
ATOM     13  O   UNL     1      -2.001   1.878  25.274  0.00  0.00    -0.351 OA
ATOM     14  C   UNL     1      -1.916   2.698  25.261  0.00  0.00    +0.157 C 
ATOM     22  C   UNL     1      -1.133   2.875  25.452  0.00  0.00    +0.212 C 
ATOM     23  O   UNL     1      -0.806   3.632  25.504  0.00  0.00    -0.218 OA
ATOM     24  C   UNL     1      -0.735   2.165  25.582  0.00  0.00    +0.213 C 
ATOM     25  O   UNL     1       0.060   2.085  25.787  0.00  0.00    -0.218 OA
ENDROOT
BRANCH  12  11
ATOM     11  C   UNL     1      -1.107   0.743  25.547  0.00  0.00    +0.148 C 
BRANCH  11  10
ATOM      8  C   UNL     1      -1.559  -0.611  25.490  0.00  0.00    +0.265 C 
ATOM      9  O   UNL     1      -0.911  -0.846  25.943  0.00  0.00    -0.268 OA
ATOM     10  N   UNL     1      -1.657   0.185  25.292  0.00  0.00    -0.199 NA
BRANCH   8   5
ATOM      1  C   UNL     1      -3.760  -2.850  24.472  0.00  0.00    +0.031 C 
ATOM      2  C   UNL     1      -3.210  -2.290  24.727  0.00  0.00    -0.022 A 
ATOM      3  C   UNL     1      -3.435  -1.701  25.260  0.00  0.00    -0.004 A 
ATOM      4  C   UNL     1      -2.885  -1.142  25.514  0.00  0.00    +0.004 A 
ATOM      5  C   UNL     1      -2.109  -1.170  25.236  0.00  0.00    +0.055 A 
ATOM      6  C   UNL     1      -1.883  -1.758  24.703  0.00  0.00    +0.004 A 
ATOM      7  C   UNL     1      -2.433  -2.318  24.449  0.00  0.00    -0.004 A 
ENDBRANCH   8   5
ENDBRANCH  11  10
ENDBRANCH  12  11
BRANCH  14  15
ATOM     15  C   UNL     1      -2.509   3.245  25.089  0.00  0.00    +0.119 C 
BRANCH  15  16
ATOM     16  C   UNL     1      -3.152   3.024  24.622  0.00  0.00    +0.245 C 
ATOM     17  O   UNL     1      -3.063   2.950  23.805  0.00  0.00    -0.273 OA
ATOM     18  N   UNL     1      -3.885   2.876  24.971  0.00  0.00    -0.191 NA
BRANCH  18  19
ATOM     19  C   UNL     1      -4.528   2.655  24.504  0.00  0.00    +0.191 C 
BRANCH  19  20
ATOM     20  C   UNL     1      -5.202   2.336  24.855  0.00  0.00    -0.054 C 
ATOM     21  C   UNL     1      -5.877   2.016  25.206  0.00  0.00    -0.012 C 
ENDBRANCH  19  20
ENDBRANCH  18  19
ENDBRANCH  15  16
ENDBRANCH  14  15
TORSDOF 7
ENDMDL
MODEL 2
REMARK VINA RESULT:     -10.4      1.510      3.050
REMARK  Name = 
REMARK  7 active torsions:
REMARK  status: ('A' for Active; 'I' for Inactive)
REMARK    1  A    between atoms: C_5  and  C_8
REMARK    2  A    between atoms: N_10  and  C_11
REMARK    3  A    between atoms: C_11  and  C_12
REMARK    4  A    between atoms: C_14  and  C_15
REMARK    5  A    between atoms: C_15  and  C_16
REMARK    6  A    between atoms: N_18  and  C_19
REMARK    7  A    between atoms: C_19  and  C_20
REMARK                            x       y       z     vdW  Elec       q    Type
REMARK                         _______ _______ _______ _____ _____    ______ ____
ROOT
ATOM     12  C   UNL     1      -3.297   2.500  24.984  0.00  0.00    +0.170 C 
ATOM     13  O   UNL     1      -2.488   2.358  24.905  0.00  0.00    -0.351 OA
ATOM     14  C   UNL     1      -2.097   3.084  24.928  0.00  0.00    +0.157 C 
ATOM     22  C   UNL     1      -2.666   3.675  25.021  0.00  0.00    +0.212 C 
ATOM     23  O   UNL     1      -2.517   4.486  25.070  0.00  0.00    -0.218 OA
ATOM     24  C   UNL     1      -3.406   3.314  25.055  0.00  0.00    +0.213 C 
ATOM     25  O   UNL     1      -4.130   3.700  25.146  0.00  0.00    -0.218 OA
ENDROOT
BRANCH  12  11
ATOM     11  C   UNL     1      -3.892   1.928  24.990  0.00  0.00    +0.148 C 
BRANCH  11  10
ATOM      8  C   UNL     1      -4.286   0.555  24.957  0.00  0.00    +0.265 C 
ATOM      9  O   UNL     1      -5.061   0.774  25.135  0.00  0.00    -0.268 OA
ATOM     10  N   UNL     1      -3.701   1.133  24.885  0.00  0.00    -0.199 NA
BRANCH   8   5
ATOM      1  C   UNL     1      -3.524  -2.628  24.536  0.00  0.00    +0.031 C 
ATOM      2  C   UNL     1      -3.714  -1.832  24.642  0.00  0.00    -0.022 A 
ATOM      3  C   UNL     1      -3.540  -1.456  25.356  0.00  0.00    -0.004 A 
ATOM      4  C   UNL     1      -3.731  -0.661  25.461  0.00  0.00    +0.004 A 
ATOM      5  C   UNL     1      -4.095  -0.240  24.853  0.00  0.00    +0.055 A 
ATOM      6  C   UNL     1      -4.270  -0.615  24.138  0.00  0.00    +0.004 A 
ATOM      7  C   UNL     1      -4.079  -1.410  24.033  0.00  0.00    -0.004 A 
ENDBRANCH   8   5
ENDBRANCH  11  10
ENDBRANCH  12  11
BRANCH  14  15
ATOM     15  C   UNL     1      -1.283   3.199  24.868  0.00  0.00    +0.119 C 
BRANCH  15  16
ATOM     16  C   UNL     1      -0.765   2.577  25.029  0.00  0.00    +0.245 C 
ATOM     17  O   UNL     1      -0.563   2.401  25.809  0.00  0.00    -0.273 OA
ATOM     18  N   UNL     1      -0.449   2.132  24.411  0.00  0.00    -0.191 NA
BRANCH  18  19
ATOM     19  C   UNL     1       0.069   1.510  24.572  0.00  0.00    +0.191 C 
BRANCH  19  20
ATOM     20  C   UNL     1       0.155   0.894  24.031  0.00  0.00    -0.054 C 
ATOM     21  C   UNL     1       0.241   0.277  23.491  0.00  0.00    -0.012 C 
ENDBRANCH  19  20
ENDBRANCH  18  19
ENDBRANCH  15  16
ENDBRANCH  14  15
TORSDOF 7
ENDMDL
MODEL 3
REMARK VINA RESULT:     -10.2      1.394      4.114
REMARK  Name = 
REMARK  7 active torsions:
REMARK  status: ('A' for Active; 'I' for Inactive)
REMARK    1  A    between atoms: C_5  and  C_8
REMARK    2  A    between atoms: N_10  and  C_11
REMARK    3  A    between atoms: C_11  and  C_12
REMARK    4  A    between atoms: C_14  and  C_15
REMARK    5  A    between atoms: C_15  and  C_16
REMARK    6  A    between atoms: N_18  and  C_19
REMARK    7  A    between atoms: C_19  and  C_20
REMARK                            x       y       z     vdW  Elec       q    Type
REMARK                         _______ _______ _______ _____ _____    ______ ____
ROOT
ATOM     12  C   UNL     1      -1.491   0.235  25.339  0.00  0.00    +0.170 C 
ATOM     13  O   UNL     1      -2.306   0.317  25.246  0.00  0.00    -0.351 OA
ATOM     14  C   UNL     1      -2.629  -0.435  25.142  0.00  0.00    +0.157 C 
ATOM     22  C   UNL     1      -2.011  -0.982  25.170  0.00  0.00    +0.212 C 
ATOM     23  O   UNL     1      -2.086  -1.801  25.091  0.00  0.00    -0.218 OA
ATOM     24  C   UNL     1      -1.309  -0.568  25.292  0.00  0.00    +0.213 C 
ATOM     25  O   UNL     1      -0.556  -0.900  25.356  0.00  0.00    -0.218 OA
ENDROOT
BRANCH  12  11
ATOM     11  C   UNL     1      -0.951   0.848  25.458  0.00  0.00    +0.148 C 
BRANCH  11  10
ATOM      8  C   UNL     1      -0.699   2.248  25.591  0.00  0.00    +0.265 C 
ATOM      9  O   UNL     1       0.014   2.083  25.971  0.00  0.00    -0.268 OA
ATOM     10  N   UNL     1      -1.182   1.629  25.334  0.00  0.00    -0.199 NA
BRANCH   8   5
ATOM      1  C   UNL     1      -1.621   5.378  25.098  0.00  0.00    +0.031 C 
ATOM      2  C   UNL     1      -1.391   4.595  25.221  0.00  0.00    -0.022 A 
ATOM      3  C   UNL     1      -1.828   4.110  25.726  0.00  0.00    -0.004 A 
ATOM      4  C   UNL     1      -1.598   3.328  25.849  0.00  0.00    +0.004 A 
ATOM      5  C   UNL     1      -0.930   3.030  25.468  0.00  0.00    +0.055 A 
ATOM      6  C   UNL     1      -0.492   3.514  24.963  0.00  0.00    +0.004 A 
ATOM      7  C   UNL     1      -0.722   4.296  24.840  0.00  0.00    -0.004 A 
ENDBRANCH   8   5
ENDBRANCH  11  10
ENDBRANCH  12  11
BRANCH  14  15
ATOM     15  C   UNL     1      -3.427  -0.610  25.029  0.00  0.00    +0.119 C 
BRANCH  15  16
ATOM     16  C   UNL     1      -3.920  -0.064  24.655  0.00  0.00    +0.245 C 
ATOM     17  O   UNL     1      -3.915   0.000  23.833  0.00  0.00    -0.273 OA
ATOM     18  N   UNL     1      -4.419   0.416  25.103  0.00  0.00    -0.191 NA
BRANCH  18  19
ATOM     19  C   UNL     1      -4.912   0.962  24.729  0.00  0.00    +0.191 C 
BRANCH  19  20
ATOM     20  C   UNL     1      -5.319   1.524  25.174  0.00  0.00    -0.054 C 
ATOM     21  C   UNL     1      -5.724   2.087  25.620  0.00  0.00    -0.012 C 
ENDBRANCH  19  20
ENDBRANCH  18  19
ENDBRANCH  15  16
ENDBRANCH  14  15
TORSDOF 7
ENDMDL
MODEL 4
REMARK VINA RESULT:     -10.2      1.924      5.084
REMARK  Name = 
REMARK  7 active torsions:
REMARK  status: ('A' for Active; 'I' for Inactive)
REMARK    1  A    between atoms: C_5  and  C_8
REMARK    2  A    between atoms: N_10  and  C_11
REMARK    3  A    between atoms: C_11  and  C_12
REMARK    4  A    between atoms: C_14  and  C_15
REMARK    5  A    between atoms: C_15  and  C_16
REMARK    6  A    between atoms: N_18  and  C_19
REMARK    7  A    between atoms: C_19  and  C_20
REMARK                            x       y       z     vdW  Elec       q    Type
REMARK                         _______ _______ _______ _____ _____    ______ ____
ROOT
ATOM     12  C   UNL     1      -4.698   2.753  25.584  0.00  0.00    +0.170 C 
ATOM     13  O   UNL     1      -4.431   2.035  25.278  0.00  0.00    -0.351 OA
ATOM     14  C   UNL     1      -5.086   1.612  25.009  0.00  0.00    +0.157 C 
ATOM     22  C   UNL     1      -5.759   2.070  25.150  0.00  0.00    +0.212 C 
ATOM     23  O   UNL     1      -6.536   1.858  24.968  0.00  0.00    -0.218 OA
ATOM     24  C   UNL     1      -5.518   2.774  25.506  0.00  0.00    +0.213 C 
ATOM     25  O   UNL     1      -6.013   3.391  25.741  0.00  0.00    -0.218 OA
ENDROOT
BRANCH  12  11
ATOM     11  C   UNL     1      -4.227   3.346  25.913  0.00  0.00    +0.148 C 
BRANCH  11  10
ATOM      8  C   UNL     1      -2.966   4.014  25.967  0.00  0.00    +0.265 C 
ATOM      9  O   UNL     1      -3.143   4.286  26.725  0.00  0.00    -0.268 OA
ATOM     10  N   UNL     1      -3.509   3.544  25.560  0.00  0.00    -0.199 NA
BRANCH   8   5
ATOM      1  C   UNL     1      -0.088   4.809  24.558  0.00  0.00    +0.031 C 
ATOM      2  C   UNL     1      -0.808   4.610  24.911  0.00  0.00    -0.022 A 
ATOM      3  C   UNL     1      -0.931   3.846  25.196  0.00  0.00    -0.004 A 
ATOM      4  C   UNL     1      -1.650   3.647  25.548  0.00  0.00    +0.004 A 
ATOM      5  C   UNL     1      -2.247   4.212  25.615  0.00  0.00    +0.055 A 
ATOM      6  C   UNL     1      -2.124   4.977  25.329  0.00  0.00    +0.004 A 
ATOM      7  C   UNL     1      -1.405   5.176  24.978  0.00  0.00    -0.004 A 
ENDBRANCH   8   5
ENDBRANCH  11  10
ENDBRANCH  12  11
BRANCH  14  15
ATOM     15  C   UNL     1      -5.072   0.865  24.661  0.00  0.00    +0.119 C 
BRANCH  15  16
ATOM     16  C   UNL     1      -4.357   0.463  24.575  0.00  0.00    +0.245 C 
ATOM     17  O   UNL     1      -3.778   0.757  24.066  0.00  0.00    -0.273 OA
ATOM     18  N   UNL     1      -4.221  -0.233  24.996  0.00  0.00    -0.191 NA
BRANCH  18  19
ATOM     19  C   UNL     1      -3.506  -0.635  24.910  0.00  0.00    +0.191 C 
BRANCH  19  20
ATOM     20  C   UNL     1      -3.437  -1.415  25.167  0.00  0.00    -0.054 C 
ATOM     21  C   UNL     1      -3.368  -2.195  25.426  0.00  0.00    -0.012 C 
ENDBRANCH  19  20
ENDBRANCH  18  19
ENDBRANCH  15  16
ENDBRANCH  14  15
TORSDOF 7
ENDMDL
MODEL 5
REMARK VINA RESULT:     -10.1      1.657      3.189
REMARK  Name = 
REMARK  7 active torsions:
REMARK  status: ('A' for Active; 'I' for Inactive)
REMARK    1  A    between atoms: C_5  and  C_8
REMARK    2  A    between atoms: N_10  and  C_11
REMARK    3  A    between atoms: C_11  and  C_12
REMARK    4  A    between atoms: C_14  and  C_15
REMARK    5  A    between atoms: C_15  and  C_16
REMARK    6  A    between atoms: N_18  and  C_19
REMARK    7  A    between atoms: C_19  and  C_20
REMARK                            x       y       z     vdW  Elec       q    Type
REMARK                         _______ _______ _______ _____ _____    ______ ____
ROOT
ATOM     12  C   UNL     1      -4.749   1.793  25.043  0.00  0.00    +0.170 C 
ATOM     13  O   UNL     1      -4.048   2.208  25.172  0.00  0.00    -0.351 OA
ATOM     14  C   UNL     1      -4.245   2.975  25.404  0.00  0.00    +0.157 C 
ATOM     22  C   UNL     1      -5.068   3.033  25.419  0.00  0.00    +0.212 C 
ATOM     23  O   UNL     1      -5.503   3.705  25.621  0.00  0.00    -0.218 OA
ATOM     24  C   UNL     1      -5.379   2.302  25.196  0.00  0.00    +0.213 C 
ATOM     25  O   UNL     1      -6.180   2.115  25.136  0.00  0.00    -0.218 OA
ENDROOT
BRANCH  12  11
ATOM     11  C   UNL     1      -4.809   1.005  24.804  0.00  0.00    +0.148 C 
BRANCH  11  10
ATOM      8  C   UNL     1      -4.200  -0.267  24.581  0.00  0.00    +0.265 C 
ATOM      9  O   UNL     1      -4.883  -0.527  24.199  0.00  0.00    -0.268 OA
ATOM     10  N   UNL     1      -4.163   0.500  24.883  0.00  0.00    -0.199 NA
BRANCH   8   5
ATOM      1  C   UNL     1      -1.614  -2.294  24.898  0.00  0.00    +0.031 C 
ATOM      2  C   UNL     1      -2.261  -1.787  24.819  0.00  0.00    -0.022 A 
ATOM      3  C   UNL     1      -2.142  -0.992  24.633  0.00  0.00    -0.004 A 
ATOM      4  C   UNL     1      -2.788  -0.486  24.554  0.00  0.00    +0.004 A 
ATOM      5  C   UNL     1      -3.553  -0.774  24.660  0.00  0.00    +0.055 A 
ATOM      6  C   UNL     1      -3.673  -1.569  24.846  0.00  0.00    +0.004 A 
ATOM      7  C   UNL     1      -3.027  -2.075  24.925  0.00  0.00    -0.004 A 
ENDBRANCH   8   5
ENDBRANCH  11  10
ENDBRANCH  12  11
BRANCH  14  15
ATOM     15  C   UNL     1      -3.713   3.578  25.589  0.00  0.00    +0.119 C 
BRANCH  15  16
ATOM     16  C   UNL     1      -2.956   3.576  25.261  0.00  0.00    +0.245 C 
ATOM     17  O   UNL     1      -2.851   3.776  24.468  0.00  0.00    -0.273 OA
ATOM     18  N   UNL     1      -2.305   3.374  25.725  0.00  0.00    -0.191 NA
BRANCH  18  19
ATOM     19  C   UNL     1      -1.548   3.373  25.396  0.00  0.00    +0.191 C 
BRANCH  19  20
ATOM     20  C   UNL     1      -0.930   2.989  25.785  0.00  0.00    -0.054 C 
ATOM     21  C   UNL     1      -0.313   2.605  26.174  0.00  0.00    -0.012 C 
ENDBRANCH  19  20
ENDBRANCH  18  19
ENDBRANCH  15  16
ENDBRANCH  14  15
TORSDOF 7
ENDMDL
MODEL 6
REMARK VINA RESULT:      -9.7      1.169      4.089
REMARK  Name = 
REMARK  7 active torsions:
REMARK  status: ('A' for Active; 'I' for Inactive)
REMARK    1  A    between atoms: C_5  and  C_8
REMARK    2  A    between atoms: N_10  and  C_11
REMARK    3  A    between atoms: C_11  and  C_12
REMARK    4  A    between atoms: C_14  and  C_15
REMARK    5  A    between atoms: C_15  and  C_16
REMARK    6  A    between atoms: N_18  and  C_19
REMARK    7  A    between atoms: C_19  and  C_20
REMARK                            x       y       z     vdW  Elec       q    Type
REMARK                         _______ _______ _______ _____ _____    ______ ____
ROOT
ATOM     12  C   UNL     1      -1.624   1.596  24.115  0.00  0.00    +0.170 C 
ATOM     13  O   UNL     1      -1.720   0.792  24.273  0.00  0.00    -0.351 OA
ATOM     14  C   UNL     1      -0.972   0.445  24.297  0.00  0.00    +0.157 C 
ATOM     22  C   UNL     1      -0.414   1.036  24.154  0.00  0.00    +0.212 C 
ATOM     23  O   UNL     1       0.405   0.932  24.128  0.00  0.00    -0.218 OA
ATOM     24  C   UNL     1      -0.817   1.746  24.042  0.00  0.00    +0.213 C 
ATOM     25  O   UNL     1      -0.472   2.479  23.884  0.00  0.00    -0.218 OA
ENDROOT
BRANCH  12  11
ATOM     11  C   UNL     1      -2.230   2.152  24.043  0.00  0.00    +0.148 C 
BRANCH  11  10
ATOM      8  C   UNL     1      -3.586   2.524  24.297  0.00  0.00    +0.265 C 
ATOM      9  O   UNL     1      -3.548   3.075  23.684  0.00  0.00    -0.268 OA
ATOM     10  N   UNL     1      -2.925   2.062  24.476  0.00  0.00    -0.199 NA
BRANCH   8   5
ATOM      1  C   UNL     1      -6.372   2.167  26.029  0.00  0.00    +0.031 C 
ATOM      2  C   UNL     1      -5.675   2.256  25.596  0.00  0.00    -0.022 A 
ATOM      3  C   UNL     1      -5.468   1.696  25.026  0.00  0.00    -0.004 A 
ATOM      4  C   UNL     1      -4.772   1.786  24.594  0.00  0.00    +0.004 A 
ATOM      5  C   UNL     1      -4.282   2.435  24.729  0.00  0.00    +0.055 A 
ATOM      6  C   UNL     1      -4.488   2.995  25.299  0.00  0.00    +0.004 A 
ATOM      7  C   UNL     1      -5.184   2.906  25.732  0.00  0.00    -0.004 A 
ENDBRANCH   8   5
ENDBRANCH  11  10
ENDBRANCH  12  11
BRANCH  14  15
ATOM     15  C   UNL     1      -0.811  -0.351  24.439  0.00  0.00    +0.119 C 
BRANCH  15  16
ATOM     16  C   UNL     1      -1.312  -0.795  24.922  0.00  0.00    +0.245 C 
ATOM     17  O   UNL     1      -1.292  -0.692  25.740  0.00  0.00    -0.273 OA
ATOM     18  N   UNL     1      -1.831  -1.340  24.587  0.00  0.00    -0.191 NA
BRANCH  18  19
ATOM     19  C   UNL     1      -2.332  -1.784  25.070  0.00  0.00    +0.191 C 
BRANCH  19  20
ATOM     20  C   UNL     1      -2.949  -2.218  24.738  0.00  0.00    -0.054 C 
ATOM     21  C   UNL     1      -3.567  -2.651  24.404  0.00  0.00    -0.012 C 
ENDBRANCH  19  20
ENDBRANCH  18  19
ENDBRANCH  15  16
ENDBRANCH  14  15
TORSDOF 7
ENDMDL
MODEL 7
REMARK VINA RESULT:      -7.8     16.206     18.136
REMARK  Name = 
REMARK  7 active torsions:
REMARK  status: ('A' for Active; 'I' for Inactive)
REMARK    1  A    between atoms: C_5  and  C_8
REMARK    2  A    between atoms: N_10  and  C_11
REMARK    3  A    between atoms: C_11  and  C_12
REMARK    4  A    between atoms: C_14  and  C_15
REMARK    5  A    between atoms: C_15  and  C_16
REMARK    6  A    between atoms: N_18  and  C_19
REMARK    7  A    between atoms: C_19  and  C_20
REMARK                            x       y       z     vdW  Elec       q    Type
REMARK                         _______ _______ _______ _____ _____    ______ ____
ROOT
ATOM     12  C   UNL     1      12.565   8.105  18.910  0.00  0.00    +0.170 C 
ATOM     13  O   UNL     1      12.352   7.927  19.687  0.00  0.00    -0.351 OA
ATOM     14  C   UNL     1      11.556   8.125  19.785  0.00  0.00    +0.157 C 
ATOM     22  C   UNL     1      11.279   8.424  19.068  0.00  0.00    +0.212 C 
ATOM     23  O   UNL     1      10.511   8.690  18.919  0.00  0.00    -0.218 OA
ATOM     24  C   UNL     1      11.902   8.412  18.528  0.00  0.00    +0.213 C 
ATOM     25  O   UNL     1      11.867   8.663  17.743  0.00  0.00    -0.218 OA
ENDROOT
BRANCH  12  11
ATOM     11  C   UNL     1      13.310   7.994  18.574  0.00  0.00    +0.148 C 
BRANCH  11  10
ATOM      8  C   UNL     1      14.681   7.613  18.704  0.00  0.00    +0.265 C 
ATOM      9  O   UNL     1      14.781   7.696  17.889  0.00  0.00    -0.268 OA
ATOM     10  N   UNL     1      13.945   7.762  19.046  0.00  0.00    -0.199 NA
BRANCH   8   5
ATOM      1  C   UNL     1      17.223   6.682  20.591  0.00  0.00    +0.031 C 
ATOM      2  C   UNL     1      16.587   6.915  20.119  0.00  0.00    -0.022 A 
ATOM      3  C   UNL     1      16.316   7.694  20.147  0.00  0.00    -0.004 A 
ATOM      4  C   UNL     1      15.680   7.926  19.675  0.00  0.00    +0.004 A 
ATOM      5  C   UNL     1      15.316   7.380  19.175  0.00  0.00    +0.055 A 
ATOM      6  C   UNL     1      15.587   6.601  19.147  0.00  0.00    +0.004 A 
ATOM      7  C   UNL     1      16.222   6.369  19.619  0.00  0.00    -0.004 A 
ENDBRANCH   8   5
ENDBRANCH  11  10
ENDBRANCH  12  11
BRANCH  14  15
ATOM     15  C   UNL     1      11.117   8.038  20.478  0.00  0.00    +0.119 C 
BRANCH  15  16
ATOM     16  C   UNL     1      11.360   7.503  21.057  0.00  0.00    +0.245 C 
ATOM     17  O   UNL     1      11.915   7.732  21.623  0.00  0.00    -0.273 OA
ATOM     18  N   UNL     1      11.048   6.740  21.071  0.00  0.00    -0.191 NA
BRANCH  18  19
ATOM     19  C   UNL     1      11.291   6.205  21.650  0.00  0.00    +0.191 C 
BRANCH  19  20
ATOM     20  C   UNL     1      10.996   5.435  21.651  0.00  0.00    -0.054 C 
ATOM     21  C   UNL     1      10.700   4.665  21.652  0.00  0.00    -0.012 C 
ENDBRANCH  19  20
ENDBRANCH  18  19
ENDBRANCH  15  16
ENDBRANCH  14  15
TORSDOF 7
ENDMDL
