MODEL 1
REMARK VINA RESULT:     -13.0      0.000      0.000
REMARK  Name = 
REMARK  5 active torsions:
REMARK  status: ('A' for Active; 'I' for Inactive)
REMARK    1  A    between atoms: C_4  and  C_15
REMARK    2  A    between atoms: N_5  and  C_6
REMARK    3  A    between atoms: C_6  and  C_7
REMARK    4  A    between atoms: C_17  and  C_18
REMARK    5  A    between atoms: C_18  and  C_19
REMARK                            x       y       z     vdW  Elec       q    Type
REMARK                         _______ _______ _______ _____ _____    ______ ____
ROOT
ATOM      1  O   UNL     1      -6.661   1.624  25.213  0.00  0.00    -0.222 OA
ATOM      2  C   UNL     1      -5.858   1.686  25.036  0.00  0.00    +0.170 C 
ATOM      3  C   UNL     1      -5.428   2.388  24.978  0.00  0.00    +0.060 C 
ATOM      4  C   UNL     1      -4.647   2.194  24.793  0.00  0.00    +0.140 C 
ATOM      5  N   UNL     1      -4.595   1.373  24.737  0.00  0.00    -0.260 NA
ATOM     14  C   UNL     1      -5.344   1.059  24.887  0.00  0.00    +0.106 C 
ENDROOT
BRANCH   4  15
ATOM     15  C   UNL     1      -4.028   2.728  24.684  0.00  0.00    +0.251 A 
ATOM     16  N   UNL     1      -3.570   3.068  25.279  0.00  0.00    -0.193 NA
ATOM     17  C   UNL     1      -3.017   3.566  24.922  0.00  0.00    +0.185 A 
ATOM     27  N   UNL     1      -3.133   3.533  24.106  0.00  0.00    -0.060 NA
ATOM     28  O   UNL     1      -3.758   3.015  23.958  0.00  0.00    -0.336 OA
BRANCH  17  18
ATOM     18  C   UNL     1      -2.447   4.017  25.313  0.00  0.00    +0.096 C 
BRANCH  18  19
ATOM     19  C   UNL     1      -1.699   3.702  25.458  0.00  0.00    -0.004 A 
ATOM     20  C   UNL     1      -1.626   2.953  25.794  0.00  0.00    -0.001 A 
ATOM     21  C   UNL     1      -0.877   2.638  25.940  0.00  0.00    +0.029 A 
ATOM     22  C   UNL     1      -0.203   3.072  25.748  0.00  0.00    +0.141 A 
ATOM     23  F   UNL     1       0.546   2.757  25.893  0.00  0.00    -0.204 F 
ATOM     24  C   UNL     1      -0.276   3.822  25.411  0.00  0.00    +0.041 A 
ATOM     25  C   UNL     1      -1.024   4.136  25.266  0.00  0.00    +0.056 A 
ATOM     26 CL   UNL     1      -1.098   4.886  24.929  0.00  0.00    -0.082 Cl
ENDBRANCH  18  19
ENDBRANCH  17  18
ENDBRANCH   4  15
BRANCH   5   6
ATOM      6  C   UNL     1      -3.915   0.941  24.561  0.00  0.00    +0.100 C 
BRANCH   6   7
ATOM      7  C   UNL     1      -3.915   0.119  24.641  0.00  0.00    -0.006 A 
ATOM      8  C   UNL     1      -3.717  -0.225  25.364  0.00  0.00    -0.001 A 
ATOM      9  C   UNL     1      -3.717  -1.046  25.444  0.00  0.00    +0.029 A 
ATOM     10  C   UNL     1      -3.916  -1.523  24.801  0.00  0.00    +0.140 A 
ATOM     11  F   UNL     1      -3.916  -2.344  24.881  0.00  0.00    -0.204 F 
ATOM     12  C   UNL     1      -4.115  -1.179  24.078  0.00  0.00    +0.029 A 
ATOM     13  C   UNL     1      -4.115  -0.357  23.998  0.00  0.00    -0.001 A 
ENDBRANCH   6   7
ENDBRANCH   5   6
TORSDOF 5
ENDMDL
MODEL 2
REMARK VINA RESULT:     -12.9      1.956      4.585
REMARK  Name = 
REMARK  5 active torsions:
REMARK  status: ('A' for Active; 'I' for Inactive)
REMARK    1  A    between atoms: C_4  and  C_15
REMARK    2  A    between atoms: N_5  and  C_6
REMARK    3  A    between atoms: C_6  and  C_7
REMARK    4  A    between atoms: C_17  and  C_18
REMARK    5  A    between atoms: C_18  and  C_19
REMARK                            x       y       z     vdW  Elec       q    Type
REMARK                         _______ _______ _______ _____ _____    ______ ____
ROOT
ATOM      1  O   UNL     1      -5.731   3.585  25.780  0.00  0.00    -0.222 OA
ATOM      2  C   UNL     1      -5.130   3.092  25.504  0.00  0.00    +0.170 C 
ATOM      3  C   UNL     1      -5.224   2.318  25.233  0.00  0.00    +0.060 C 
ATOM      4  C   UNL     1      -4.481   2.034  25.012  0.00  0.00    +0.140 C 
ATOM      5  N   UNL     1      -3.929   2.632  25.145  0.00  0.00    -0.260 NA
ATOM     14  C   UNL     1      -4.330   3.286  25.449  0.00  0.00    +0.106 C 
ENDROOT
BRANCH   4  15
ATOM     15  C   UNL     1      -4.319   1.284  24.710  0.00  0.00    +0.251 A 
ATOM     16  N   UNL     1      -4.425   0.568  25.106  0.00  0.00    -0.193 NA
ATOM     17  C   UNL     1      -4.194  -0.040  24.599  0.00  0.00    +0.185 A 
ATOM     27  N   UNL     1      -3.946   0.299  23.889  0.00  0.00    -0.060 NA
ATOM     28  O   UNL     1      -4.023   1.117  23.958  0.00  0.00    -0.336 OA
BRANCH  17  18
ATOM     18  C   UNL     1      -4.210  -0.847  24.771  0.00  0.00    +0.096 C 
BRANCH  18  19
ATOM     19  C   UNL     1      -3.507  -1.279  24.787  0.00  0.00    -0.004 A 
ATOM     20  C   UNL     1      -2.846  -0.977  25.175  0.00  0.00    -0.001 A 
ATOM     21  C   UNL     1      -2.143  -1.409  25.191  0.00  0.00    +0.029 A 
ATOM     22  C   UNL     1      -2.103  -2.144  24.818  0.00  0.00    +0.141 A 
ATOM     23  F   UNL     1      -1.401  -2.577  24.833  0.00  0.00    -0.204 F 
ATOM     24  C   UNL     1      -2.765  -2.446  24.429  0.00  0.00    +0.041 A 
ATOM     25  C   UNL     1      -3.467  -2.014  24.414  0.00  0.00    +0.056 A 
ATOM     26 CL   UNL     1      -4.129  -2.316  24.025  0.00  0.00    -0.082 Cl
ENDBRANCH  18  19
ENDBRANCH  17  18
ENDBRANCH   4  15
BRANCH   5   6
ATOM      6  C   UNL     1      -3.119   2.586  25.000  0.00  0.00    +0.100 C 
BRANCH   6   7
ATOM      7  C   UNL     1      -2.641   3.251  25.105  0.00  0.00    -0.006 A 
ATOM      8  C   UNL     1      -2.219   3.350  25.806  0.00  0.00    -0.001 A 
ATOM      9  C   UNL     1      -1.742   4.014  25.910  0.00  0.00    +0.029 A 
ATOM     10  C   UNL     1      -1.687   4.581  25.313  0.00  0.00    +0.140 A 
ATOM     11  F   UNL     1      -1.210   5.246  25.417  0.00  0.00    -0.204 F 
ATOM     12  C   UNL     1      -2.110   4.482  24.612  0.00  0.00    +0.029 A 
ATOM     13  C   UNL     1      -2.587   3.817  24.507  0.00  0.00    -0.001 A 
ENDBRANCH   6   7
ENDBRANCH   5   6
TORSDOF 5
ENDMDL
MODEL 3
REMARK VINA RESULT:     -12.8      2.296      3.365
REMARK  Name = 
REMARK  5 active torsions:
REMARK  status: ('A' for Active; 'I' for Inactive)
REMARK    1  A    between atoms: C_4  and  C_15
REMARK    2  A    between atoms: N_5  and  C_6
REMARK    3  A    between atoms: C_6  and  C_7
REMARK    4  A    between atoms: C_17  and  C_18
REMARK    5  A    between atoms: C_18  and  C_19
REMARK                            x       y       z     vdW  Elec       q    Type
REMARK                         _______ _______ _______ _____ _____    ______ ____
ROOT
ATOM      1  O   UNL     1      -0.008  -0.337  24.286  0.00  0.00    -0.222 OA
ATOM      2  C   UNL     1      -0.784  -0.059  24.259  0.00  0.00    +0.170 C 
ATOM      3  C   UNL     1      -1.023   0.694  24.019  0.00  0.00    +0.060 C 
ATOM      4  C   UNL     1      -1.845   0.733  24.080  0.00  0.00    +0.140 C 
ATOM      5  N   UNL     1      -2.115   0.004  24.357  0.00  0.00    -0.260 NA
ATOM     14  C   UNL     1      -1.459  -0.485  24.468  0.00  0.00    +0.106 C 
ENDROOT
BRANCH   4  15
ATOM     15  C   UNL     1      -2.314   1.385  23.895  0.00  0.00    +0.251 A 
ATOM     16  N   UNL     1      -2.551   1.976  24.420  0.00  0.00    -0.193 NA
ATOM     17  C   UNL     1      -3.012   2.517  24.002  0.00  0.00    +0.185 A 
ATOM     27  N   UNL     1      -3.061   2.262  23.219  0.00  0.00    -0.060 NA
ATOM     28  O   UNL     1      -2.629   1.562  23.153  0.00  0.00    -0.336 OA
BRANCH  17  18
ATOM     18  C   UNL     1      -3.364   3.197  24.312  0.00  0.00    +0.096 C 
BRANCH  18  19
ATOM     19  C   UNL     1      -4.045   3.135  24.773  0.00  0.00    -0.004 A 
ATOM     20  C   UNL     1      -4.678   2.674  24.514  0.00  0.00    -0.001 A 
ATOM     21  C   UNL     1      -5.359   2.612  24.974  0.00  0.00    +0.029 A 
ATOM     22  C   UNL     1      -5.407   3.011  25.695  0.00  0.00    +0.141 A 
ATOM     23  F   UNL     1      -6.088   2.950  26.156  0.00  0.00    -0.204 F 
ATOM     24  C   UNL     1      -4.774   3.473  25.954  0.00  0.00    +0.041 A 
ATOM     25  C   UNL     1      -4.093   3.534  25.493  0.00  0.00    +0.056 A 
ATOM     26 CL   UNL     1      -3.460   3.995  25.753  0.00  0.00    -0.082 Cl
ENDBRANCH  18  19
ENDBRANCH  17  18
ENDBRANCH   4  15
BRANCH   5   6
ATOM      6  C   UNL     1      -2.901  -0.200  24.499  0.00  0.00    +0.100 C 
BRANCH   6   7
ATOM      7  C   UNL     1      -3.095  -0.973  24.714  0.00  0.00    -0.006 A 
ATOM      8  C   UNL     1      -3.103  -1.190  25.510  0.00  0.00    -0.001 A 
ATOM      9  C   UNL     1      -3.297  -1.962  25.725  0.00  0.00    +0.029 A 
ATOM     10  C   UNL     1      -3.483  -2.518  25.145  0.00  0.00    +0.140 A 
ATOM     11  F   UNL     1      -3.676  -3.290  25.360  0.00  0.00    -0.204 F 
ATOM     12  C   UNL     1      -3.474  -2.301  24.349  0.00  0.00    +0.029 A 
ATOM     13  C   UNL     1      -3.280  -1.529  24.133  0.00  0.00    -0.001 A 
ENDBRANCH   6   7
ENDBRANCH   5   6
TORSDOF 5
ENDMDL
MODEL 4
REMARK VINA RESULT:     -12.8      1.914      5.098
REMARK  Name = 
REMARK  5 active torsions:
REMARK  status: ('A' for Active; 'I' for Inactive)
REMARK    1  A    between atoms: C_4  and  C_15
REMARK    2  A    between atoms: N_5  and  C_6
REMARK    3  A    between atoms: C_6  and  C_7
REMARK    4  A    between atoms: C_17  and  C_18
REMARK    5  A    between atoms: C_18  and  C_19
REMARK                            x       y       z     vdW  Elec       q    Type
REMARK                         _______ _______ _______ _____ _____    ______ ____
ROOT
ATOM      1  O   UNL     1      -2.448   2.433  21.828  0.00  0.00    -0.222 OA
ATOM      2  C   UNL     1      -2.633   2.266  22.615  0.00  0.00    +0.170 C 
ATOM      3  C   UNL     1      -3.136   1.667  22.878  0.00  0.00    +0.060 C 
ATOM      4  C   UNL     1      -3.161   1.699  23.702  0.00  0.00    +0.140 C 
ATOM      5  N   UNL     1      -2.674   2.317  23.948  0.00  0.00    -0.260 NA
ATOM     14  C   UNL     1      -2.347   2.667  23.276  0.00  0.00    +0.106 C 
ENDROOT
BRANCH   4  15
ATOM     15  C   UNL     1      -3.597   1.200  24.194  0.00  0.00    +0.251 A 
ATOM     16  N   UNL     1      -3.320   0.513  24.556  0.00  0.00    -0.193 NA
ATOM     17  C   UNL     1      -3.940   0.190  24.995  0.00  0.00    +0.185 A 
ATOM     27  N   UNL     1      -4.599   0.677  24.905  0.00  0.00    -0.060 NA
ATOM     28  O   UNL     1      -4.387   1.302  24.410  0.00  0.00    -0.336 OA
BRANCH  17  18
ATOM     18  C   UNL     1      -3.905  -0.501  25.446  0.00  0.00    +0.096 C 
BRANCH  18  19
ATOM     19  C   UNL     1      -3.860  -1.235  25.073  0.00  0.00    -0.004 A 
ATOM     20  C   UNL     1      -4.230  -1.352  24.346  0.00  0.00    -0.001 A 
ATOM     21  C   UNL     1      -4.185  -2.087  23.973  0.00  0.00    +0.029 A 
ATOM     22  C   UNL     1      -3.769  -2.704  24.329  0.00  0.00    +0.141 A 
ATOM     23  F   UNL     1      -3.723  -3.439  23.957  0.00  0.00    -0.204 F 
ATOM     24  C   UNL     1      -3.398  -2.587  25.057  0.00  0.00    +0.041 A 
ATOM     25  C   UNL     1      -3.444  -1.853  25.428  0.00  0.00    +0.056 A 
ATOM     26 CL   UNL     1      -3.073  -1.735  26.157  0.00  0.00    -0.082 Cl
ENDBRANCH  18  19
ENDBRANCH  17  18
ENDBRANCH   4  15
BRANCH   5   6
ATOM      6  C   UNL     1      -2.536   2.546  24.729  0.00  0.00    +0.100 C 
BRANCH   6   7
ATOM      7  C   UNL     1      -2.148   3.256  24.889  0.00  0.00    -0.006 A 
ATOM      8  C   UNL     1      -2.582   3.948  25.003  0.00  0.00    -0.001 A 
ATOM      9  C   UNL     1      -2.194   4.657  25.163  0.00  0.00    +0.029 A 
ATOM     10  C   UNL     1      -1.370   4.676  25.210  0.00  0.00    +0.140 A 
ATOM     11  F   UNL     1      -0.981   5.385  25.370  0.00  0.00    -0.204 F 
ATOM     12  C   UNL     1      -0.935   3.984  25.096  0.00  0.00    +0.029 A 
ATOM     13  C   UNL     1      -1.324   3.273  24.935  0.00  0.00    -0.001 A 
ENDBRANCH   6   7
ENDBRANCH   5   6
TORSDOF 5
ENDMDL
MODEL 5
REMARK VINA RESULT:     -12.6      2.071      2.875
REMARK  Name = 
REMARK  5 active torsions:
REMARK  status: ('A' for Active; 'I' for Inactive)
REMARK    1  A    between atoms: C_4  and  C_15
REMARK    2  A    between atoms: N_5  and  C_6
REMARK    3  A    between atoms: C_6  and  C_7
REMARK    4  A    between atoms: C_17  and  C_18
REMARK    5  A    between atoms: C_18  and  C_19
REMARK                            x       y       z     vdW  Elec       q    Type
REMARK                         _______ _______ _______ _____ _____    ______ ____
ROOT
ATOM      1  O   UNL     1       0.055  -1.139  24.284  0.00  0.00    -0.222 OA
ATOM      2  C   UNL     1      -0.636  -0.710  24.424  0.00  0.00    +0.170 C 
ATOM      3  C   UNL     1      -0.705   0.112  24.425  0.00  0.00    +0.060 C 
ATOM      4  C   UNL     1      -1.491   0.302  24.590  0.00  0.00    +0.140 C 
ATOM      5  N   UNL     1      -1.907  -0.403  24.691  0.00  0.00    -0.260 NA
ATOM     14  C   UNL     1      -1.379  -1.029  24.589  0.00  0.00    +0.106 C 
ENDROOT
BRANCH   4  15
ATOM     15  C   UNL     1      -1.805   1.063  24.645  0.00  0.00    +0.251 A 
ATOM     16  N   UNL     1      -1.753   1.563  25.299  0.00  0.00    -0.193 NA
ATOM     17  C   UNL     1      -2.142   2.266  25.112  0.00  0.00    +0.185 A 
ATOM     27  N   UNL     1      -2.434   2.201  24.344  0.00  0.00    -0.060 NA
ATOM     28  O   UNL     1      -2.226   1.457  24.055  0.00  0.00    -0.336 OA
BRANCH  17  18
ATOM     18  C   UNL     1      -2.224   2.921  25.608  0.00  0.00    +0.096 C 
BRANCH  18  19
ATOM     19  C   UNL     1      -1.849   3.631  25.419  0.00  0.00    -0.004 A 
ATOM     20  C   UNL     1      -1.089   3.624  25.102  0.00  0.00    -0.001 A 
ATOM     21  C   UNL     1      -0.714   4.335  24.913  0.00  0.00    +0.029 A 
ATOM     22  C   UNL     1      -1.101   5.052  25.042  0.00  0.00    +0.141 A 
ATOM     23  F   UNL     1      -0.728   5.763  24.854  0.00  0.00    -0.204 F 
ATOM     24  C   UNL     1      -1.863   5.058  25.360  0.00  0.00    +0.041 A 
ATOM     25  C   UNL     1      -2.236   4.348  25.548  0.00  0.00    +0.056 A 
ATOM     26 CL   UNL     1      -2.998   4.355  25.866  0.00  0.00    -0.082 Cl
ENDBRANCH  18  19
ENDBRANCH  17  18
ENDBRANCH   4  15
BRANCH   5   6
ATOM      6  C   UNL     1      -2.711  -0.471  24.864  0.00  0.00    +0.100 C 
BRANCH   6   7
ATOM      7  C   UNL     1      -3.112  -1.172  24.693  0.00  0.00    -0.006 A 
ATOM      8  C   UNL     1      -3.068  -1.811  25.213  0.00  0.00    -0.001 A 
ATOM      9  C   UNL     1      -3.469  -2.510  25.042  0.00  0.00    +0.029 A 
ATOM     10  C   UNL     1      -3.916  -2.572  24.350  0.00  0.00    +0.140 A 
ATOM     11  F   UNL     1      -4.317  -3.271  24.179  0.00  0.00    -0.204 F 
ATOM     12  C   UNL     1      -3.960  -1.933  23.830  0.00  0.00    +0.029 A 
ATOM     13  C   UNL     1      -3.558  -1.232  24.002  0.00  0.00    -0.001 A 
ENDBRANCH   6   7
ENDBRANCH   5   6
TORSDOF 5
ENDMDL
MODEL 6
REMARK VINA RESULT:     -12.2      2.483      4.942
REMARK  Name = 
REMARK  5 active torsions:
REMARK  status: ('A' for Active; 'I' for Inactive)
REMARK    1  A    between atoms: C_4  and  C_15
REMARK    2  A    between atoms: N_5  and  C_6
REMARK    3  A    between atoms: C_6  and  C_7
REMARK    4  A    between atoms: C_17  and  C_18
REMARK    5  A    between atoms: C_18  and  C_19
REMARK                            x       y       z     vdW  Elec       q    Type
REMARK                         _______ _______ _______ _____ _____    ______ ____
ROOT
ATOM      1  O   UNL     1      -0.922   3.559  25.926  0.00  0.00    -0.222 OA
ATOM      2  C   UNL     1      -1.400   2.984  25.576  0.00  0.00    +0.170 C 
ATOM      3  C   UNL     1      -1.182   2.204  25.417  0.00  0.00    +0.060 C 
ATOM      4  C   UNL     1      -1.827   1.827  25.065  0.00  0.00    +0.140 C 
ATOM      5  N   UNL     1      -2.442   2.373  25.008  0.00  0.00    -0.260 NA
ATOM     14  C   UNL     1      -2.178   3.089  25.323  0.00  0.00    +0.106 C 
ENDROOT
BRANCH   4  15
ATOM     15  C   UNL     1      -1.851   1.041  24.816  0.00  0.00    +0.251 A 
ATOM     16  N   UNL     1      -2.074   0.393  25.275  0.00  0.00    -0.193 NA
ATOM     17  C   UNL     1      -2.017  -0.283  24.806  0.00  0.00    +0.185 A 
ATOM     27  N   UNL     1      -1.760  -0.053  24.057  0.00  0.00    -0.060 NA
ATOM     28  O   UNL     1      -1.657   0.765  24.063  0.00  0.00    -0.336 OA
BRANCH  17  18
ATOM     18  C   UNL     1      -2.188  -1.054  25.044  0.00  0.00    +0.096 C 
BRANCH  18  19
ATOM     19  C   UNL     1      -2.818  -1.462  24.702  0.00  0.00    -0.004 A 
ATOM     20  C   UNL     1      -3.532  -1.075  24.562  0.00  0.00    -0.001 A 
ATOM     21  C   UNL     1      -4.162  -1.483  24.220  0.00  0.00    +0.029 A 
ATOM     22  C   UNL     1      -4.078  -2.278  24.018  0.00  0.00    +0.141 A 
ATOM     23  F   UNL     1      -4.707  -2.687  23.676  0.00  0.00    -0.204 F 
ATOM     24  C   UNL     1      -3.362  -2.666  24.158  0.00  0.00    +0.041 A 
ATOM     25  C   UNL     1      -2.733  -2.258  24.500  0.00  0.00    +0.056 A 
ATOM     26 CL   UNL     1      -2.018  -2.645  24.640  0.00  0.00    -0.082 Cl
ENDBRANCH  18  19
ENDBRANCH  17  18
ENDBRANCH   4  15
BRANCH   5   6
ATOM      6  C   UNL     1      -3.190   2.230  24.690  0.00  0.00    +0.100 C 
BRANCH   6   7
ATOM      7  C   UNL     1      -3.824   2.718  24.892  0.00  0.00    -0.006 A 
ATOM      8  C   UNL     1      -4.320   2.513  25.519  0.00  0.00    -0.001 A 
ATOM      9  C   UNL     1      -4.954   3.000  25.720  0.00  0.00    +0.029 A 
ATOM     10  C   UNL     1      -5.093   3.693  25.294  0.00  0.00    +0.140 A 
ATOM     11  F   UNL     1      -5.727   4.181  25.496  0.00  0.00    -0.204 F 
ATOM     12  C   UNL     1      -4.598   3.899  24.668  0.00  0.00    +0.029 A 
ATOM     13  C   UNL     1      -3.963   3.411  24.466  0.00  0.00    -0.001 A 
ENDBRANCH   6   7
ENDBRANCH   5   6
TORSDOF 5
ENDMDL
MODEL 7
REMARK VINA RESULT:     -12.2      2.305      3.979
REMARK  Name = 
REMARK  5 active torsions:
REMARK  status: ('A' for Active; 'I' for Inactive)
REMARK    1  A    between atoms: C_4  and  C_15
REMARK    2  A    between atoms: N_5  and  C_6
REMARK    3  A    between atoms: C_6  and  C_7
REMARK    4  A    between atoms: C_17  and  C_18
REMARK    5  A    between atoms: C_18  and  C_19
REMARK                            x       y       z     vdW  Elec       q    Type
REMARK                         _______ _______ _______ _____ _____    ______ ____
ROOT
ATOM      1  O   UNL     1       0.522   2.574  26.233  0.00  0.00    -0.222 OA
ATOM      2  C   UNL     1      -0.151   2.355  25.810  0.00  0.00    +0.170 C 
ATOM      3  C   UNL     1      -0.736   2.866  25.528  0.00  0.00    +0.060 C 
ATOM      4  C   UNL     1      -1.304   2.413  25.138  0.00  0.00    +0.140 C 
ATOM      5  N   UNL     1      -1.072   1.622  25.178  0.00  0.00    -0.260 NA
ATOM     14  C   UNL     1      -0.359   1.587  25.593  0.00  0.00    +0.106 C 
ENDROOT
BRANCH   4  15
ATOM     15  C   UNL     1      -1.985   2.700  24.772  0.00  0.00    +0.251 A 
ATOM     16  N   UNL     1      -2.661   2.978  25.155  0.00  0.00    -0.193 NA
ATOM     17  C   UNL     1      -3.203   3.209  24.577  0.00  0.00    +0.185 A 
ATOM     27  N   UNL     1      -2.863   3.075  23.838  0.00  0.00    -0.060 NA
ATOM     28  O   UNL     1      -2.110   2.761  23.958  0.00  0.00    -0.336 OA
BRANCH  17  18
ATOM     18  C   UNL     1      -3.955   3.521  24.716  0.00  0.00    +0.096 C 
BRANCH  18  19
ATOM     19  C   UNL     1      -4.585   3.017  24.889  0.00  0.00    -0.004 A 
ATOM     20  C   UNL     1      -4.640   2.283  24.518  0.00  0.00    -0.001 A 
ATOM     21  C   UNL     1      -5.270   1.780  24.691  0.00  0.00    +0.029 A 
ATOM     22  C   UNL     1      -5.845   2.011  25.235  0.00  0.00    +0.141 A 
ATOM     23  F   UNL     1      -6.475   1.508  25.409  0.00  0.00    -0.204 F 
ATOM     24  C   UNL     1      -5.790   2.746  25.607  0.00  0.00    +0.041 A 
ATOM     25  C   UNL     1      -5.160   3.249  25.433  0.00  0.00    +0.056 A 
ATOM     26 CL   UNL     1      -5.105   3.984  25.804  0.00  0.00    -0.082 Cl
ENDBRANCH  18  19
ENDBRANCH  17  18
ENDBRANCH   4  15
BRANCH   5   6
ATOM      6  C   UNL     1      -1.479   0.980  24.859  0.00  0.00    +0.100 C 
BRANCH   6   7
ATOM      7  C   UNL     1      -1.217   0.211  25.004  0.00  0.00    -0.006 A 
ATOM      8  C   UNL     1      -0.684  -0.148  24.488  0.00  0.00    -0.001 A 
ATOM      9  C   UNL     1      -0.422  -0.916  24.633  0.00  0.00    +0.029 A 
ATOM     10  C   UNL     1      -0.694  -1.327  25.296  0.00  0.00    +0.140 A 
ATOM     11  F   UNL     1      -0.433  -2.095  25.441  0.00  0.00    -0.204 F 
ATOM     12  C   UNL     1      -1.227  -0.967  25.812  0.00  0.00    +0.029 A 
ATOM     13  C   UNL     1      -1.489  -0.198  25.667  0.00  0.00    -0.001 A 
ENDBRANCH   6   7
ENDBRANCH   5   6
TORSDOF 5
ENDMDL
