REMARK  Name = 
REMARK  8 active torsions:
REMARK  status: ('A' for Active; 'I' for Inactive)
REMARK    1  A    between atoms: C_2  and  C_3
REMARK    2  A    between atoms: C_8  and  C_9
REMARK    3  A    between atoms: C_9  and  C_10
REMARK    4  A    between atoms: N_12  and  C_13
REMARK    5  A    between atoms: C_13  and  C_14
REMARK    6  A    between atoms: C_14  and  N_15
REMARK    7  A    between atoms: N_23  and  C_24
REMARK    8  A    between atoms: C_28  and  O_29
REMARK                            x       y       z     vdW  Elec       q    Type
REMARK                         _______ _______ _______ _____ _____    ______ ____
ROOT
ATOM      3  C   UNL     1      -1.429  -4.950   0.000  0.00  0.00    +0.020 C 
ATOM      4  C   UNL     1      -2.143  -4.537   0.000  0.00  0.00    +0.095 C 
ATOM      5  N   UNL     1      -2.143  -3.712   0.000  0.00  0.00    -0.263 N 
ATOM      6  C   UNL     1      -1.429  -3.300   0.000  0.00  0.00    +0.095 C 
ATOM      7  C   UNL     1      -0.715  -3.712   0.000  0.00  0.00    +0.022 C 
ATOM      8  C   UNL     1      -0.715  -4.537   0.000  0.00  0.00    +0.012 C 
ATOM     21  C   UNL     1      -2.858  -3.300   0.000  0.00  0.00    +0.327 C 
ATOM     22  O   UNL     1      -3.572  -3.712   0.000  0.00  0.00    -0.250 OA
ATOM     23  N   UNL     1      -2.858  -2.475   0.000  0.00  0.00    -0.162 NA
ENDROOT
BRANCH  23  24
ATOM     24  C   UNL     1      -3.572  -2.062   0.000  0.00  0.00    +0.078 A 
ATOM     25  C   UNL     1      -4.287  -2.475   0.000  0.00  0.00    +0.017 A 
ATOM     26  C   UNL     1      -5.001  -2.062   0.000  0.00  0.00    +0.004 A 
ATOM     27  C   UNL     1      -5.001  -1.238   0.000  0.00  0.00    +0.037 A 
ATOM     28  C   UNL     1      -4.287  -0.825   0.000  0.00  0.00    +0.140 A 
ATOM     31  C   UNL     1      -3.572  -1.238   0.000  0.00  0.00    +0.054 A 
BRANCH  28  29
ATOM     29  O   UNL     1      -4.287   0.000   0.000  0.00  0.00    -0.471 OA
ATOM     30  C   UNL     1      -5.001   0.412   0.000  0.00  0.00    +0.252 C 
ENDBRANCH  28  29
ENDBRANCH  23  24
BRANCH   3   2
ATOM      1  C   UNL     1      -0.715  -6.188   0.000  0.00  0.00    +0.000 C 
ATOM      2  C   UNL     1      -1.429  -5.775   0.000  0.00  0.00    +0.002 C 
ENDBRANCH   3   2
BRANCH   8   9
ATOM      9  C   UNL     1       0.000  -4.950   0.000  0.00  0.00    +0.087 C 
BRANCH   9  10
ATOM     10  C   UNL     1       0.715  -4.537   0.000  0.00  0.00    +0.241 C 
ATOM     11  O   UNL     1       0.715  -3.712   0.000  0.00  0.00    -0.273 OA
ATOM     12  N   UNL     1       1.429  -4.950   0.000  0.00  0.00    -0.204 NA
BRANCH  12  13
ATOM     13  C   UNL     1       2.143  -4.537   0.000  0.00  0.00    +0.132 C 
BRANCH  13  14
ATOM     14  C   UNL     1       2.858  -4.950   0.000  0.00  0.00    +0.096 C 
BRANCH  14  15
ATOM     15  N   UNL     1       3.572  -4.537   0.000  0.00  0.00    -0.267 NA
ATOM     16  C   UNL     1       3.572  -3.712   0.000  0.00  0.00    +0.105 C 
ATOM     17  C   UNL     1       4.287  -3.300   0.000  0.00  0.00    +0.159 C 
ATOM     18  O   UNL     1       5.001  -3.712   0.000  0.00  0.00    -0.351 OA
ATOM     19  C   UNL     1       5.001  -4.537   0.000  0.00  0.00    +0.159 C 
ATOM     20  C   UNL     1       4.287  -4.950   0.000  0.00  0.00    +0.105 C 
ENDBRANCH  14  15
ENDBRANCH  13  14
ENDBRANCH  12  13
ENDBRANCH   9  10
ENDBRANCH   8   9
TORSDOF 8
