MODEL 1
REMARK VINA RESULT:      -8.9      0.000      0.000
REMARK  Name = 
REMARK  8 active torsions:
REMARK  status: ('A' for Active; 'I' for Inactive)
REMARK    1  A    between atoms: O_2  and  C_3
REMARK    2  A    between atoms: C_6  and  C_7
REMARK    3  A    between atoms: C_7  and  N_8
REMARK    4  A    between atoms: C_9  and  C_11
REMARK    5  A    between atoms: C_11  and  C_12
REMARK    6  A    between atoms: C_12  and  C_13
REMARK    7  A    between atoms: N_22  and  C_23
REMARK    8  A    between atoms: C_23  and  C_24
REMARK                            x       y       z     vdW  Elec       q    Type
REMARK                         _______ _______ _______ _____ _____    ______ ____
ROOT
ATOM     13  C   UNL     1      -1.096   0.919  23.923  0.00  0.00    +0.080 C 
ATOM     14  C   UNL     1      -1.025   1.697  23.660  0.00  0.00    +0.131 C 
ATOM     15  N   UNL     1      -1.577   2.309  23.709  0.00  0.00    -0.203 NA
ATOM     16  C   UNL     1      -2.335   2.293  24.034  0.00  0.00    +0.257 C 
ATOM     17  O   UNL     1      -2.755   3.002  23.999  0.00  0.00    -0.272 OA
ATOM     18  C   UNL     1      -2.729   1.661  24.389  0.00  0.00    +0.151 C 
ATOM     19  C   UNL     1      -2.463   0.889  24.508  0.00  0.00    +0.083 C 
ATOM     20  C   UNL     1      -3.062   0.468  24.886  0.00  0.00    +0.035 C 
ATOM     21  C   UNL     1      -3.699   0.979  25.002  0.00  0.00    +0.074 C 
ATOM     22  N   UNL     1      -3.494   1.717  24.695  0.00  0.00    -0.261 NA
ATOM     29  N   UNL     1      -1.736   0.559  24.300  0.00  0.00    -0.271 NA
ATOM     30  C   UNL     1      -1.636  -0.236  24.496  0.00  0.00    +0.090 C 
ENDROOT
BRANCH  13  12
ATOM     12  C   UNL     1      -0.440   0.435  23.791  0.00  0.00    +0.027 C 
BRANCH  12  11
ATOM     11  C   UNL     1       0.252   0.756  23.479  0.00  0.00    +0.088 C 
BRANCH  11   9
ATOM      8  N   UNL     1       1.601   0.472  23.103  0.00  0.00    -0.201 NA
ATOM      9  C   UNL     1       0.802   0.266  23.107  0.00  0.00    +0.242 C 
ATOM     10  O   UNL     1       0.553  -0.429  22.739  0.00  0.00    -0.273 OA
BRANCH   8   7
ATOM      7  C   UNL     1       2.151  -0.018  22.731  0.00  0.00    +0.141 C 
BRANCH   7   6
ATOM      3  C   UNL     1       4.573   0.339  23.100  0.00  0.00    +0.139 A 
ATOM      4  C   UNL     1       4.216  -0.362  23.348  0.00  0.00    +0.037 A 
ATOM      5  C   UNL     1       3.410  -0.481  23.226  0.00  0.00    +0.001 A 
ATOM      6  C   UNL     1       2.959   0.101  22.854  0.00  0.00    -0.000 A 
ATOM     31  C   UNL     1       3.314   0.803  22.605  0.00  0.00    +0.001 A 
ATOM     32  C   UNL     1       4.122   0.922  22.728  0.00  0.00    +0.037 A 
BRANCH   3   2
ATOM      1  C   UNL     1       5.753   0.119  23.875  0.00  0.00    +0.252 C 
ATOM      2  O   UNL     1       5.380   0.458  23.222  0.00  0.00    -0.471 OA
ENDBRANCH   3   2
ENDBRANCH   7   6
ENDBRANCH   8   7
ENDBRANCH  11   9
ENDBRANCH  12  11
ENDBRANCH  13  12
BRANCH  22  23
ATOM     23  C   UNL     1      -3.969   2.391  24.693  0.00  0.00    +0.106 C 
BRANCH  23  24
ATOM     24  C   UNL     1      -4.731   2.359  25.008  0.00  0.00    +0.023 A 
ATOM     25  C   UNL     1      -5.374   1.959  24.682  0.00  0.00    +0.004 A 
ATOM     26  C   UNL     1      -6.024   2.075  25.177  0.00  0.00    +0.007 A 
ATOM     27  C   UNL     1      -5.782   2.548  25.809  0.00  0.00    +0.035 A 
ATOM     28  S   UNL     1      -4.983   2.723  25.704  0.00  0.00    -0.089 S 
ENDBRANCH  23  24
ENDBRANCH  22  23
TORSDOF 8
ENDMDL
MODEL 2
REMARK VINA RESULT:      -6.8      2.192      7.087
REMARK  Name = 
REMARK  8 active torsions:
REMARK  status: ('A' for Active; 'I' for Inactive)
REMARK    1  A    between atoms: O_2  and  C_3
REMARK    2  A    between atoms: C_6  and  C_7
REMARK    3  A    between atoms: C_7  and  N_8
REMARK    4  A    between atoms: C_9  and  C_11
REMARK    5  A    between atoms: C_11  and  C_12
REMARK    6  A    between atoms: C_12  and  C_13
REMARK    7  A    between atoms: N_22  and  C_23
REMARK    8  A    between atoms: C_23  and  C_24
REMARK                            x       y       z     vdW  Elec       q    Type
REMARK                         _______ _______ _______ _____ _____    ______ ____
ROOT
ATOM     13  C   UNL     1      -0.531   0.302  24.085  0.00  0.00    +0.080 C 
ATOM     14  C   UNL     1      -0.376   1.054  24.385  0.00  0.00    +0.131 C 
ATOM     15  N   UNL     1       0.306   1.511  24.301  0.00  0.00    -0.203 NA
ATOM     16  C   UNL     1       1.002   1.328  23.896  0.00  0.00    +0.257 C 
ATOM     17  O   UNL     1       1.590   1.905  23.915  0.00  0.00    -0.272 OA
ATOM     18  C   UNL     1       1.186   0.642  23.476  0.00  0.00    +0.151 C 
ATOM     19  C   UNL     1       0.721  -0.029  23.355  0.00  0.00    +0.083 C 
ATOM     20  C   UNL     1       1.154  -0.561  22.898  0.00  0.00    +0.035 C 
ATOM     21  C   UNL     1       1.887  -0.219  22.735  0.00  0.00    +0.074 C 
ATOM     22  N   UNL     1       1.907   0.525  23.092  0.00  0.00    -0.261 NA
ATOM     29  N   UNL     1      -0.043  -0.180  23.626  0.00  0.00    -0.271 NA
ATOM     30  C   UNL     1      -0.361  -0.910  23.411  0.00  0.00    +0.090 C 
ENDROOT
BRANCH  13  12
ATOM     12  C   UNL     1      -1.274  -0.010  24.267  0.00  0.00    +0.027 C 
BRANCH  12  11
ATOM     11  C   UNL     1      -1.753   0.365  24.824  0.00  0.00    +0.088 C 
BRANCH  11   9
ATOM      8  N   UNL     1      -3.084   0.884  24.829  0.00  0.00    -0.201 NA
ATOM      9  C   UNL     1      -2.568   0.240  24.817  0.00  0.00    +0.242 C 
ATOM     10  O   UNL     1      -2.867  -0.529  24.797  0.00  0.00    -0.273 OA
BRANCH   8   7
ATOM      7  C   UNL     1      -3.900   0.758  24.822  0.00  0.00    +0.141 C 
BRANCH   7   6
ATOM      3  C   UNL     1      -5.445   2.654  25.206  0.00  0.00    +0.139 A 
ATOM      4  C   UNL     1      -5.579   1.929  25.577  0.00  0.00    +0.037 A 
ATOM      5  C   UNL     1      -5.065   1.298  25.450  0.00  0.00    +0.001 A 
ATOM      6  C   UNL     1      -4.415   1.390  24.950  0.00  0.00    -0.000 A 
ATOM     31  C   UNL     1      -4.280   2.114  24.578  0.00  0.00    +0.001 A 
ATOM     32  C   UNL     1      -4.795   2.746  24.706  0.00  0.00    +0.037 A 
BRANCH   3   2
ATOM      1  C   UNL     1      -5.669   4.005  25.613  0.00  0.00    +0.252 C 
ATOM      2  O   UNL     1      -5.960   3.285  25.333  0.00  0.00    -0.471 OA
ENDBRANCH   3   2
ENDBRANCH   7   6
ENDBRANCH   8   7
ENDBRANCH  11   9
ENDBRANCH  12  11
ENDBRANCH  13  12
BRANCH  22  23
ATOM     23  C   UNL     1       2.537   1.057  23.069  0.00  0.00    +0.106 C 
BRANCH  23  24
ATOM     24  C   UNL     1       3.298   0.789  22.896  0.00  0.00    +0.023 A 
ATOM     25  C   UNL     1       3.851   0.515  23.443  0.00  0.00    +0.004 A 
ATOM     26  C   UNL     1       4.534   0.305  23.030  0.00  0.00    +0.007 A 
ATOM     27  C   UNL     1       4.402   0.450  22.229  0.00  0.00    +0.035 A 
ATOM     28  S   UNL     1       3.638   0.749  22.146  0.00  0.00    -0.089 S 
ENDBRANCH  23  24
ENDBRANCH  22  23
TORSDOF 8
ENDMDL
MODEL 3
REMARK VINA RESULT:      -6.6     14.957     15.620
REMARK  Name = 
REMARK  8 active torsions:
REMARK  status: ('A' for Active; 'I' for Inactive)
REMARK    1  A    between atoms: O_2  and  C_3
REMARK    2  A    between atoms: C_6  and  C_7
REMARK    3  A    between atoms: C_7  and  N_8
REMARK    4  A    between atoms: C_9  and  C_11
REMARK    5  A    between atoms: C_11  and  C_12
REMARK    6  A    between atoms: C_12  and  C_13
REMARK    7  A    between atoms: N_22  and  C_23
REMARK    8  A    between atoms: C_23  and  C_24
REMARK                            x       y       z     vdW  Elec       q    Type
REMARK                         _______ _______ _______ _____ _____    ______ ____
ROOT
ATOM     13  C   UNL     1      -6.235 -10.056  14.096  0.00  0.00    +0.080 C 
ATOM     14  C   UNL     1      -5.692  -9.963  14.709  0.00  0.00    +0.131 C 
ATOM     15  N   UNL     1      -5.838  -9.817  15.509  0.00  0.00    -0.203 NA
ATOM     16  C   UNL     1      -6.564  -9.730  15.891  0.00  0.00    +0.257 C 
ATOM     17  O   UNL     1      -6.527  -9.587  16.702  0.00  0.00    -0.272 OA
ATOM     18  C   UNL     1      -7.323  -9.766  15.568  0.00  0.00    +0.151 C 
ATOM     19  C   UNL     1      -7.543  -9.899  14.784  0.00  0.00    +0.083 C 
ATOM     20  C   UNL     1      -8.367  -9.883  14.744  0.00  0.00    +0.035 C 
ATOM     21  C   UNL     1      -8.656  -9.741  15.504  0.00  0.00    +0.074 C 
ATOM     22  N   UNL     1      -8.011  -9.668  16.013  0.00  0.00    -0.261 NA
ATOM     29  N   UNL     1      -7.059 -10.028  14.129  0.00  0.00    -0.271 NA
ATOM     30  C   UNL     1      -7.451 -10.144  13.412  0.00  0.00    +0.090 C 
ENDROOT
BRANCH  13  12
ATOM     12  C   UNL     1      -5.911 -10.197  13.349  0.00  0.00    +0.027 C 
BRANCH  12  11
ATOM     11  C   UNL     1      -5.113 -10.392  13.277  0.00  0.00    +0.088 C 
BRANCH  11   9
ATOM      8  N   UNL     1      -3.989 -10.281  12.402  0.00  0.00    -0.201 NA
ATOM      9  C   UNL     1      -4.779 -10.485  12.528  0.00  0.00    +0.242 C 
ATOM     10  O   UNL     1      -5.233 -10.781  11.907  0.00  0.00    -0.273 OA
BRANCH   8   7
ATOM      7  C   UNL     1      -3.655 -10.374  11.653  0.00  0.00    +0.141 C 
BRANCH   7   6
ATOM      3  C   UNL     1      -1.366  -9.539  11.210  0.00  0.00    +0.139 A 
ATOM      4  C   UNL     1      -1.497 -10.083  11.817  0.00  0.00    +0.037 A 
ATOM      5  C   UNL     1      -2.259 -10.361  11.965  0.00  0.00    +0.001 A 
ATOM      6  C   UNL     1      -2.891 -10.096  11.506  0.00  0.00    -0.000 A 
ATOM     31  C   UNL     1      -2.762  -9.553  10.898  0.00  0.00    +0.001 A 
ATOM     32  C   UNL     1      -1.999  -9.274  10.750  0.00  0.00    +0.037 A 
BRANCH   3   2
ATOM      1  C   UNL     1      -0.312  -8.613  11.481  0.00  0.00    +0.252 C 
ATOM      2  O   UNL     1      -0.605  -9.261  11.062  0.00  0.00    -0.471 OA
ENDBRANCH   3   2
ENDBRANCH   7   6
ENDBRANCH   8   7
ENDBRANCH  11   9
ENDBRANCH  12  11
ENDBRANCH  13  12
BRANCH  22  23
ATOM     23  C   UNL     1      -8.047  -9.524  16.825  0.00  0.00    +0.106 C 
BRANCH  23  24
ATOM     24  C   UNL     1      -8.759  -9.289  17.171  0.00  0.00    +0.023 A 
ATOM     25  C   UNL     1      -9.079  -8.530  17.152  0.00  0.00    +0.004 A 
ATOM     26  C   UNL     1      -9.793  -8.544  17.566  0.00  0.00    +0.007 A 
ATOM     27  C   UNL     1      -9.913  -9.314  17.840  0.00  0.00    +0.035 A 
ATOM     28  S   UNL     1      -9.274  -9.774  17.595  0.00  0.00    -0.089 S 
ENDBRANCH  23  24
ENDBRANCH  22  23
TORSDOF 8
ENDMDL
MODEL 4
REMARK VINA RESULT:      -6.5      2.590      4.028
REMARK  Name = 
REMARK  8 active torsions:
REMARK  status: ('A' for Active; 'I' for Inactive)
REMARK    1  A    between atoms: O_2  and  C_3
REMARK    2  A    between atoms: C_6  and  C_7
REMARK    3  A    between atoms: C_7  and  N_8
REMARK    4  A    between atoms: C_9  and  C_11
REMARK    5  A    between atoms: C_11  and  C_12
REMARK    6  A    between atoms: C_12  and  C_13
REMARK    7  A    between atoms: N_22  and  C_23
REMARK    8  A    between atoms: C_23  and  C_24
REMARK                            x       y       z     vdW  Elec       q    Type
REMARK                         _______ _______ _______ _____ _____    ______ ____
ROOT
ATOM     13  C   UNL     1      -1.211   2.030  24.249  0.00  0.00    +0.080 C 
ATOM     14  C   UNL     1      -0.988   2.322  24.987  0.00  0.00    +0.131 C 
ATOM     15  N   UNL     1      -1.422   2.795  25.506  0.00  0.00    -0.203 NA
ATOM     16  C   UNL     1      -2.186   3.093  25.414  0.00  0.00    +0.257 C 
ATOM     17  O   UNL     1      -2.469   3.553  26.038  0.00  0.00    -0.272 OA
ATOM     18  C   UNL     1      -2.705   2.990  24.781  0.00  0.00    +0.151 C 
ATOM     19  C   UNL     1      -2.588   2.566  24.083  0.00  0.00    +0.083 C 
ATOM     20  C   UNL     1      -3.272   2.632  23.626  0.00  0.00    +0.035 C 
ATOM     21  C   UNL     1      -3.811   3.098  24.042  0.00  0.00    +0.074 C 
ATOM     22  N   UNL     1      -3.461   3.320  24.755  0.00  0.00    -0.261 NA
ATOM     29  N   UNL     1      -1.924   2.139  23.846  0.00  0.00    -0.271 NA
ATOM     30  C   UNL     1      -1.978   1.771  23.110  0.00  0.00    +0.090 C 
ENDROOT
BRANCH  13  12
ATOM     12  C   UNL     1      -0.647   1.568  23.861  0.00  0.00    +0.027 C 
BRANCH  12  11
ATOM     11  C   UNL     1      -0.133   1.093  24.298  0.00  0.00    +0.088 C 
BRANCH  11   9
ATOM      8  N   UNL     1      -0.557  -0.240  24.588  0.00  0.00    -0.201 NA
ATOM      9  C   UNL     1      -0.094   0.283  24.148  0.00  0.00    +0.242 C 
ATOM     10  O   UNL     1       0.408  -0.004  23.560  0.00  0.00    -0.273 OA
BRANCH   8   7
ATOM      7  C   UNL     1      -0.518  -1.050  24.438  0.00  0.00    +0.141 C 
BRANCH   7   6
ATOM      3  C   UNL     1      -2.512  -2.472  24.801  0.00  0.00    +0.139 A 
ATOM      4  C   UNL     1      -2.379  -1.816  25.284  0.00  0.00    +0.037 A 
ATOM      5  C   UNL     1      -1.715  -1.343  25.163  0.00  0.00    +0.001 A 
ATOM      6  C   UNL     1      -1.183  -1.524  24.559  0.00  0.00    -0.000 A 
ATOM     31  C   UNL     1      -1.315  -2.180  24.076  0.00  0.00    +0.001 A 
ATOM     32  C   UNL     1      -1.980  -2.654  24.197  0.00  0.00    +0.037 A 
BRANCH   3   2
ATOM      1  C   UNL     1      -3.824  -2.886  24.414  0.00  0.00    +0.252 C 
ATOM      2  O   UNL     1      -3.176  -2.946  24.922  0.00  0.00    -0.471 OA
ENDBRANCH   3   2
ENDBRANCH   7   6
ENDBRANCH   8   7
ENDBRANCH  11   9
ENDBRANCH  12  11
ENDBRANCH  13  12
BRANCH  22  23
ATOM     23  C   UNL     1      -3.806   3.788  25.340  0.00  0.00    +0.106 C 
BRANCH  23  24
ATOM     24  C   UNL     1      -4.625   3.784  25.442  0.00  0.00    +0.023 A 
ATOM     25  C   UNL     1      -5.139   4.400  25.253  0.00  0.00    +0.004 A 
ATOM     26  C   UNL     1      -5.906   4.161  25.444  0.00  0.00    +0.007 A 
ATOM     27  C   UNL     1      -5.864   3.396  25.752  0.00  0.00    +0.035 A 
ATOM     28  S   UNL     1      -5.073   3.164  25.751  0.00  0.00    -0.089 S 
ENDBRANCH  23  24
ENDBRANCH  22  23
TORSDOF 8
ENDMDL
MODEL 5
REMARK VINA RESULT:      -6.5      3.080      5.866
REMARK  Name = 
REMARK  8 active torsions:
REMARK  status: ('A' for Active; 'I' for Inactive)
REMARK    1  A    between atoms: O_2  and  C_3
REMARK    2  A    between atoms: C_6  and  C_7
REMARK    3  A    between atoms: C_7  and  N_8
REMARK    4  A    between atoms: C_9  and  C_11
REMARK    5  A    between atoms: C_11  and  C_12
REMARK    6  A    between atoms: C_12  and  C_13
REMARK    7  A    between atoms: N_22  and  C_23
REMARK    8  A    between atoms: C_23  and  C_24
REMARK                            x       y       z     vdW  Elec       q    Type
REMARK                         _______ _______ _______ _____ _____    ______ ____
ROOT
ATOM     13  C   UNL     1      -0.336   1.418  24.888  0.00  0.00    +0.080 C 
ATOM     14  C   UNL     1      -0.163   1.251  24.100  0.00  0.00    +0.131 C 
ATOM     15  N   UNL     1      -0.313   0.559  23.675  0.00  0.00    -0.203 NA
ATOM     16  C   UNL     1      -0.673  -0.136  23.935  0.00  0.00    +0.257 C 
ATOM     17  O   UNL     1      -0.743  -0.735  23.373  0.00  0.00    -0.272 OA
ATOM     18  C   UNL     1      -0.972  -0.311  24.684  0.00  0.00    +0.151 C 
ATOM     19  C   UNL     1      -0.985   0.166  25.358  0.00  0.00    +0.083 C 
ATOM     20  C   UNL     1      -1.343  -0.261  25.966  0.00  0.00    +0.035 C 
ATOM     21  C   UNL     1      -1.552  -1.002  25.669  0.00  0.00    +0.074 C 
ATOM     22  N   UNL     1      -1.322  -1.033  24.876  0.00  0.00    -0.261 NA
ATOM     29  N   UNL     1      -0.702   0.935  25.448  0.00  0.00    -0.271 NA
ATOM     30  C   UNL     1      -0.798   1.265  26.199  0.00  0.00    +0.090 C 
ENDROOT
BRANCH  13  12
ATOM     12  C   UNL     1      -0.114   2.168  25.153  0.00  0.00    +0.027 C 
BRANCH  12  11
ATOM     11  C   UNL     1      -0.242   2.828  24.674  0.00  0.00    +0.088 C 
BRANCH  11   9
ATOM      8  N   UNL     1      -1.491   3.504  24.831  0.00  0.00    -0.201 NA
ATOM      9  C   UNL     1      -0.676   3.467  24.963  0.00  0.00    +0.242 C 
ATOM     10  O   UNL     1      -0.298   4.068  25.382  0.00  0.00    -0.273 OA
BRANCH   8   7
ATOM      7  C   UNL     1      -1.925   4.143  25.119  0.00  0.00    +0.141 C 
BRANCH   7   6
ATOM      3  C   UNL     1      -4.371   3.931  25.439  0.00  0.00    +0.139 A 
ATOM      4  C   UNL     1      -3.882   4.088  26.085  0.00  0.00    +0.037 A 
ATOM      5  C   UNL     1      -3.068   4.159  25.979  0.00  0.00    +0.001 A 
ATOM      6  C   UNL     1      -2.741   4.072  25.226  0.00  0.00    -0.000 A 
ATOM     31  C   UNL     1      -3.229   3.915  24.580  0.00  0.00    +0.001 A 
ATOM     32  C   UNL     1      -4.044   3.844  24.686  0.00  0.00    +0.037 A 
BRANCH   3   2
ATOM      1  C   UNL     1      -5.531   3.113  25.602  0.00  0.00    +0.252 C 
ATOM      2  O   UNL     1      -5.185   3.860  25.545  0.00  0.00    -0.471 OA
ENDBRANCH   3   2
ENDBRANCH   7   6
ENDBRANCH   8   7
ENDBRANCH  11   9
ENDBRANCH  12  11
ENDBRANCH  13  12
BRANCH  22  23
ATOM     23  C   UNL     1      -1.425  -1.673  24.366  0.00  0.00    +0.106 C 
BRANCH  23  24
ATOM     24  C   UNL     1      -2.093  -2.153  24.435  0.00  0.00    +0.023 A 
ATOM     25  C   UNL     1      -2.872  -1.922  24.292  0.00  0.00    +0.004 A 
ATOM     26  C   UNL     1      -3.360  -2.574  24.427  0.00  0.00    +0.007 A 
ATOM     27  C   UNL     1      -2.881  -3.207  24.653  0.00  0.00    +0.035 A 
ATOM     28  S   UNL     1      -2.099  -2.947  24.658  0.00  0.00    -0.089 S 
ENDBRANCH  23  24
ENDBRANCH  22  23
TORSDOF 8
ENDMDL
MODEL 6
REMARK VINA RESULT:      -6.3     15.109     16.059
REMARK  Name = 
REMARK  8 active torsions:
REMARK  status: ('A' for Active; 'I' for Inactive)
REMARK    1  A    between atoms: O_2  and  C_3
REMARK    2  A    between atoms: C_6  and  C_7
REMARK    3  A    between atoms: C_7  and  N_8
REMARK    4  A    between atoms: C_9  and  C_11
REMARK    5  A    between atoms: C_11  and  C_12
REMARK    6  A    between atoms: C_12  and  C_13
REMARK    7  A    between atoms: N_22  and  C_23
REMARK    8  A    between atoms: C_23  and  C_24
REMARK                            x       y       z     vdW  Elec       q    Type
REMARK                         _______ _______ _______ _____ _____    ______ ____
ROOT
ATOM     13  C   UNL     1      -4.031 -10.563  14.452  0.00  0.00    +0.080 C 
ATOM     14  C   UNL     1      -3.434 -10.482  15.014  0.00  0.00    +0.131 C 
ATOM     15  N   UNL     1      -3.503 -10.419  15.834  0.00  0.00    -0.203 NA
ATOM     16  C   UNL     1      -4.188 -10.420  16.294  0.00  0.00    +0.257 C 
ATOM     17  O   UNL     1      -4.074 -10.347  17.108  0.00  0.00    -0.272 OA
ATOM     18  C   UNL     1      -4.973 -10.486  16.047  0.00  0.00    +0.151 C 
ATOM     19  C   UNL     1      -5.266 -10.566  15.280  0.00  0.00    +0.083 C 
ATOM     20  C   UNL     1      -6.089 -10.610  15.325  0.00  0.00    +0.035 C 
ATOM     21  C   UNL     1      -6.304 -10.557  16.119  0.00  0.00    +0.074 C 
ATOM     22  N   UNL     1      -5.614 -10.481  16.566  0.00  0.00    -0.261 NA
ATOM     29  N   UNL     1      -4.848 -10.600  14.571  0.00  0.00    -0.271 NA
ATOM     30  C   UNL     1      -5.305 -10.683  13.889  0.00  0.00    +0.090 C 
ENDROOT
BRANCH  13  12
ATOM     12  C   UNL     1      -3.781 -10.613  13.667  0.00  0.00    +0.027 C 
BRANCH  12  11
ATOM     11  C   UNL     1      -3.078 -10.249  13.436  0.00  0.00    +0.088 C 
BRANCH  11   9
ATOM      8  N   UNL     1      -3.175 -10.183  12.011  0.00  0.00    -0.201 NA
ATOM      9  C   UNL     1      -2.760 -10.405  12.690  0.00  0.00    +0.242 C 
ATOM     10  O   UNL     1      -2.029 -10.781  12.623  0.00  0.00    -0.273 OA
BRANCH   8   7
ATOM      7  C   UNL     1      -2.858 -10.339  11.266  0.00  0.00    +0.141 C 
BRANCH   7   6
ATOM      3  C   UNL     1      -4.022  -9.532   9.235  0.00  0.00    +0.139 A 
ATOM      4  C   UNL     1      -3.647  -8.995   9.737  0.00  0.00    +0.037 A 
ATOM      5  C   UNL     1      -3.260  -9.264  10.414  0.00  0.00    +0.001 A 
ATOM      6  C   UNL     1      -3.246 -10.070  10.589  0.00  0.00    -0.000 A 
ATOM     31  C   UNL     1      -3.620 -10.608  10.087  0.00  0.00    +0.001 A 
ATOM     32  C   UNL     1      -4.008 -10.338   9.410  0.00  0.00    +0.037 A 
BRANCH   3   2
ATOM      1  C   UNL     1      -5.228  -9.345   8.492  0.00  0.00    +0.252 C 
ATOM      2  O   UNL     1      -4.409  -9.264   8.559  0.00  0.00    -0.471 OA
ENDBRANCH   3   2
ENDBRANCH   7   6
ENDBRANCH   8   7
ENDBRANCH  11   9
ENDBRANCH  12  11
ENDBRANCH  13  12
BRANCH  22  23
ATOM     23  C   UNL     1      -5.573 -10.411  17.387  0.00  0.00    +0.106 C 
BRANCH  23  24
ATOM     24  C   UNL     1      -6.266 -10.340  17.831  0.00  0.00    +0.023 A 
ATOM     25  C   UNL     1      -6.884  -9.815  17.682  0.00  0.00    +0.004 A 
ATOM     26  C   UNL     1      -7.462  -9.932  18.260  0.00  0.00    +0.007 A 
ATOM     27  C   UNL     1      -7.199 -10.529  18.765  0.00  0.00    +0.035 A 
ATOM     28  S   UNL     1      -6.460 -10.781  18.500  0.00  0.00    -0.089 S 
ENDBRANCH  23  24
ENDBRANCH  22  23
TORSDOF 8
ENDMDL
MODEL 7
REMARK VINA RESULT:      -6.1      3.706      4.958
REMARK  Name = 
REMARK  8 active torsions:
REMARK  status: ('A' for Active; 'I' for Inactive)
REMARK    1  A    between atoms: O_2  and  C_3
REMARK    2  A    between atoms: C_6  and  C_7
REMARK    3  A    between atoms: C_7  and  N_8
REMARK    4  A    between atoms: C_9  and  C_11
REMARK    5  A    between atoms: C_11  and  C_12
REMARK    6  A    between atoms: C_12  and  C_13
REMARK    7  A    between atoms: N_22  and  C_23
REMARK    8  A    between atoms: C_23  and  C_24
REMARK                            x       y       z     vdW  Elec       q    Type
REMARK                         _______ _______ _______ _____ _____    ______ ____
ROOT
ATOM     13  C   UNL     1      -4.310   2.163  24.211  0.00  0.00    +0.080 C 
ATOM     14  C   UNL     1      -4.795   2.034  24.865  0.00  0.00    +0.131 C 
ATOM     15  N   UNL     1      -4.966   1.321  25.246  0.00  0.00    -0.203 NA
ATOM     16  C   UNL     1      -4.694   0.563  25.066  0.00  0.00    +0.257 C 
ATOM     17  O   UNL     1      -4.968  -0.041  25.555  0.00  0.00    -0.272 OA
ATOM     18  C   UNL     1      -4.184   0.331  24.460  0.00  0.00    +0.151 C 
ATOM     19  C   UNL     1      -3.819   0.798  23.886  0.00  0.00    +0.083 C 
ATOM     20  C   UNL     1      -3.363   0.305  23.408  0.00  0.00    +0.035 C 
ATOM     21  C   UNL     1      -3.444  -0.467  23.687  0.00  0.00    +0.074 C 
ATOM     22  N   UNL     1      -3.952  -0.452  24.337  0.00  0.00    -0.261 NA
ATOM     29  N   UNL     1      -3.875   1.613  23.775  0.00  0.00    -0.271 NA
ATOM     30  C   UNL     1      -3.440   1.920  23.145  0.00  0.00    +0.090 C 
ENDROOT
BRANCH  13  12
ATOM     12  C   UNL     1      -4.251   2.947  23.959  0.00  0.00    +0.027 C 
BRANCH  12  11
ATOM     11  C   UNL     1      -4.244   3.559  24.513  0.00  0.00    +0.088 C 
BRANCH  11   9
ATOM      8  N   UNL     1      -2.989   3.845  25.132  0.00  0.00    -0.201 NA
ATOM      9  C   UNL     1      -3.578   4.039  24.588  0.00  0.00    +0.242 C 
ATOM     10  O   UNL     1      -3.501   4.714  24.119  0.00  0.00    -0.273 OA
BRANCH   8   7
ATOM      7  C   UNL     1      -2.322   4.326  25.206  0.00  0.00    +0.141 C 
BRANCH   7   6
ATOM      3  C   UNL     1      -0.150   3.335  25.861  0.00  0.00    +0.139 A 
ATOM      4  C   UNL     1      -0.838   3.127  26.267  0.00  0.00    +0.037 A 
ATOM      5  C   UNL     1      -1.562   3.457  26.049  0.00  0.00    +0.001 A 
ATOM      6  C   UNL     1      -1.598   3.995  25.425  0.00  0.00    -0.000 A 
ATOM     31  C   UNL     1      -0.911   4.204  25.019  0.00  0.00    +0.001 A 
ATOM     32  C   UNL     1      -0.187   3.873  25.237  0.00  0.00    +0.037 A 
BRANCH   3   2
ATOM      1  C   UNL     1       0.599   2.393  26.631  0.00  0.00    +0.252 C 
ATOM      2  O   UNL     1       0.573   3.005  26.079  0.00  0.00    -0.471 OA
ENDBRANCH   3   2
ENDBRANCH   7   6
ENDBRANCH   8   7
ENDBRANCH  11   9
ENDBRANCH  12  11
ENDBRANCH  13  12
BRANCH  22  23
ATOM     23  C   UNL     1      -4.187  -1.103  24.786  0.00  0.00    +0.106 C 
BRANCH  23  24
ATOM     24  C   UNL     1      -3.871  -1.849  24.627  0.00  0.00    +0.023 A 
ATOM     25  C   UNL     1      -4.132  -2.372  24.046  0.00  0.00    +0.004 A 
ATOM     26  C   UNL     1      -3.661  -3.049  24.082  0.00  0.00    +0.007 A 
ATOM     27  C   UNL     1      -3.108  -2.942  24.685  0.00  0.00    +0.035 A 
ATOM     28  S   UNL     1      -3.237  -2.201  25.022  0.00  0.00    -0.089 S 
ENDBRANCH  23  24
ENDBRANCH  22  23
TORSDOF 8
ENDMDL
MODEL 8
REMARK VINA RESULT:      -6.0      3.468      4.909
REMARK  Name = 
REMARK  8 active torsions:
REMARK  status: ('A' for Active; 'I' for Inactive)
REMARK    1  A    between atoms: O_2  and  C_3
REMARK    2  A    between atoms: C_6  and  C_7
REMARK    3  A    between atoms: C_7  and  N_8
REMARK    4  A    between atoms: C_9  and  C_11
REMARK    5  A    between atoms: C_11  and  C_12
REMARK    6  A    between atoms: C_12  and  C_13
REMARK    7  A    between atoms: N_22  and  C_23
REMARK    8  A    between atoms: C_23  and  C_24
REMARK                            x       y       z     vdW  Elec       q    Type
REMARK                         _______ _______ _______ _____ _____    ______ ____
ROOT
ATOM     13  C   UNL     1      -4.199   1.472  24.449  0.00  0.00    +0.080 C 
ATOM     14  C   UNL     1      -4.560   1.784  25.122  0.00  0.00    +0.131 C 
ATOM     15  N   UNL     1      -4.367   2.470  25.539  0.00  0.00    -0.203 NA
ATOM     16  C   UNL     1      -3.764   3.012  25.385  0.00  0.00    +0.257 C 
ATOM     17  O   UNL     1      -3.712   3.648  25.908  0.00  0.00    -0.272 OA
ATOM     18  C   UNL     1      -3.207   3.002  24.777  0.00  0.00    +0.151 C 
ATOM     19  C   UNL     1      -3.114   2.449  24.172  0.00  0.00    +0.083 C 
ATOM     20  C   UNL     1      -2.477   2.686  23.704  0.00  0.00    +0.035 C 
ATOM     21  C   UNL     1      -2.177   3.387  24.020  0.00  0.00    +0.074 C 
ATOM     22  N   UNL     1      -2.628   3.583  24.683  0.00  0.00    -0.261 NA
ATOM     29  N   UNL     1      -3.555   1.768  24.027  0.00  0.00    -0.271 NA
ATOM     30  C   UNL     1      -3.322   1.324  23.371  0.00  0.00    +0.090 C 
ENDROOT
BRANCH  13  12
ATOM     12  C   UNL     1      -4.525   0.770  24.161  0.00  0.00    +0.027 C 
BRANCH  12  11
ATOM     11  C   UNL     1      -4.801   0.198  24.687  0.00  0.00    +0.088 C 
BRANCH  11   9
ATOM      8  N   UNL     1      -3.965  -0.925  24.973  0.00  0.00    -0.201 NA
ATOM      9  C   UNL     1      -4.606  -0.595  24.570  0.00  0.00    +0.242 C 
ATOM     10  O   UNL     1      -5.051  -1.059  24.052  0.00  0.00    -0.273 OA
BRANCH   8   7
ATOM      7  C   UNL     1      -3.770  -1.718  24.857  0.00  0.00    +0.141 C 
BRANCH   7   6
ATOM      3  C   UNL     1      -1.406  -2.441  24.990  0.00  0.00    +0.139 A 
ATOM      4  C   UNL     1      -1.900  -2.749  24.405  0.00  0.00    +0.037 A 
ATOM      5  C   UNL     1      -2.687  -2.508  24.360  0.00  0.00    +0.001 A 
ATOM      6  C   UNL     1      -2.981  -1.959  24.901  0.00  0.00    -0.000 A 
ATOM     31  C   UNL     1      -2.489  -1.651  25.486  0.00  0.00    +0.001 A 
ATOM     32  C   UNL     1      -1.700  -1.892  25.530  0.00  0.00    +0.037 A 
BRANCH   3   2
ATOM      1  C   UNL     1      -0.022  -2.124  25.154  0.00  0.00    +0.252 C 
ATOM      2  O   UNL     1      -0.618  -2.681  25.034  0.00  0.00    -0.471 OA
ENDBRANCH   3   2
ENDBRANCH   7   6
ENDBRANCH   8   7
ENDBRANCH  11   9
ENDBRANCH  12  11
ENDBRANCH  13  12
BRANCH  22  23
ATOM     23  C   UNL     1      -2.518   4.242  25.166  0.00  0.00    +0.106 C 
BRANCH  23  24
ATOM     24  C   UNL     1      -1.838   4.703  25.088  0.00  0.00    +0.023 A 
ATOM     25  C   UNL     1      -1.815   5.502  24.886  0.00  0.00    +0.004 A 
ATOM     26  C   UNL     1      -1.024   5.739  24.872  0.00  0.00    +0.007 A 
ATOM     27  C   UNL     1      -0.560   5.085  25.065  0.00  0.00    +0.035 A 
ATOM     28  S   UNL     1      -1.062   4.445  25.199  0.00  0.00    -0.089 S 
ENDBRANCH  23  24
ENDBRANCH  22  23
TORSDOF 8
ENDMDL
MODEL 9
REMARK VINA RESULT:      -5.9     14.631     16.613
REMARK  Name = 
REMARK  8 active torsions:
REMARK  status: ('A' for Active; 'I' for Inactive)
REMARK    1  A    between atoms: O_2  and  C_3
REMARK    2  A    between atoms: C_6  and  C_7
REMARK    3  A    between atoms: C_7  and  N_8
REMARK    4  A    between atoms: C_9  and  C_11
REMARK    5  A    between atoms: C_11  and  C_12
REMARK    6  A    between atoms: C_12  and  C_13
REMARK    7  A    between atoms: N_22  and  C_23
REMARK    8  A    between atoms: C_23  and  C_24
REMARK                            x       y       z     vdW  Elec       q    Type
REMARK                         _______ _______ _______ _____ _____    ______ ____
ROOT
ATOM     13  C   UNL     1      -4.768 -10.650  15.113  0.00  0.00    +0.080 C 
ATOM     14  C   UNL     1      -5.311 -10.744  14.500  0.00  0.00    +0.131 C 
ATOM     15  N   UNL     1      -5.170 -10.778  13.687  0.00  0.00    -0.203 NA
ATOM     16  C   UNL     1      -4.449 -10.727  13.288  0.00  0.00    +0.257 C 
ATOM     17  O   UNL     1      -4.490 -10.781  12.466  0.00  0.00    -0.272 OA
ATOM     18  C   UNL     1      -3.693 -10.629  13.603  0.00  0.00    +0.151 C 
ATOM     19  C   UNL     1      -3.470 -10.558  14.394  0.00  0.00    +0.083 C 
ATOM     20  C   UNL     1      -2.650 -10.471  14.421  0.00  0.00    +0.035 C 
ATOM     21  C   UNL     1      -2.366 -10.488  13.647  0.00  0.00    +0.074 C 
ATOM     22  N   UNL     1      -3.011 -10.586  13.141  0.00  0.00    -0.261 NA
ATOM     29  N   UNL     1      -3.948 -10.567  15.066  0.00  0.00    -0.271 NA
ATOM     30  C   UNL     1      -3.555 -10.482  15.787  0.00  0.00    +0.090 C 
ENDROOT
BRANCH  13  12
ATOM     12  C   UNL     1      -5.086 -10.637  15.875  0.00  0.00    +0.027 C 
BRANCH  12  11
ATOM     11  C   UNL     1      -5.901 -10.706  15.982  0.00  0.00    +0.088 C 
BRANCH  11   9
ATOM      8  N   UNL     1      -6.983 -10.170  16.746  0.00  0.00    -0.201 NA
ATOM      9  C   UNL     1      -6.237 -10.523  16.712  0.00  0.00    +0.242 C 
ATOM     10  O   UNL     1      -5.829 -10.693  17.409  0.00  0.00    -0.273 OA
BRANCH   8   7
ATOM      7  C   UNL     1      -7.318  -9.986  17.477  0.00  0.00    +0.141 C 
BRANCH   7   6
ATOM      3  C   UNL     1      -9.568  -8.958  17.580  0.00  0.00    +0.139 A 
ATOM      4  C   UNL     1      -8.953  -8.568  17.192  0.00  0.00    +0.037 A 
ATOM      5  C   UNL     1      -8.204  -8.910  17.158  0.00  0.00    +0.001 A 
ATOM      6  C   UNL     1      -8.069  -9.643  17.511  0.00  0.00    -0.000 A 
ATOM     31  C   UNL     1      -8.683 -10.034  17.899  0.00  0.00    +0.001 A 
ATOM     32  C   UNL     1      -9.433  -9.691  17.933  0.00  0.00    +0.037 A 
BRANCH   3   2
ATOM      1  C   UNL     1     -10.478  -7.928  17.186  0.00  0.00    +0.252 C 
ATOM      2  O   UNL     1     -10.317  -8.616  17.614  0.00  0.00    -0.471 OA
ENDBRANCH   3   2
ENDBRANCH   7   6
ENDBRANCH   8   7
ENDBRANCH  11   9
ENDBRANCH  12  11
ENDBRANCH  13  12
BRANCH  22  23
ATOM     23  C   UNL     1      -2.978 -10.632  12.318  0.00  0.00    +0.106 C 
BRANCH  23  24
ATOM     24  C   UNL     1      -2.348 -10.291  11.910  0.00  0.00    +0.023 A 
ATOM     25  C   UNL     1      -1.566 -10.550  11.921  0.00  0.00    +0.004 A 
ATOM     26  C   UNL     1      -1.124 -10.049  11.436  0.00  0.00    +0.007 A 
ATOM     27  C   UNL     1      -1.635  -9.480  11.126  0.00  0.00    +0.035 A 
ATOM     28  S   UNL     1      -2.391  -9.629  11.418  0.00  0.00    -0.089 S 
ENDBRANCH  23  24
ENDBRANCH  22  23
TORSDOF 8
ENDMDL
MODEL 10
REMARK VINA RESULT:      -5.5     15.317     16.157
REMARK  Name = 
REMARK  8 active torsions:
REMARK  status: ('A' for Active; 'I' for Inactive)
REMARK    1  A    between atoms: O_2  and  C_3
REMARK    2  A    between atoms: C_6  and  C_7
REMARK    3  A    between atoms: C_7  and  N_8
REMARK    4  A    between atoms: C_9  and  C_11
REMARK    5  A    between atoms: C_11  and  C_12
REMARK    6  A    between atoms: C_12  and  C_13
REMARK    7  A    between atoms: N_22  and  C_23
REMARK    8  A    between atoms: C_23  and  C_24
REMARK                            x       y       z     vdW  Elec       q    Type
REMARK                         _______ _______ _______ _____ _____    ______ ____
ROOT
ATOM     13  C   UNL     1      -6.458 -10.105  14.737  0.00  0.00    +0.080 C 
ATOM     14  C   UNL     1      -5.973  -9.875  15.363  0.00  0.00    +0.131 C 
ATOM     15  N   UNL     1      -6.191  -9.647  16.126  0.00  0.00    -0.203 NA
ATOM     16  C   UNL     1      -6.948  -9.594  16.450  0.00  0.00    +0.257 C 
ATOM     17  O   UNL     1      -6.985  -9.348  17.236  0.00  0.00    -0.272 OA
ATOM     18  C   UNL     1      -7.673  -9.756  16.091  0.00  0.00    +0.151 C 
ATOM     19  C   UNL     1      -7.822 -10.010  15.321  0.00  0.00    +0.083 C 
ATOM     20  C   UNL     1      -8.638 -10.092  15.231  0.00  0.00    +0.035 C 
ATOM     21  C   UNL     1      -8.994  -9.888  15.947  0.00  0.00    +0.074 C 
ATOM     22  N   UNL     1      -8.398  -9.681  16.479  0.00  0.00    -0.261 NA
ATOM     29  N   UNL     1      -7.281 -10.165  14.718  0.00  0.00    -0.271 NA
ATOM     30  C   UNL     1      -7.605 -10.414  14.001  0.00  0.00    +0.090 C 
ENDROOT
BRANCH  13  12
ATOM     12  C   UNL     1      -6.068 -10.302  14.036  0.00  0.00    +0.027 C 
BRANCH  12  11
ATOM     11  C   UNL     1      -5.304 -10.024  13.898  0.00  0.00    +0.088 C 
BRANCH  11   9
ATOM      8  N   UNL     1      -5.132  -9.816  12.495  0.00  0.00    -0.201 NA
ATOM      9  C   UNL     1      -4.921 -10.207  13.190  0.00  0.00    +0.242 C 
ATOM     10  O   UNL     1      -4.329 -10.781  13.178  0.00  0.00    -0.273 OA
BRANCH   8   7
ATOM      7  C   UNL     1      -4.749  -9.999  11.787  0.00  0.00    +0.141 C 
BRANCH   7   6
ATOM      3  C   UNL     1      -5.507  -8.967   9.668  0.00  0.00    +0.139 A 
ATOM      4  C   UNL     1      -4.898  -8.619  10.103  0.00  0.00    +0.037 A 
ATOM      5  C   UNL     1      -4.645  -8.962  10.809  0.00  0.00    +0.001 A 
ATOM      6  C   UNL     1      -5.001  -9.655  11.081  0.00  0.00    -0.000 A 
ATOM     31  C   UNL     1      -5.610 -10.004  10.647  0.00  0.00    +0.001 A 
ATOM     32  C   UNL     1      -5.863  -9.660   9.940  0.00  0.00    +0.037 A 
BRANCH   3   2
ATOM      1  C   UNL     1      -6.514  -8.294   8.910  0.00  0.00    +0.252 C 
ATOM      2  O   UNL     1      -5.759  -8.623   8.963  0.00  0.00    -0.471 OA
ENDBRANCH   3   2
ENDBRANCH   7   6
ENDBRANCH   8   7
ENDBRANCH  11   9
ENDBRANCH  12  11
ENDBRANCH  13  12
BRANCH  22  23
ATOM     23  C   UNL     1      -8.508  -9.440  17.260  0.00  0.00    +0.106 C 
BRANCH  23  24
ATOM     24  C   UNL     1      -9.270  -9.378  17.570  0.00  0.00    +0.023 A 
ATOM     25  C   UNL     1      -9.658  -9.949  18.022  0.00  0.00    +0.004 A 
ATOM     26  C   UNL     1     -10.406  -9.657  18.213  0.00  0.00    +0.007 A 
ATOM     27  C   UNL     1     -10.480  -8.906  17.879  0.00  0.00    +0.035 A 
ATOM     28  S   UNL     1      -9.778  -8.734  17.482  0.00  0.00    -0.089 S 
ENDBRANCH  23  24
ENDBRANCH  22  23
TORSDOF 8
ENDMDL
