MODEL 1
REMARK VINA RESULT:     -12.1      0.000      0.000
REMARK  Name = 
REMARK  6 active torsions:
REMARK  status: ('A' for Active; 'I' for Inactive)
REMARK    1  A    between atoms: C_2  and  C_4
REMARK    2  A    between atoms: C_4  and  C_5
REMARK    3  A    between atoms: C_7  and  C_21
REMARK    4  A    between atoms: N_11  and  C_12
REMARK    5  A    between atoms: C_12  and  C_13
REMARK    6  A    between atoms: N_23  and  C_24
REMARK                            x       y       z     vdW  Elec       q    Type
REMARK                         _______ _______ _______ _____ _____    ______ ____
ROOT
ATOM      5  C   UNL     1      -3.852   1.110  24.730  0.00  0.00    +0.095 C 
ATOM      6  N   UNL     1      -3.401   1.799  24.679  0.00  0.00    -0.207 NA
ATOM      7  C   UNL     1      -2.581   1.880  24.706  0.00  0.00    +0.155 C 
ATOM      8  C   UNL     1      -2.008   1.293  24.790  0.00  0.00    +0.055 C 
ATOM      9  C   UNL     1      -2.114   0.478  24.869  0.00  0.00    -0.002 A 
ATOM     10  C   UNL     1      -1.491  -0.056  24.950  0.00  0.00    +0.072 A 
ATOM     11  N   UNL     1      -1.811  -0.814  25.013  0.00  0.00    -0.322 N 
ATOM     15  C   UNL     1      -2.633  -0.748  24.971  0.00  0.00    +0.060 A 
ATOM     16  C   UNL     1      -2.820   0.050  24.882  0.00  0.00    +0.011 A 
ATOM     17  C   UNL     1      -3.593   0.332  24.820  0.00  0.00    -0.005 A 
ATOM     18  C   UNL     1      -4.210  -0.278  24.856  0.00  0.00    -0.003 A 
ATOM     19  C   UNL     1      -4.023  -1.077  24.945  0.00  0.00    +0.001 A 
ATOM     20  C   UNL     1      -3.234  -1.312  25.003  0.00  0.00    +0.017 A 
ENDROOT
BRANCH   7  21
ATOM     21  C   UNL     1      -2.295   2.652  24.640  0.00  0.00    +0.257 C 
ATOM     22  O   UNL     1      -2.274   3.022  23.902  0.00  0.00    -0.272 OA
ATOM     23  N   UNL     1      -2.032   3.053  25.310  0.00  0.00    -0.206 NA
BRANCH  23  24
ATOM     24  C   UNL     1      -1.746   3.824  25.243  0.00  0.00    +0.095 C 
ATOM     25  C   UNL     1      -2.179   4.514  25.375  0.00  0.00    +0.022 C 
ATOM     26  C   UNL     1      -1.679   5.157  25.246  0.00  0.00    +0.002 C 
ATOM     27  C   UNL     1      -0.937   4.865  25.034  0.00  0.00    +0.002 C 
ATOM     28  C   UNL     1      -0.979   4.042  25.033  0.00  0.00    +0.022 C 
ENDBRANCH  23  24
ENDBRANCH   7  21
BRANCH   5   4
ATOM      4  C   UNL     1      -4.669   1.213  24.684  0.00  0.00    +0.022 C 
BRANCH   4   2
ATOM      1  C   UNL     1      -5.157   2.023  25.755  0.00  0.00    +0.000 C 
ATOM      2  C   UNL     1      -5.011   1.915  24.951  0.00  0.00    +0.002 C 
ATOM      3  C   UNL     1      -5.208   2.509  24.411  0.00  0.00    +0.000 C 
ENDBRANCH   4   2
ENDBRANCH   5   4
BRANCH  11  12
ATOM     12  C   UNL     1      -1.386  -1.515  25.103  0.00  0.00    +0.132 C 
BRANCH  12  13
ATOM     13  C   UNL     1      -0.568  -1.491  25.207  0.00  0.00    -0.002 C 
ATOM     14  C   UNL     1      -0.147  -2.191  25.324  0.00  0.00    -0.003 C 
ENDBRANCH  12  13
ENDBRANCH  11  12
TORSDOF 6
ENDMDL
MODEL 2
REMARK VINA RESULT:     -12.0      1.494      4.095
REMARK  Name = 
REMARK  6 active torsions:
REMARK  status: ('A' for Active; 'I' for Inactive)
REMARK    1  A    between atoms: C_2  and  C_4
REMARK    2  A    between atoms: C_4  and  C_5
REMARK    3  A    between atoms: C_7  and  C_21
REMARK    4  A    between atoms: N_11  and  C_12
REMARK    5  A    between atoms: C_12  and  C_13
REMARK    6  A    between atoms: N_23  and  C_24
REMARK                            x       y       z     vdW  Elec       q    Type
REMARK                         _______ _______ _______ _____ _____    ______ ____
ROOT
ATOM      5  C   UNL     1      -4.242   2.120  24.862  0.00  0.00    +0.095 C 
ATOM      6  N   UNL     1      -4.183   1.336  24.610  0.00  0.00    -0.207 NA
ATOM      7  C   UNL     1      -3.511   0.859  24.568  0.00  0.00    +0.155 C 
ATOM      8  C   UNL     1      -2.733   1.047  24.768  0.00  0.00    +0.055 C 
ATOM      9  C   UNL     1      -2.434   1.759  25.060  0.00  0.00    -0.002 A 
ATOM     10  C   UNL     1      -1.639   1.879  25.240  0.00  0.00    +0.072 A 
ATOM     11  N   UNL     1      -1.552   2.652  25.515  0.00  0.00    -0.322 N 
ATOM     15  C   UNL     1      -2.295   3.011  25.504  0.00  0.00    +0.060 A 
ATOM     16  C   UNL     1      -2.841   2.459  25.223  0.00  0.00    +0.011 A 
ATOM     17  C   UNL     1      -3.646   2.619  25.135  0.00  0.00    -0.005 A 
ATOM     18  C   UNL     1      -3.887   3.421  25.362  0.00  0.00    -0.003 A 
ATOM     19  C   UNL     1      -3.342   3.974  25.643  0.00  0.00    +0.001 A 
ATOM     20  C   UNL     1      -2.546   3.768  25.714  0.00  0.00    +0.017 A 
ENDROOT
BRANCH   7  21
ATOM     21  C   UNL     1      -3.633   0.092  24.289  0.00  0.00    +0.257 C 
ATOM     22  O   UNL     1      -3.679  -0.049  23.477  0.00  0.00    -0.272 OA
ATOM     23  N   UNL     1      -3.711  -0.533  24.821  0.00  0.00    -0.206 NA
BRANCH  23  24
ATOM     24  C   UNL     1      -3.833  -1.299  24.541  0.00  0.00    +0.095 C 
ATOM     25  C   UNL     1      -3.412  -1.971  24.768  0.00  0.00    +0.022 C 
ATOM     26  C   UNL     1      -3.716  -2.616  24.353  0.00  0.00    +0.002 C 
ATOM     27  C   UNL     1      -4.326  -2.342  23.869  0.00  0.00    +0.002 C 
ATOM     28  C   UNL     1      -4.398  -1.529  23.986  0.00  0.00    +0.022 C 
ENDBRANCH  23  24
ENDBRANCH   7  21
BRANCH   5   4
ATOM      4  C   UNL     1      -4.999   2.446  24.838  0.00  0.00    +0.022 C 
BRANCH   4   2
ATOM      1  C   UNL     1      -5.749   1.868  25.909  0.00  0.00    +0.000 C 
ATOM      2  C   UNL     1      -5.646   2.006  25.102  0.00  0.00    +0.002 C 
ATOM      3  C   UNL     1      -6.190   1.706  24.558  0.00  0.00    +0.000 C 
ENDBRANCH   4   2
ENDBRANCH   5   4
BRANCH  11  12
ATOM     12  C   UNL     1      -0.848   3.005  25.757  0.00  0.00    +0.132 C 
BRANCH  12  13
ATOM     13  C   UNL     1      -0.178   2.542  25.891  0.00  0.00    -0.002 C 
ATOM     14  C   UNL     1       0.464   2.856  26.304  0.00  0.00    -0.003 C 
ENDBRANCH  12  13
ENDBRANCH  11  12
TORSDOF 6
ENDMDL
MODEL 3
REMARK VINA RESULT:     -11.3      1.434      4.963
REMARK  Name = 
REMARK  6 active torsions:
REMARK  status: ('A' for Active; 'I' for Inactive)
REMARK    1  A    between atoms: C_2  and  C_4
REMARK    2  A    between atoms: C_4  and  C_5
REMARK    3  A    between atoms: C_7  and  C_21
REMARK    4  A    between atoms: N_11  and  C_12
REMARK    5  A    between atoms: C_12  and  C_13
REMARK    6  A    between atoms: N_23  and  C_24
REMARK                            x       y       z     vdW  Elec       q    Type
REMARK                         _______ _______ _______ _____ _____    ______ ____
ROOT
ATOM      5  C   UNL     1      -1.956   1.622  24.736  0.00  0.00    +0.095 C 
ATOM      6  N   UNL     1      -2.317   0.918  24.503  0.00  0.00    -0.207 NA
ATOM      7  C   UNL     1      -3.122   0.749  24.441  0.00  0.00    +0.155 C 
ATOM      8  C   UNL     1      -3.765   1.242  24.596  0.00  0.00    +0.055 C 
ATOM      9  C   UNL     1      -3.761   2.026  24.853  0.00  0.00    -0.002 A 
ATOM     10  C   UNL     1      -4.448   2.463  24.989  0.00  0.00    +0.072 A 
ATOM     11  N   UNL     1      -4.225   3.218  25.238  0.00  0.00    -0.322 N 
ATOM     15  C   UNL     1      -3.401   3.247  25.254  0.00  0.00    +0.060 A 
ATOM     16  C   UNL     1      -3.114   2.511  25.016  0.00  0.00    +0.011 A 
ATOM     17  C   UNL     1      -2.310   2.330  24.964  0.00  0.00    -0.005 A 
ATOM     18  C   UNL     1      -1.774   2.979  25.180  0.00  0.00    -0.003 A 
ATOM     19  C   UNL     1      -2.060   3.715  25.418  0.00  0.00    +0.001 A 
ATOM     20  C   UNL     1      -2.874   3.849  25.455  0.00  0.00    +0.017 A 
ENDROOT
BRANCH   7  21
ATOM     21  C   UNL     1      -3.309  -0.015  24.190  0.00  0.00    +0.257 C 
ATOM     22  O   UNL     1      -3.311  -0.195  23.384  0.00  0.00    -0.272 OA
ATOM     23  N   UNL     1      -3.494  -0.597  24.744  0.00  0.00    -0.206 NA
BRANCH  23  24
ATOM     24  C   UNL     1      -3.681  -1.361  24.492  0.00  0.00    +0.095 C 
ATOM     25  C   UNL     1      -3.252  -2.045  24.661  0.00  0.00    +0.022 C 
ATOM     26  C   UNL     1      -3.635  -2.681  24.301  0.00  0.00    +0.002 C 
ATOM     27  C   UNL     1      -4.300  -2.390  23.909  0.00  0.00    +0.002 C 
ATOM     28  C   UNL     1      -4.328  -1.574  24.027  0.00  0.00    +0.022 C 
ENDBRANCH  23  24
ENDBRANCH   7  21
BRANCH   5   4
ATOM      4  C   UNL     1      -1.131   1.616  24.741  0.00  0.00    +0.022 C 
BRANCH   4   2
ATOM      1  C   UNL     1      -0.702   0.598  25.647  0.00  0.00    +0.000 C 
ATOM      2  C   UNL     1      -0.725   0.912  24.885  0.00  0.00    +0.002 C 
ATOM      3  C   UNL     1      -0.342   0.522  24.266  0.00  0.00    +0.000 C 
ENDBRANCH   4   2
ENDBRANCH   5   4
BRANCH  11  12
ATOM     12  C   UNL     1      -4.736   3.834  25.435  0.00  0.00    +0.132 C 
BRANCH  12  13
ATOM     13  C   UNL     1      -5.546   3.696  25.496  0.00  0.00    -0.002 C 
ATOM     14  C   UNL     1      -6.061   4.322  25.649  0.00  0.00    -0.003 C 
ENDBRANCH  12  13
ENDBRANCH  11  12
TORSDOF 6
ENDMDL
MODEL 4
REMARK VINA RESULT:     -11.3      1.190      2.862
REMARK  Name = 
REMARK  6 active torsions:
REMARK  status: ('A' for Active; 'I' for Inactive)
REMARK    1  A    between atoms: C_2  and  C_4
REMARK    2  A    between atoms: C_4  and  C_5
REMARK    3  A    between atoms: C_7  and  C_21
REMARK    4  A    between atoms: N_11  and  C_12
REMARK    5  A    between atoms: C_12  and  C_13
REMARK    6  A    between atoms: N_23  and  C_24
REMARK                            x       y       z     vdW  Elec       q    Type
REMARK                         _______ _______ _______ _____ _____    ______ ____
ROOT
ATOM      5  C   UNL     1      -1.410   1.227  24.771  0.00  0.00    +0.095 C 
ATOM      6  N   UNL     1      -2.090   1.694  24.767  0.00  0.00    -0.207 NA
ATOM      7  C   UNL     1      -2.878   1.454  24.732  0.00  0.00    +0.155 C 
ATOM      8  C   UNL     1      -3.181   0.688  24.691  0.00  0.00    +0.055 C 
ATOM      9  C   UNL     1      -2.770  -0.028  24.675  0.00  0.00    -0.002 A 
ATOM     10  C   UNL     1      -3.141  -0.764  24.634  0.00  0.00    +0.072 A 
ATOM     11  N   UNL     1      -2.554  -1.345  24.629  0.00  0.00    -0.322 N 
ATOM     15  C   UNL     1      -1.822  -0.967  24.669  0.00  0.00    +0.060 A 
ATOM     16  C   UNL     1      -1.955  -0.153  24.697  0.00  0.00    +0.011 A 
ATOM     17  C   UNL     1      -1.350   0.406  24.739  0.00  0.00    -0.005 A 
ATOM     18  C   UNL     1      -0.546   0.076  24.752  0.00  0.00    -0.003 A 
ATOM     19  C   UNL     1      -0.412  -0.738  24.724  0.00  0.00    +0.001 A 
ATOM     20  C   UNL     1      -1.051  -1.259  24.682  0.00  0.00    +0.017 A 
ENDROOT
BRANCH   7  21
ATOM     21  C   UNL     1      -3.438   2.061  24.738  0.00  0.00    +0.257 C 
ATOM     22  O   UNL     1      -3.608   2.472  24.042  0.00  0.00    -0.272 OA
ATOM     23  N   UNL     1      -3.827   2.256  25.438  0.00  0.00    -0.206 NA
BRANCH  23  24
ATOM     24  C   UNL     1      -4.386   2.863  25.444  0.00  0.00    +0.095 C 
ATOM     25  C   UNL     1      -5.204   2.768  25.392  0.00  0.00    +0.022 C 
ATOM     26  C   UNL     1      -5.549   3.516  25.418  0.00  0.00    +0.002 C 
ATOM     27  C   UNL     1      -4.945   4.074  25.486  0.00  0.00    +0.002 C 
ATOM     28  C   UNL     1      -4.226   3.670  25.502  0.00  0.00    +0.022 C 
ENDBRANCH  23  24
ENDBRANCH   7  21
BRANCH   5   4
ATOM      4  C   UNL     1      -0.695   1.638  24.811  0.00  0.00    +0.022 C 
BRANCH   4   2
ATOM      1  C   UNL     1      -0.626   2.353  26.046  0.00  0.00    +0.000 C 
ATOM      2  C   UNL     1      -0.652   2.352  25.221  0.00  0.00    +0.002 C 
ATOM      3  C   UNL     1      -0.636   3.066  24.807  0.00  0.00    +0.000 C 
ENDBRANCH   4   2
ENDBRANCH   5   4
BRANCH  11  12
ATOM     12  C   UNL     1      -2.678  -2.159  24.592  0.00  0.00    +0.132 C 
BRANCH  12  13
ATOM     13  C   UNL     1      -3.445  -2.458  24.539  0.00  0.00    -0.002 C 
ATOM     14  C   UNL     1      -3.566  -3.271  24.470  0.00  0.00    -0.003 C 
ENDBRANCH  12  13
ENDBRANCH  11  12
TORSDOF 6
ENDMDL
MODEL 5
REMARK VINA RESULT:     -10.8      1.355      4.866
REMARK  Name = 
REMARK  6 active torsions:
REMARK  status: ('A' for Active; 'I' for Inactive)
REMARK    1  A    between atoms: C_2  and  C_4
REMARK    2  A    between atoms: C_4  and  C_5
REMARK    3  A    between atoms: C_7  and  C_21
REMARK    4  A    between atoms: N_11  and  C_12
REMARK    5  A    between atoms: C_12  and  C_13
REMARK    6  A    between atoms: N_23  and  C_24
REMARK                            x       y       z     vdW  Elec       q    Type
REMARK                         _______ _______ _______ _____ _____    ______ ____
ROOT
ATOM      5  C   UNL     1      -1.344   2.494  24.968  0.00  0.00    +0.095 C 
ATOM      6  N   UNL     1      -1.447   1.693  24.796  0.00  0.00    -0.207 NA
ATOM      7  C   UNL     1      -2.150   1.265  24.741  0.00  0.00    +0.155 C 
ATOM      8  C   UNL     1      -2.924   1.532  24.844  0.00  0.00    +0.055 C 
ATOM      9  C   UNL     1      -3.186   2.292  25.028  0.00  0.00    -0.002 A 
ATOM     10  C   UNL     1      -3.982   2.490  25.117  0.00  0.00    +0.072 A 
ATOM     11  N   UNL     1      -4.027   3.294  25.298  0.00  0.00    -0.322 N 
ATOM     15  C   UNL     1      -3.258   3.593  25.321  0.00  0.00    +0.060 A 
ATOM     16  C   UNL     1      -2.738   2.974  25.154  0.00  0.00    +0.011 A 
ATOM     17  C   UNL     1      -1.918   3.063  25.127  0.00  0.00    -0.005 A 
ATOM     18  C   UNL     1      -1.632   3.867  25.290  0.00  0.00    -0.003 A 
ATOM     19  C   UNL     1      -2.151   4.486  25.456  0.00  0.00    +0.001 A 
ATOM     20  C   UNL     1      -2.964   4.348  25.472  0.00  0.00    +0.017 A 
ENDROOT
BRANCH   7  21
ATOM     21  C   UNL     1      -2.068   0.464  24.559  0.00  0.00    +0.257 C 
ATOM     22  O   UNL     1      -1.941   0.230  23.777  0.00  0.00    -0.272 OA
ATOM     23  N   UNL     1      -2.113  -0.101  25.157  0.00  0.00    -0.206 NA
BRANCH  23  24
ATOM     24  C   UNL     1      -2.031  -0.902  24.973  0.00  0.00    +0.095 C 
ATOM     25  C   UNL     1      -1.321  -1.320  24.935  0.00  0.00    +0.022 C 
ATOM     26  C   UNL     1      -1.495  -2.100  24.734  0.00  0.00    +0.002 C 
ATOM     27  C   UNL     1      -2.313  -2.166  24.649  0.00  0.00    +0.002 C 
ATOM     28  C   UNL     1      -2.644  -1.425  24.796  0.00  0.00    +0.022 C 
ENDBRANCH  23  24
ENDBRANCH   7  21
BRANCH   5   4
ATOM      4  C   UNL     1      -0.563   2.758  24.983  0.00  0.00    +0.022 C 
BRANCH   4   2
ATOM      1  C   UNL     1       0.129   2.162  26.082  0.00  0.00    +0.000 C 
ATOM      2  C   UNL     1       0.034   2.265  25.269  0.00  0.00    +0.002 C 
ATOM      3  C   UNL     1       0.536   1.877  24.742  0.00  0.00    +0.000 C 
ENDBRANCH   4   2
ENDBRANCH   5   4
BRANCH  11  12
ATOM     12  C   UNL     1      -4.718   3.723  25.433  0.00  0.00    +0.132 C 
BRANCH  12  13
ATOM     13  C   UNL     1      -5.438   3.330  25.517  0.00  0.00    -0.002 C 
ATOM     14  C   UNL     1      -6.129   3.761  25.650  0.00  0.00    -0.003 C 
ENDBRANCH  12  13
ENDBRANCH  11  12
TORSDOF 6
ENDMDL
MODEL 6
REMARK VINA RESULT:     -10.7      1.116      4.194
REMARK  Name = 
REMARK  6 active torsions:
REMARK  status: ('A' for Active; 'I' for Inactive)
REMARK    1  A    between atoms: C_2  and  C_4
REMARK    2  A    between atoms: C_4  and  C_5
REMARK    3  A    between atoms: C_7  and  C_21
REMARK    4  A    between atoms: N_11  and  C_12
REMARK    5  A    between atoms: C_12  and  C_13
REMARK    6  A    between atoms: N_23  and  C_24
REMARK                            x       y       z     vdW  Elec       q    Type
REMARK                         _______ _______ _______ _____ _____    ______ ____
ROOT
ATOM      5  C   UNL     1      -3.609   1.338  24.581  0.00  0.00    +0.095 C 
ATOM      6  N   UNL     1      -3.051   0.762  24.772  0.00  0.00    -0.207 NA
ATOM      7  C   UNL     1      -2.267   0.863  25.011  0.00  0.00    +0.155 C 
ATOM      8  C   UNL     1      -1.849   1.567  25.117  0.00  0.00    +0.055 C 
ATOM      9  C   UNL     1      -2.111   2.342  25.011  0.00  0.00    -0.002 A 
ATOM     10  C   UNL     1      -1.635   3.004  25.137  0.00  0.00    +0.072 A 
ATOM     11  N   UNL     1      -2.085   3.676  24.976  0.00  0.00    -0.322 N 
ATOM     15  C   UNL     1      -2.840   3.430  24.751  0.00  0.00    +0.060 A 
ATOM     16  C   UNL     1      -2.856   2.605  24.773  0.00  0.00    +0.011 A 
ATOM     17  C   UNL     1      -3.522   2.158  24.581  0.00  0.00    -0.005 A 
ATOM     18  C   UNL     1      -4.220   2.621  24.351  0.00  0.00    -0.003 A 
ATOM     19  C   UNL     1      -4.205   3.445  24.329  0.00  0.00    +0.001 A 
ATOM     20  C   UNL     1      -3.514   3.850  24.529  0.00  0.00    +0.017 A 
ENDROOT
BRANCH   7  21
ATOM     21  C   UNL     1      -1.847   0.170  25.163  0.00  0.00    +0.257 C 
ATOM     22  O   UNL     1      -1.707  -0.065  25.942  0.00  0.00    -0.272 OA
ATOM     23  N   UNL     1      -1.567  -0.288  24.537  0.00  0.00    -0.206 NA
BRANCH  23  24
ATOM     24  C   UNL     1      -1.146  -0.982  24.690  0.00  0.00    +0.095 C 
ATOM     25  C   UNL     1      -1.459  -1.745  24.702  0.00  0.00    +0.022 C 
ATOM     26  C   UNL     1      -0.846  -2.268  24.877  0.00  0.00    +0.002 C 
ATOM     27  C   UNL     1      -0.154  -1.829  24.974  0.00  0.00    +0.002 C 
ATOM     28  C   UNL     1      -0.340  -1.034  24.858  0.00  0.00    +0.022 C 
ENDBRANCH  23  24
ENDBRANCH   7  21
BRANCH   5   4
ATOM      4  C   UNL     1      -4.352   1.057  24.361  0.00  0.00    +0.022 C 
BRANCH   4   2
ATOM      1  C   UNL     1      -4.657  -0.336  24.255  0.00  0.00    +0.000 C 
ATOM      2  C   UNL     1      -4.646   0.361  24.696  0.00  0.00    +0.002 C 
ATOM      3  C   UNL     1      -4.927   0.364  25.472  0.00  0.00    +0.000 C 
ENDBRANCH   4   2
ENDBRANCH   5   4
BRANCH  11  12
ATOM     12  C   UNL     1      -1.827   4.458  25.030  0.00  0.00    +0.132 C 
BRANCH  12  13
ATOM     13  C   UNL     1      -1.020   4.629  25.011  0.00  0.00    -0.002 C 
ATOM     14  C   UNL     1      -0.766   5.409  24.926  0.00  0.00    -0.003 C 
ENDBRANCH  12  13
ENDBRANCH  11  12
TORSDOF 6
ENDMDL
MODEL 7
REMARK VINA RESULT:     -10.3      1.530      2.580
REMARK  Name = 
REMARK  6 active torsions:
REMARK  status: ('A' for Active; 'I' for Inactive)
REMARK    1  A    between atoms: C_2  and  C_4
REMARK    2  A    between atoms: C_4  and  C_5
REMARK    3  A    between atoms: C_7  and  C_21
REMARK    4  A    between atoms: N_11  and  C_12
REMARK    5  A    between atoms: C_12  and  C_13
REMARK    6  A    between atoms: N_23  and  C_24
REMARK                            x       y       z     vdW  Elec       q    Type
REMARK                         _______ _______ _______ _____ _____    ______ ____
ROOT
ATOM      5  C   UNL     1      -2.462  -0.397  24.922  0.00  0.00    +0.095 C 
ATOM      6  N   UNL     1      -2.777   0.348  24.759  0.00  0.00    -0.207 NA
ATOM      7  C   UNL     1      -2.421   0.983  24.370  0.00  0.00    +0.155 C 
ATOM      8  C   UNL     1      -1.663   1.030  24.050  0.00  0.00    +0.055 C 
ATOM      9  C   UNL     1      -1.073   0.454  24.038  0.00  0.00    -0.002 A 
ATOM     10  C   UNL     1      -0.331   0.570  23.697  0.00  0.00    +0.072 A 
ATOM     11  N   UNL     1       0.106  -0.124  23.792  0.00  0.00    -0.322 N 
ATOM     15  C   UNL     1      -0.367  -0.669  24.192  0.00  0.00    +0.060 A 
ATOM     16  C   UNL     1      -1.095  -0.312  24.344  0.00  0.00    +0.011 A 
ATOM     17  C   UNL     1      -1.714  -0.690  24.738  0.00  0.00    -0.005 A 
ATOM     18  C   UNL     1      -1.546  -1.505  24.988  0.00  0.00    -0.003 A 
ATOM     19  C   UNL     1      -0.819  -1.863  24.836  0.00  0.00    +0.001 A 
ATOM     20  C   UNL     1      -0.229  -1.444  24.438  0.00  0.00    +0.017 A 
ENDROOT
BRANCH   7  21
ATOM     21  C   UNL     1      -2.886   1.661  24.293  0.00  0.00    +0.257 C 
ATOM     22  O   UNL     1      -3.275   1.814  23.581  0.00  0.00    -0.272 OA
ATOM     23  N   UNL     1      -2.962   2.184  24.926  0.00  0.00    -0.206 NA
BRANCH  23  24
ATOM     24  C   UNL     1      -3.426   2.861  24.847  0.00  0.00    +0.095 C 
ATOM     25  C   UNL     1      -3.168   3.598  24.581  0.00  0.00    +0.022 C 
ATOM     26  C   UNL     1      -3.812   4.113  24.590  0.00  0.00    +0.002 C 
ATOM     27  C   UNL     1      -4.470   3.694  24.862  0.00  0.00    +0.002 C 
ATOM     28  C   UNL     1      -4.231   2.921  25.021  0.00  0.00    +0.022 C 
ENDBRANCH  23  24
ENDBRANCH   7  21
BRANCH   5   4
ATOM      4  C   UNL     1      -2.962  -0.916  25.324  0.00  0.00    +0.022 C 
BRANCH   4   2
ATOM      1  C   UNL     1      -4.021  -1.312  24.449  0.00  0.00    +0.000 C 
ATOM      2  C   UNL     1      -3.767  -0.939  25.140  0.00  0.00    +0.002 C 
ATOM      3  C   UNL     1      -4.316  -0.588  25.647  0.00  0.00    +0.000 C 
ENDBRANCH   4   2
ENDBRANCH   5   4
BRANCH  11  12
ATOM     12  C   UNL     1       0.878  -0.251  23.533  0.00  0.00    +0.132 C 
BRANCH  12  13
ATOM     13  C   UNL     1       1.193   0.214  22.929  0.00  0.00    -0.002 C 
ATOM     14  C   UNL     1       1.958   0.070  22.655  0.00  0.00    -0.003 C 
ENDBRANCH  12  13
ENDBRANCH  11  12
TORSDOF 6
ENDMDL
MODEL 8
REMARK VINA RESULT:     -10.2      1.675      3.920
REMARK  Name = 
REMARK  6 active torsions:
REMARK  status: ('A' for Active; 'I' for Inactive)
REMARK    1  A    between atoms: C_2  and  C_4
REMARK    2  A    between atoms: C_4  and  C_5
REMARK    3  A    between atoms: C_7  and  C_21
REMARK    4  A    between atoms: N_11  and  C_12
REMARK    5  A    between atoms: C_12  and  C_13
REMARK    6  A    between atoms: N_23  and  C_24
REMARK                            x       y       z     vdW  Elec       q    Type
REMARK                         _______ _______ _______ _____ _____    ______ ____
ROOT
ATOM      5  C   UNL     1      -3.490  -0.215  24.599  0.00  0.00    +0.095 C 
ATOM      6  N   UNL     1      -2.671  -0.151  24.524  0.00  0.00    -0.207 NA
ATOM      7  C   UNL     1      -2.202   0.527  24.562  0.00  0.00    +0.155 C 
ATOM      8  C   UNL     1      -2.437   1.308  24.684  0.00  0.00    +0.055 C 
ATOM      9  C   UNL     1      -3.198   1.605  24.798  0.00  0.00    -0.002 A 
ATOM     10  C   UNL     1      -3.362   2.405  24.915  0.00  0.00    +0.072 A 
ATOM     11  N   UNL     1      -4.177   2.488  25.008  0.00  0.00    -0.322 N 
ATOM     15  C   UNL     1      -4.518   1.739  24.949  0.00  0.00    +0.060 A 
ATOM     16  C   UNL     1      -3.913   1.193  24.819  0.00  0.00    +0.011 A 
ATOM     17  C   UNL     1      -4.042   0.383  24.730  0.00  0.00    -0.005 A 
ATOM     18  C   UNL     1      -4.873   0.137  24.783  0.00  0.00    -0.003 A 
ATOM     19  C   UNL     1      -5.479   0.682  24.913  0.00  0.00    +0.001 A 
ATOM     20  C   UNL     1      -5.301   1.483  24.996  0.00  0.00    +0.017 A 
ENDROOT
BRANCH   7  21
ATOM     21  C   UNL     1      -1.391   0.407  24.464  0.00  0.00    +0.257 C 
ATOM     22  O   UNL     1      -0.915   0.258  25.122  0.00  0.00    -0.272 OA
ATOM     23  N   UNL     1      -1.058   0.437  23.711  0.00  0.00    -0.206 NA
BRANCH  23  24
ATOM     24  C   UNL     1      -0.247   0.317  23.615  0.00  0.00    +0.095 C 
ATOM     25  C   UNL     1       0.122  -0.406  23.467  0.00  0.00    +0.022 C 
ATOM     26  C   UNL     1       0.933  -0.271  23.410  0.00  0.00    +0.002 C 
ATOM     27  C   UNL     1       1.067   0.535  23.523  0.00  0.00    +0.002 C 
ATOM     28  C   UNL     1       0.338   0.898  23.649  0.00  0.00    +0.022 C 
ENDBRANCH  23  24
ENDBRANCH   7  21
BRANCH   5   4
ATOM      4  C   UNL     1      -3.796  -0.978  24.533  0.00  0.00    +0.022 C 
BRANCH   4   2
ATOM      1  C   UNL     1      -3.025  -2.169  24.363  0.00  0.00    +0.000 C 
ATOM      2  C   UNL     1      -3.386  -1.616  24.858  0.00  0.00    +0.002 C 
ATOM      3  C   UNL     1      -3.336  -1.701  25.678  0.00  0.00    +0.000 C 
ENDBRANCH   4   2
ENDBRANCH   5   4
BRANCH  11  12
ATOM     12  C   UNL     1      -4.582   3.195  25.138  0.00  0.00    +0.132 C 
BRANCH  12  13
ATOM     13  C   UNL     1      -4.166   3.878  25.342  0.00  0.00    -0.002 C 
ATOM     14  C   UNL     1      -4.574   4.573  25.513  0.00  0.00    -0.003 C 
ENDBRANCH  12  13
ENDBRANCH  11  12
TORSDOF 6
ENDMDL
