MODEL 1
REMARK VINA RESULT:     -14.1      0.000      0.000
REMARK  Name = 
REMARK  5 active torsions:
REMARK  status: ('A' for Active; 'I' for Inactive)
REMARK    1  A    between atoms: N_2  and  C_4
REMARK    2  A    between atoms: C_4  and  C_5
REMARK    3  A    between atoms: C_10  and  C_11
REMARK    4  A    between atoms: N_19  and  C_20
REMARK    5  A    between atoms: C_20  and  C_21
REMARK                            x       y       z     vdW  Elec       q    Type
REMARK                         _______ _______ _______ _____ _____    ______ ____
ROOT
ATOM     11  C   UNL     1      -3.267   2.372  24.192  0.00  0.00    +0.056 A 
ATOM     12  C   UNL     1      -3.556   3.140  24.279  0.00  0.00    +0.006 A 
ATOM     13  C   UNL     1      -4.289   3.268  24.637  0.00  0.00    +0.013 A 
ATOM     14  C   UNL     1      -4.732   2.627  24.908  0.00  0.00    +0.041 A 
ATOM     15  C   UNL     1      -5.529   2.436  25.323  0.00  0.00    +0.054 C 
ATOM     16  C   UNL     1      -6.101   2.746  25.587  0.00  0.00    +0.011 C 
ATOM     17  C   UNL     1      -5.812   1.989  25.500  0.00  0.00    +0.039 C 
ATOM     18  C   UNL     1      -5.638   1.016  25.487  0.00  0.00    +0.074 C 
ATOM     19  N   UNL     1      -4.891   1.013  25.112  0.00  0.00    -0.272 NA
ATOM     27  C   UNL     1      -5.375   1.493  25.319  0.00  0.00    +0.078 C 
ATOM     28  C   UNL     1      -4.977   2.179  25.066  0.00  0.00    +0.110 C 
ATOM     29  N   UNL     1      -4.442   1.859  24.822  0.00  0.00    -0.299 N 
ATOM     30  C   UNL     1      -3.710   1.732  24.464  0.00  0.00    +0.261 A 
ATOM     31  O   UNL     1      -3.421   0.964  24.378  0.00  0.00    -0.267 OA
ENDROOT
BRANCH  11  10
ATOM      5  C   UNL     1      -1.841   2.433  24.239  0.00  0.00    -0.006 A 
ATOM      6  C   UNL     1      -1.108   2.307  23.882  0.00  0.00    -0.003 A 
ATOM      7  C   UNL     1      -1.070   1.994  23.120  0.00  0.00    -0.000 A 
ATOM      8  C   UNL     1      -1.763   1.806  22.715  0.00  0.00    -0.000 A 
ATOM      9  C   UNL     1      -2.497   1.933  23.073  0.00  0.00    -0.000 A 
ATOM     10  C   UNL     1      -2.535   2.246  23.835  0.00  0.00    +0.002 A 
BRANCH   5   4
ATOM      4  C   UNL     1      -1.879   2.747  25.001  0.00  0.00    +0.099 C 
BRANCH   4   2
ATOM      1  C   UNL     1      -0.856   3.688  25.333  0.00  0.00    +0.090 C 
ATOM      2  N   UNL     1      -1.185   2.935  25.405  0.00  0.00    -0.267 NA
ATOM      3  C   UNL     1      -0.819   2.370  25.882  0.00  0.00    +0.090 C 
ENDBRANCH   4   2
ENDBRANCH   5   4
ENDBRANCH  11  10
BRANCH  19  20
ATOM     20  C   UNL     1      -4.195   0.712  24.786  0.00  0.00    +0.072 C 
BRANCH  20  21
ATOM     21  C   UNL     1      -4.059  -0.101  24.784  0.00  0.00    +0.016 C 
ATOM     22  C   UNL     1      -4.300  -0.559  24.142  0.00  0.00    +0.001 C 
ATOM     23  C   UNL     1      -4.163  -1.373  24.141  0.00  0.00    +0.000 C 
ATOM     24  C   UNL     1      -3.784  -1.728  24.782  0.00  0.00    +0.000 C 
ATOM     25  C   UNL     1      -3.543  -1.271  25.423  0.00  0.00    +0.000 C 
ATOM     26  C   UNL     1      -3.680  -0.457  25.425  0.00  0.00    +0.001 C 
ENDBRANCH  20  21
ENDBRANCH  19  20
TORSDOF 5
ENDMDL
MODEL 2
REMARK VINA RESULT:     -13.5      1.274      3.449
REMARK  Name = 
REMARK  5 active torsions:
REMARK  status: ('A' for Active; 'I' for Inactive)
REMARK    1  A    between atoms: N_2  and  C_4
REMARK    2  A    between atoms: C_4  and  C_5
REMARK    3  A    between atoms: C_10  and  C_11
REMARK    4  A    between atoms: N_19  and  C_20
REMARK    5  A    between atoms: C_20  and  C_21
REMARK                            x       y       z     vdW  Elec       q    Type
REMARK                         _______ _______ _______ _____ _____    ______ ____
ROOT
ATOM     11  C   UNL     1      -3.728   1.218  24.392  0.00  0.00    +0.056 A 
ATOM     12  C   UNL     1      -4.379   0.715  24.461  0.00  0.00    +0.006 A 
ATOM     13  C   UNL     1      -4.290  -0.030  24.805  0.00  0.00    +0.013 A 
ATOM     14  C   UNL     1      -3.552  -0.271  25.082  0.00  0.00    +0.041 A 
ATOM     15  C   UNL     1      -3.140  -0.985  25.489  0.00  0.00    +0.054 C 
ATOM     16  C   UNL     1      -3.273  -1.627  25.738  0.00  0.00    +0.011 C 
ATOM     17  C   UNL     1      -2.633  -1.128  25.670  0.00  0.00    +0.039 C 
ATOM     18  C   UNL     1      -1.754  -0.676  25.677  0.00  0.00    +0.074 C 
ATOM     19  N   UNL     1      -1.964   0.046  25.313  0.00  0.00    -0.272 NA
ATOM     27  C   UNL     1      -2.284  -0.562  25.504  0.00  0.00    +0.078 C 
ATOM     28  C   UNL     1      -3.054  -0.377  25.244  0.00  0.00    +0.110 C 
ATOM     29  N   UNL     1      -2.901   0.233  25.014  0.00  0.00    -0.299 N 
ATOM     30  C   UNL     1      -2.989   0.977  24.669  0.00  0.00    +0.261 A 
ATOM     31  O   UNL     1      -2.339   1.480  24.601  0.00  0.00    -0.267 OA
ENDROOT
BRANCH  11  10
ATOM      5  C   UNL     1      -4.201   2.564  24.461  0.00  0.00    -0.006 A 
ATOM      6  C   UNL     1      -4.290   3.308  24.116  0.00  0.00    -0.003 A 
ATOM      7  C   UNL     1      -3.996   3.450  23.359  0.00  0.00    -0.000 A 
ATOM      8  C   UNL     1      -3.612   2.848  22.945  0.00  0.00    -0.000 A 
ATOM      9  C   UNL     1      -3.523   2.103  23.290  0.00  0.00    -0.000 A 
ATOM     10  C   UNL     1      -3.817   1.961  24.048  0.00  0.00    +0.002 A 
BRANCH   5   4
ATOM      4  C   UNL     1      -4.495   2.422  25.218  0.00  0.00    +0.099 C 
BRANCH   4   2
ATOM      1  C   UNL     1      -5.666   3.120  25.648  0.00  0.00    +0.090 C 
ATOM      2  N   UNL     1      -4.845   3.034  25.646  0.00  0.00    -0.267 NA
ATOM      3  C   UNL     1      -4.375   3.562  26.072  0.00  0.00    +0.090 C 
ENDBRANCH   4   2
ENDBRANCH   5   4
ENDBRANCH  11  10
BRANCH  19  20
ATOM     20  C   UNL     1      -1.876   0.805  25.003  0.00  0.00    +0.072 C 
BRANCH  20  21
ATOM     21  C   UNL     1      -1.141   1.178  25.027  0.00  0.00    +0.016 C 
ATOM     22  C   UNL     1      -0.609   1.082  24.405  0.00  0.00    +0.001 C 
ATOM     23  C   UNL     1       0.127   1.455  24.430  0.00  0.00    +0.000 C 
ATOM     24  C   UNL     1       0.329   1.925  25.077  0.00  0.00    +0.000 C 
ATOM     25  C   UNL     1      -0.203   2.022  25.699  0.00  0.00    +0.000 C 
ATOM     26  C   UNL     1      -0.939   1.649  25.674  0.00  0.00    +0.001 C 
ENDBRANCH  20  21
ENDBRANCH  19  20
TORSDOF 5
ENDMDL
MODEL 3
REMARK VINA RESULT:     -12.7      1.425      3.100
REMARK  Name = 
REMARK  5 active torsions:
REMARK  status: ('A' for Active; 'I' for Inactive)
REMARK    1  A    between atoms: N_2  and  C_4
REMARK    2  A    between atoms: C_4  and  C_5
REMARK    3  A    between atoms: C_10  and  C_11
REMARK    4  A    between atoms: N_19  and  C_20
REMARK    5  A    between atoms: C_20  and  C_21
REMARK                            x       y       z     vdW  Elec       q    Type
REMARK                         _______ _______ _______ _____ _____    ______ ____
ROOT
ATOM     11  C   UNL     1      -3.065   0.967  24.291  0.00  0.00    +0.056 A 
ATOM     12  C   UNL     1      -3.652   0.401  24.166  0.00  0.00    +0.006 A 
ATOM     13  C   UNL     1      -4.435   0.565  24.369  0.00  0.00    +0.013 A 
ATOM     14  C   UNL     1      -4.630   1.295  24.699  0.00  0.00    +0.041 A 
ATOM     15  C   UNL     1      -5.354   1.764  25.016  0.00  0.00    +0.054 C 
ATOM     16  C   UNL     1      -6.047   1.707  25.115  0.00  0.00    +0.011 C 
ATOM     17  C   UNL     1      -5.465   2.264  25.237  0.00  0.00    +0.039 C 
ATOM     18  C   UNL     1      -4.914   3.054  25.460  0.00  0.00    +0.074 C 
ATOM     19  N   UNL     1      -4.165   2.775  25.215  0.00  0.00    -0.272 NA
ATOM     27  C   UNL     1      -4.836   2.535  25.236  0.00  0.00    +0.078 C 
ATOM     28  C   UNL     1      -4.703   1.782  24.908  0.00  0.00    +0.110 C 
ATOM     29  N   UNL     1      -4.043   1.861  24.825  0.00  0.00    -0.299 N 
ATOM     30  C   UNL     1      -3.261   1.697  24.621  0.00  0.00    +0.261 A 
ATOM     31  O   UNL     1      -2.674   2.264  24.747  0.00  0.00    -0.267 OA
ENDROOT
BRANCH  11  10
ATOM      5  C   UNL     1      -1.860   0.232  24.506  0.00  0.00    -0.006 A 
ATOM      6  C   UNL     1      -1.078   0.066  24.303  0.00  0.00    -0.003 A 
ATOM      7  C   UNL     1      -0.719   0.471  23.680  0.00  0.00    -0.000 A 
ATOM      8  C   UNL     1      -1.142   1.042  23.261  0.00  0.00    -0.000 A 
ATOM      9  C   UNL     1      -1.925   1.207  23.465  0.00  0.00    -0.000 A 
ATOM     10  C   UNL     1      -2.284   0.802  24.087  0.00  0.00    +0.002 A 
BRANCH   5   4
ATOM      4  C   UNL     1      -2.218  -0.173  25.129  0.00  0.00    +0.099 C 
BRANCH   4   2
ATOM      1  C   UNL     1      -1.831  -1.541  25.277  0.00  0.00    +0.090 C 
ATOM      2  N   UNL     1      -1.801  -0.758  25.535  0.00  0.00    -0.267 NA
ATOM      3  C   UNL     1      -1.354  -0.560  26.200  0.00  0.00    +0.090 C 
ENDBRANCH   4   2
ENDBRANCH   5   4
ENDBRANCH  11  10
BRANCH  19  20
ATOM     20  C   UNL     1      -3.352   2.777  25.073  0.00  0.00    +0.072 C 
BRANCH  20  21
ATOM     21  C   UNL     1      -2.904   3.446  25.254  0.00  0.00    +0.016 C 
ATOM     22  C   UNL     1      -2.549   3.517  25.995  0.00  0.00    +0.001 C 
ATOM     23  C   UNL     1      -2.100   4.186  26.175  0.00  0.00    +0.000 C 
ATOM     24  C   UNL     1      -2.007   4.783  25.614  0.00  0.00    +0.000 C 
ATOM     25  C   UNL     1      -2.361   4.712  24.873  0.00  0.00    +0.000 C 
ATOM     26  C   UNL     1      -2.810   4.043  24.692  0.00  0.00    +0.001 C 
ENDBRANCH  20  21
ENDBRANCH  19  20
TORSDOF 5
ENDMDL
MODEL 4
REMARK VINA RESULT:     -12.6      1.492      3.332
REMARK  Name = 
REMARK  5 active torsions:
REMARK  status: ('A' for Active; 'I' for Inactive)
REMARK    1  A    between atoms: N_2  and  C_4
REMARK    2  A    between atoms: C_4  and  C_5
REMARK    3  A    between atoms: C_10  and  C_11
REMARK    4  A    between atoms: N_19  and  C_20
REMARK    5  A    between atoms: C_20  and  C_21
REMARK                            x       y       z     vdW  Elec       q    Type
REMARK                         _______ _______ _______ _____ _____    ______ ____
ROOT
ATOM     11  C   UNL     1      -1.471   0.284  25.325  0.00  0.00    +0.056 A 
ATOM     12  C   UNL     1      -1.224  -0.479  25.521  0.00  0.00    +0.006 A 
ATOM     13  C   UNL     1      -1.761  -1.105  25.502  0.00  0.00    +0.013 A 
ATOM     14  C   UNL     1      -2.546  -0.968  25.287  0.00  0.00    +0.041 A 
ATOM     15  C   UNL     1      -3.342  -1.413  25.173  0.00  0.00    +0.054 C 
ATOM     16  C   UNL     1      -3.627  -2.052  25.218  0.00  0.00    +0.011 C 
ATOM     17  C   UNL     1      -3.867  -1.299  25.025  0.00  0.00    +0.039 C 
ATOM     18  C   UNL     1      -4.343  -0.473  24.763  0.00  0.00    +0.074 C 
ATOM     19  N   UNL     1      -3.715   0.074  24.818  0.00  0.00    -0.272 NA
ATOM     27  C   UNL     1      -3.816  -0.624  24.918  0.00  0.00    +0.078 C 
ATOM     28  C   UNL     1      -3.040  -0.826  25.142  0.00  0.00    +0.110 C 
ATOM     29  N   UNL     1      -2.793  -0.206  25.091  0.00  0.00    -0.299 N 
ATOM     30  C   UNL     1      -2.256   0.420  25.110  0.00  0.00    +0.261 A 
ATOM     31  O   UNL     1      -2.503   1.182  24.914  0.00  0.00    -0.267 OA
ENDROOT
BRANCH  11  10
ATOM      5  C   UNL     1      -0.358   0.974  24.757  0.00  0.00    -0.006 A 
ATOM      6  C   UNL     1       0.181   1.599  24.776  0.00  0.00    -0.003 A 
ATOM      7  C   UNL     1       0.142   2.158  25.381  0.00  0.00    -0.000 A 
ATOM      8  C   UNL     1      -0.433   2.093  25.968  0.00  0.00    -0.000 A 
ATOM      9  C   UNL     1      -0.972   1.468  25.949  0.00  0.00    -0.000 A 
ATOM     10  C   UNL     1      -0.934   0.909  25.344  0.00  0.00    +0.002 A 
BRANCH   5   4
ATOM      4  C   UNL     1      -0.319   0.415  24.152  0.00  0.00    +0.099 C 
BRANCH   4   2
ATOM      1  C   UNL     1       0.939   0.128  23.540  0.00  0.00    +0.090 C 
ATOM      2  N   UNL     1       0.212   0.517  23.529  0.00  0.00    -0.267 NA
ATOM      3  C   UNL     1       0.016   1.009  22.896  0.00  0.00    +0.090 C 
ENDBRANCH   4   2
ENDBRANCH   5   4
ENDBRANCH  11  10
BRANCH  19  20
ATOM     20  C   UNL     1      -3.319   0.798  24.785  0.00  0.00    +0.072 C 
BRANCH  20  21
ATOM     21  C   UNL     1      -3.728   1.482  24.571  0.00  0.00    +0.016 C 
ATOM     22  C   UNL     1      -4.192   1.876  25.127  0.00  0.00    +0.001 C 
ATOM     23  C   UNL     1      -4.601   2.561  24.913  0.00  0.00    +0.000 C 
ATOM     24  C   UNL     1      -4.545   2.849  24.143  0.00  0.00    +0.000 C 
ATOM     25  C   UNL     1      -4.082   2.456  23.586  0.00  0.00    +0.000 C 
ATOM     26  C   UNL     1      -3.673   1.771  23.800  0.00  0.00    +0.001 C 
ENDBRANCH  20  21
ENDBRANCH  19  20
TORSDOF 5
ENDMDL
MODEL 5
REMARK VINA RESULT:     -12.4      1.067      3.229
REMARK  Name = 
REMARK  5 active torsions:
REMARK  status: ('A' for Active; 'I' for Inactive)
REMARK    1  A    between atoms: N_2  and  C_4
REMARK    2  A    between atoms: C_4  and  C_5
REMARK    3  A    between atoms: C_10  and  C_11
REMARK    4  A    between atoms: N_19  and  C_20
REMARK    5  A    between atoms: C_20  and  C_21
REMARK                            x       y       z     vdW  Elec       q    Type
REMARK                         _______ _______ _______ _____ _____    ______ ____
ROOT
ATOM     11  C   UNL     1      -4.458   0.195  24.799  0.00  0.00    +0.056 A 
ATOM     12  C   UNL     1      -5.056   0.253  25.364  0.00  0.00    +0.006 A 
ATOM     13  C   UNL     1      -5.325   0.994  25.606  0.00  0.00    +0.013 A 
ATOM     14  C   UNL     1      -4.997   1.678  25.281  0.00  0.00    +0.041 A 
ATOM     15  C   UNL     1      -5.064   2.593  25.328  0.00  0.00    +0.054 C 
ATOM     16  C   UNL     1      -5.419   3.103  25.654  0.00  0.00    +0.011 C 
ATOM     17  C   UNL     1      -4.828   3.042  25.096  0.00  0.00    +0.039 C 
ATOM     18  C   UNL     1      -4.119   3.175  24.421  0.00  0.00    +0.074 C 
ATOM     19  N   UNL     1      -3.930   2.377  24.258  0.00  0.00    -0.272 NA
ATOM     27  C   UNL     1      -4.380   2.738  24.677  0.00  0.00    +0.078 C 
ATOM     28  C   UNL     1      -4.751   2.087  25.041  0.00  0.00    +0.110 C 
ATOM     29  N   UNL     1      -4.399   1.620  24.716  0.00  0.00    -0.299 N 
ATOM     30  C   UNL     1      -4.129   0.879  24.474  0.00  0.00    +0.261 A 
ATOM     31  O   UNL     1      -3.531   0.821  23.909  0.00  0.00    -0.267 OA
ENDROOT
BRANCH  11  10
ATOM      5  C   UNL     1      -3.657  -0.965  25.029  0.00  0.00    -0.006 A 
ATOM      6  C   UNL     1      -3.387  -1.707  24.789  0.00  0.00    -0.003 A 
ATOM      7  C   UNL     1      -3.650  -2.030  24.078  0.00  0.00    -0.000 A 
ATOM      8  C   UNL     1      -4.183  -1.612  23.606  0.00  0.00    -0.000 A 
ATOM      9  C   UNL     1      -4.452  -0.870  23.846  0.00  0.00    -0.000 A 
ATOM     10  C   UNL     1      -4.189  -0.546  24.558  0.00  0.00    +0.002 A 
BRANCH   5   4
ATOM      4  C   UNL     1      -3.394  -0.641  25.741  0.00  0.00    +0.099 C 
BRANCH   4   2
ATOM      1  C   UNL     1      -3.037  -1.603  26.736  0.00  0.00    +0.090 C 
ATOM      2  N   UNL     1      -2.817  -1.032  26.183  0.00  0.00    -0.267 NA
ATOM      3  C   UNL     1      -2.020  -0.851  26.073  0.00  0.00    +0.090 C 
ENDBRANCH   4   2
ENDBRANCH   5   4
ENDBRANCH  11  10
BRANCH  19  20
ATOM     20  C   UNL     1      -3.551   1.732  23.911  0.00  0.00    +0.072 C 
BRANCH  20  21
ATOM     21  C   UNL     1      -2.935   1.854  23.377  0.00  0.00    +0.016 C 
ATOM     22  C   UNL     1      -3.094   1.929  22.572  0.00  0.00    +0.001 C 
ATOM     23  C   UNL     1      -2.477   2.052  22.038  0.00  0.00    +0.000 C 
ATOM     24  C   UNL     1      -1.700   2.098  22.310  0.00  0.00    +0.000 C 
ATOM     25  C   UNL     1      -1.539   2.022  23.115  0.00  0.00    +0.000 C 
ATOM     26  C   UNL     1      -2.157   1.900  23.649  0.00  0.00    +0.001 C 
ENDBRANCH  20  21
ENDBRANCH  19  20
TORSDOF 5
ENDMDL
MODEL 6
REMARK VINA RESULT:     -12.4      1.532      3.308
REMARK  Name = 
REMARK  5 active torsions:
REMARK  status: ('A' for Active; 'I' for Inactive)
REMARK    1  A    between atoms: N_2  and  C_4
REMARK    2  A    between atoms: C_4  and  C_5
REMARK    3  A    between atoms: C_10  and  C_11
REMARK    4  A    between atoms: N_19  and  C_20
REMARK    5  A    between atoms: C_20  and  C_21
REMARK                            x       y       z     vdW  Elec       q    Type
REMARK                         _______ _______ _______ _____ _____    ______ ____
ROOT
ATOM     11  C   UNL     1      -2.143   1.934  24.019  0.00  0.00    +0.056 A 
ATOM     12  C   UNL     1      -1.493   2.332  23.702  0.00  0.00    +0.006 A 
ATOM     13  C   UNL     1      -0.777   1.936  23.598  0.00  0.00    +0.013 A 
ATOM     14  C   UNL     1      -0.711   1.142  23.809  0.00  0.00    +0.041 A 
ATOM     15  C   UNL     1      -0.100   0.456  23.822  0.00  0.00    +0.054 C 
ATOM     16  C   UNL     1       0.567   0.309  23.660  0.00  0.00    +0.011 C 
ATOM     17  C   UNL     1      -0.076  -0.081  23.972  0.00  0.00    +0.039 C 
ATOM     18  C   UNL     1      -0.728  -0.716  24.358  0.00  0.00    +0.074 C 
ATOM     19  N   UNL     1      -1.394  -0.214  24.416  0.00  0.00    -0.272 NA
ATOM     27  C   UNL     1      -0.718  -0.169  24.195  0.00  0.00    +0.078 C 
ATOM     28  C   UNL     1      -0.721   0.630  23.962  0.00  0.00    +0.110 C 
ATOM     29  N   UNL     1      -1.361   0.744  24.126  0.00  0.00    -0.299 N 
ATOM     30  C   UNL     1      -2.077   1.140  24.230  0.00  0.00    +0.261 A 
ATOM     31  O   UNL     1      -2.726   0.741  24.547  0.00  0.00    -0.267 OA
ENDROOT
BRANCH  11  10
ATOM      5  C   UNL     1      -2.924   2.918  24.699  0.00  0.00    -0.006 A 
ATOM      6  C   UNL     1      -3.639   3.315  24.804  0.00  0.00    -0.003 A 
ATOM      7  C   UNL     1      -4.289   3.125  24.333  0.00  0.00    -0.000 A 
ATOM      8  C   UNL     1      -4.225   2.538  23.757  0.00  0.00    -0.000 A 
ATOM      9  C   UNL     1      -3.508   2.141  23.652  0.00  0.00    -0.000 A 
ATOM     10  C   UNL     1      -2.858   2.331  24.123  0.00  0.00    +0.002 A 
BRANCH   5   4
ATOM      4  C   UNL     1      -2.274   3.108  25.170  0.00  0.00    +0.099 C 
BRANCH   4   2
ATOM      1  C   UNL     1      -2.630   3.605  26.461  0.00  0.00    +0.090 C 
ATOM      2  N   UNL     1      -2.322   3.732  25.707  0.00  0.00    -0.267 NA
ATOM      3  C   UNL     1      -2.062   4.485  25.490  0.00  0.00    +0.090 C 
ENDBRANCH   4   2
ENDBRANCH   5   4
ENDBRANCH  11  10
BRANCH  19  20
ATOM     20  C   UNL     1      -2.166   0.023  24.584  0.00  0.00    +0.072 C 
BRANCH  20  21
ATOM     21  C   UNL     1      -2.709  -0.520  24.884  0.00  0.00    +0.016 C 
ATOM     22  C   UNL     1      -2.766  -0.640  25.698  0.00  0.00    +0.001 C 
ATOM     23  C   UNL     1      -3.309  -1.185  25.999  0.00  0.00    +0.000 C 
ATOM     24  C   UNL     1      -3.794  -1.609  25.484  0.00  0.00    +0.000 C 
ATOM     25  C   UNL     1      -3.737  -1.490  24.671  0.00  0.00    +0.000 C 
ATOM     26  C   UNL     1      -3.194  -0.946  24.370  0.00  0.00    +0.001 C 
ENDBRANCH  20  21
ENDBRANCH  19  20
TORSDOF 5
ENDMDL
MODEL 7
REMARK VINA RESULT:     -12.2      1.722      3.568
REMARK  Name = 
REMARK  5 active torsions:
REMARK  status: ('A' for Active; 'I' for Inactive)
REMARK    1  A    between atoms: N_2  and  C_4
REMARK    2  A    between atoms: C_4  and  C_5
REMARK    3  A    between atoms: C_10  and  C_11
REMARK    4  A    between atoms: N_19  and  C_20
REMARK    5  A    between atoms: C_20  and  C_21
REMARK                            x       y       z     vdW  Elec       q    Type
REMARK                         _______ _______ _______ _____ _____    ______ ____
ROOT
ATOM     11  C   UNL     1      -0.945   1.719  25.315  0.00  0.00    +0.056 A 
ATOM     12  C   UNL     1      -0.223   2.097  25.440  0.00  0.00    +0.006 A 
ATOM     13  C   UNL     1      -0.181   2.921  25.430  0.00  0.00    +0.013 A 
ATOM     14  C   UNL     1      -0.862   3.366  25.295  0.00  0.00    +0.041 A 
ATOM     15  C   UNL     1      -1.142   4.239  25.225  0.00  0.00    +0.054 C 
ATOM     16  C   UNL     1      -0.903   4.898  25.255  0.00  0.00    +0.011 C 
ATOM     17  C   UNL     1      -1.614   4.521  25.132  0.00  0.00    +0.039 C 
ATOM     18  C   UNL     1      -2.551   4.255  24.965  0.00  0.00    +0.074 C 
ATOM     19  N   UNL     1      -2.469   3.425  24.998  0.00  0.00    -0.272 NA
ATOM     27  C   UNL     1      -2.052   3.998  25.063  0.00  0.00    +0.078 C 
ATOM     28  C   UNL     1      -1.331   3.606  25.204  0.00  0.00    +0.110 C 
ATOM     29  N   UNL     1      -1.585   2.988  25.170  0.00  0.00    -0.299 N 
ATOM     30  C   UNL     1      -1.626   2.164  25.180  0.00  0.00    +0.261 A 
ATOM     31  O   UNL     1      -2.349   1.785  25.056  0.00  0.00    -0.267 OA
ENDROOT
BRANCH  11  10
ATOM      5  C   UNL     1      -0.650   0.459  24.712  0.00  0.00    -0.006 A 
ATOM      6  C   UNL     1      -0.690  -0.365  24.721  0.00  0.00    -0.003 A 
ATOM      7  C   UNL     1      -1.066  -0.752  25.345  0.00  0.00    -0.000 A 
ATOM      8  C   UNL     1      -1.402  -0.317  25.959  0.00  0.00    -0.000 A 
ATOM      9  C   UNL     1      -1.362   0.508  25.949  0.00  0.00    -0.000 A 
ATOM     10  C   UNL     1      -0.986   0.895  25.326  0.00  0.00    +0.002 A 
BRANCH   5   4
ATOM      4  C   UNL     1      -0.273   0.846  24.088  0.00  0.00    +0.099 C 
BRANCH   4   2
ATOM      1  C   UNL     1       0.794   0.132  23.461  0.00  0.00    +0.090 C 
ATOM      2  N   UNL     1       0.018   0.412  23.449  0.00  0.00    -0.267 NA
ATOM      3  C   UNL     1      -0.465   0.260  22.799  0.00  0.00    +0.090 C 
ENDBRANCH   4   2
ENDBRANCH   5   4
ENDBRANCH  11  10
BRANCH  19  20
ATOM     20  C   UNL     1      -2.686   2.628  24.976  0.00  0.00    +0.072 C 
BRANCH  20  21
ATOM     21  C   UNL     1      -3.470   2.418  24.835  0.00  0.00    +0.016 C 
ATOM     22  C   UNL     1      -3.722   2.252  24.067  0.00  0.00    +0.001 C 
ATOM     23  C   UNL     1      -4.508   2.042  23.927  0.00  0.00    +0.000 C 
ATOM     24  C   UNL     1      -5.041   1.997  24.554  0.00  0.00    +0.000 C 
ATOM     25  C   UNL     1      -4.790   2.163  25.322  0.00  0.00    +0.000 C 
ATOM     26  C   UNL     1      -4.004   2.374  25.463  0.00  0.00    +0.001 C 
ENDBRANCH  20  21
ENDBRANCH  19  20
TORSDOF 5
ENDMDL
MODEL 8
REMARK VINA RESULT:     -11.9      1.415      3.301
REMARK  Name = 
REMARK  5 active torsions:
REMARK  status: ('A' for Active; 'I' for Inactive)
REMARK    1  A    between atoms: N_2  and  C_4
REMARK    2  A    between atoms: C_4  and  C_5
REMARK    3  A    between atoms: C_10  and  C_11
REMARK    4  A    between atoms: N_19  and  C_20
REMARK    5  A    between atoms: C_20  and  C_21
REMARK                            x       y       z     vdW  Elec       q    Type
REMARK                         _______ _______ _______ _____ _____    ______ ____
ROOT
ATOM     11  C   UNL     1      -3.245   0.254  23.889  0.00  0.00    +0.056 A 
ATOM     12  C   UNL     1      -2.616   0.353  23.365  0.00  0.00    +0.006 A 
ATOM     13  C   UNL     1      -2.449   1.099  23.056  0.00  0.00    +0.013 A 
ATOM     14  C   UNL     1      -2.912   1.747  23.272  0.00  0.00    +0.041 A 
ATOM     15  C   UNL     1      -2.990   2.650  23.121  0.00  0.00    +0.054 C 
ATOM     16  C   UNL     1      -2.694   3.176  22.762  0.00  0.00    +0.011 C 
ATOM     17  C   UNL     1      -3.315   3.075  23.279  0.00  0.00    +0.039 C 
ATOM     18  C   UNL     1      -4.095   3.154  23.880  0.00  0.00    +0.074 C 
ATOM     19  N   UNL     1      -4.166   2.358  24.124  0.00  0.00    -0.272 NA
ATOM     27  C   UNL     1      -3.745   2.744  23.698  0.00  0.00    +0.078 C 
ATOM     28  C   UNL     1      -3.241   2.131  23.443  0.00  0.00    +0.110 C 
ATOM     29  N   UNL     1      -3.542   1.648  23.795  0.00  0.00    -0.299 N 
ATOM     30  C   UNL     1      -3.708   0.901  24.104  0.00  0.00    +0.261 A 
ATOM     31  O   UNL     1      -4.338   0.802  24.628  0.00  0.00    -0.267 OA
ENDROOT
BRANCH  11  10
ATOM      5  C   UNL     1      -2.895  -0.839  24.740  0.00  0.00    -0.006 A 
ATOM      6  C   UNL     1      -3.060  -1.586  25.048  0.00  0.00    -0.003 A 
ATOM      7  C   UNL     1      -3.742  -1.987  24.814  0.00  0.00    -0.000 A 
ATOM      8  C   UNL     1      -4.258  -1.642  24.271  0.00  0.00    -0.000 A 
ATOM      9  C   UNL     1      -4.092  -0.894  23.962  0.00  0.00    -0.000 A 
ATOM     10  C   UNL     1      -3.411  -0.493  24.197  0.00  0.00    +0.002 A 
BRANCH   5   4
ATOM      4  C   UNL     1      -2.214  -0.437  24.974  0.00  0.00    +0.099 C 
BRANCH   4   2
ATOM      1  C   UNL     1      -1.066  -1.260  25.193  0.00  0.00    +0.090 C 
ATOM      2  N   UNL     1      -1.680  -0.797  25.491  0.00  0.00    -0.267 NA
ATOM      3  C   UNL     1      -1.761  -0.694  26.305  0.00  0.00    +0.090 C 
ENDBRANCH   4   2
ENDBRANCH   5   4
ENDBRANCH  11  10
BRANCH  19  20
ATOM     20  C   UNL     1      -4.465   1.698  24.518  0.00  0.00    +0.072 C 
BRANCH  20  21
ATOM     21  C   UNL     1      -5.124   1.774  25.008  0.00  0.00    +0.016 C 
ATOM     22  C   UNL     1      -5.881   1.646  24.706  0.00  0.00    +0.001 C 
ATOM     23  C   UNL     1      -6.540   1.722  25.196  0.00  0.00    +0.000 C 
ATOM     24  C   UNL     1      -6.442   1.926  25.989  0.00  0.00    +0.000 C 
ATOM     25  C   UNL     1      -5.686   2.053  26.293  0.00  0.00    +0.000 C 
ATOM     26  C   UNL     1      -5.027   1.977  25.802  0.00  0.00    +0.001 C 
ENDBRANCH  20  21
ENDBRANCH  19  20
TORSDOF 5
ENDMDL
