MODEL 1
REMARK VINA RESULT:     -12.2      0.000      0.000
REMARK  Name = 
REMARK  5 active torsions:
REMARK  status: ('A' for Active; 'I' for Inactive)
REMARK    1  A    between atoms: C_2  and  C_21
REMARK    2  A    between atoms: C_9  and  N_10
REMARK    3  A    between atoms: N_10  and  S_11
REMARK    4  A    between atoms: C_21  and  C_23
REMARK    5  A    between atoms: N_25  and  C_26
REMARK                            x       y       z     vdW  Elec       q    Type
REMARK                         _______ _______ _______ _____ _____    ______ ____
ROOT
ATOM      1  C   UNL     1      -3.737   2.018  24.374  0.00  0.00    +0.052 C 
ATOM      2  C   UNL     1      -3.431   1.964  23.609  0.00  0.00    -0.001 C 
ATOM      3  C   UNL     1      -3.298   1.225  23.269  0.00  0.00    -0.000 C 
ATOM      4  C   UNL     1      -3.470   0.540  23.694  0.00  0.00    -0.001 C 
ATOM      5  C   UNL     1      -3.165   0.486  22.930  0.00  0.00    -0.000 C 
ATOM      6  C   UNL     1      -3.337  -0.201  23.354  0.00  0.00    +0.001 C 
ATOM      7  C   UNL     1      -3.509  -0.886  23.778  0.00  0.00    +0.019 C 
ATOM      8  C   UNL     1      -3.816  -0.832  24.544  0.00  0.00    +0.097 C 
ATOM     14  C   UNL     1      -3.949  -0.093  24.883  0.00  0.00    +0.017 C 
ATOM     15  C   UNL     1      -4.255  -0.039  25.647  0.00  0.00    +0.001 C 
ATOM     16  C   UNL     1      -3.776   0.594  24.459  0.00  0.00    +0.045 C 
ATOM     17  C   UNL     1      -3.910   1.333  24.798  0.00  0.00    +0.145 C 
ATOM     18  O   UNL     1      -4.215   1.387  25.562  0.00  0.00    -0.224 OA
ENDROOT
BRANCH   1  19
ATOM     19  C   UNL     1      -3.870   2.759  24.713  0.00  0.00    +0.077 C 
ATOM     20  C   UNL     1      -4.580   2.910  25.107  0.00  0.00    +0.009 C 
BRANCH  19  21
ATOM     21  C   UNL     1      -3.295   3.348  24.659  0.00  0.00    +0.241 C 
ATOM     22  O   UNL     1      -3.277   3.847  24.001  0.00  0.00    -0.273 OA
ATOM     23  N   UNL     1      -2.740   3.439  25.261  0.00  0.00    -0.207 NA
BRANCH  23  24
ATOM     24  C   UNL     1      -2.166   4.028  25.207  0.00  0.00    +0.095 C 
ATOM     25  C   UNL     1      -2.372   4.819  25.320  0.00  0.00    +0.022 C 
ATOM     26  C   UNL     1      -1.798   5.408  25.266  0.00  0.00    +0.002 C 
ATOM     27  C   UNL     1      -1.015   5.206  25.098  0.00  0.00    +0.000 C 
ATOM     28  C   UNL     1      -0.808   4.416  24.985  0.00  0.00    +0.002 C 
ATOM     29  C   UNL     1      -1.382   3.827  25.039  0.00  0.00    +0.022 C 
ENDBRANCH  23  24
ENDBRANCH  19  21
ENDBRANCH   1  19
BRANCH   8   9
ATOM      9  N   UNL     1      -3.988  -1.519  24.968  0.00  0.00    -0.084 NA
BRANCH   9  10
ATOM     10  S   UNL     1      -3.680  -2.243  24.724  0.00  0.00    +0.059 S 
ATOM     11  C   UNL     1      -3.370  -2.969  24.480  0.00  0.00    +0.197 C 
ATOM     12  O   UNL     1      -3.026  -2.131  25.215  0.00  0.00    -0.156 OA
ATOM     13  O   UNL     1      -4.332  -2.357  24.233  0.00  0.00    -0.156 OA
ENDBRANCH   9  10
ENDBRANCH   8   9
TORSDOF 5
ENDMDL
MODEL 2
REMARK VINA RESULT:     -12.0      0.845      1.438
REMARK  Name = 
REMARK  5 active torsions:
REMARK  status: ('A' for Active; 'I' for Inactive)
REMARK    1  A    between atoms: C_2  and  C_21
REMARK    2  A    between atoms: C_9  and  N_10
REMARK    3  A    between atoms: N_10  and  S_11
REMARK    4  A    between atoms: C_21  and  C_23
REMARK    5  A    between atoms: N_25  and  C_26
REMARK                            x       y       z     vdW  Elec       q    Type
REMARK                         _______ _______ _______ _____ _____    ______ ____
ROOT
ATOM      1  C   UNL     1      -3.959   2.091  24.337  0.00  0.00    +0.052 C 
ATOM      2  C   UNL     1      -4.464   2.030  24.988  0.00  0.00    -0.001 C 
ATOM      3  C   UNL     1      -4.681   1.288  25.273  0.00  0.00    -0.000 C 
ATOM      4  C   UNL     1      -4.395   0.606  24.909  0.00  0.00    -0.001 C 
ATOM      5  C   UNL     1      -4.898   0.545  25.559  0.00  0.00    -0.000 C 
ATOM      6  C   UNL     1      -4.612  -0.137  25.195  0.00  0.00    +0.001 C 
ATOM      7  C   UNL     1      -4.325  -0.819  24.831  0.00  0.00    +0.019 C 
ATOM      8  C   UNL     1      -3.820  -0.759  24.180  0.00  0.00    +0.097 C 
ATOM     14  C   UNL     1      -3.603  -0.016  23.895  0.00  0.00    +0.017 C 
ATOM     15  C   UNL     1      -3.099   0.044  23.244  0.00  0.00    +0.001 C 
ATOM     16  C   UNL     1      -3.890   0.666  24.259  0.00  0.00    +0.045 C 
ATOM     17  C   UNL     1      -3.673   1.409  23.973  0.00  0.00    +0.145 C 
ATOM     18  O   UNL     1      -3.168   1.469  23.323  0.00  0.00    -0.224 OA
ENDROOT
BRANCH   1  19
ATOM     19  C   UNL     1      -3.742   2.834  24.052  0.00  0.00    +0.077 C 
ATOM     20  C   UNL     1      -4.070   3.118  23.350  0.00  0.00    +0.009 C 
BRANCH  19  21
ATOM     21  C   UNL     1      -3.198   3.294  24.468  0.00  0.00    +0.241 C 
ATOM     22  O   UNL     1      -3.401   3.610  25.203  0.00  0.00    -0.273 OA
ATOM     23  N   UNL     1      -2.451   3.438  24.150  0.00  0.00    -0.207 NA
BRANCH  23  24
ATOM     24  C   UNL     1      -1.908   3.898  24.566  0.00  0.00    +0.095 C 
ATOM     25  C   UNL     1      -2.035   4.708  24.657  0.00  0.00    +0.022 C 
ATOM     26  C   UNL     1      -1.492   5.168  25.072  0.00  0.00    +0.002 C 
ATOM     27  C   UNL     1      -0.818   4.817  25.398  0.00  0.00    +0.000 C 
ATOM     28  C   UNL     1      -0.690   4.008  25.307  0.00  0.00    +0.002 C 
ATOM     29  C   UNL     1      -1.234   3.547  24.891  0.00  0.00    +0.022 C 
ENDBRANCH  23  24
ENDBRANCH  19  21
ENDBRANCH   1  19
BRANCH   8   9
ATOM      9  N   UNL     1      -3.533  -1.442  23.816  0.00  0.00    -0.084 NA
BRANCH   9  10
ATOM     10  S   UNL     1      -3.618  -2.173  24.186  0.00  0.00    +0.059 S 
ATOM     11  C   UNL     1      -3.703  -2.906  24.556  0.00  0.00    +0.197 C 
ATOM     12  O   UNL     1      -4.333  -2.291  23.791  0.00  0.00    -0.156 OA
ATOM     13  O   UNL     1      -2.904  -2.057  24.581  0.00  0.00    -0.156 OA
ENDBRANCH   9  10
ENDBRANCH   8   9
TORSDOF 5
ENDMDL
MODEL 3
REMARK VINA RESULT:     -11.8      1.020      1.479
REMARK  Name = 
REMARK  5 active torsions:
REMARK  status: ('A' for Active; 'I' for Inactive)
REMARK    1  A    between atoms: C_2  and  C_21
REMARK    2  A    between atoms: C_9  and  N_10
REMARK    3  A    between atoms: N_10  and  S_11
REMARK    4  A    between atoms: C_21  and  C_23
REMARK    5  A    between atoms: N_25  and  C_26
REMARK                            x       y       z     vdW  Elec       q    Type
REMARK                         _______ _______ _______ _____ _____    ______ ____
ROOT
ATOM      1  C   UNL     1      -3.106   1.509  23.856  0.00  0.00    +0.052 C 
ATOM      2  C   UNL     1      -3.910   1.587  24.027  0.00  0.00    -0.001 C 
ATOM      3  C   UNL     1      -4.326   0.953  24.350  0.00  0.00    -0.000 C 
ATOM      4  C   UNL     1      -3.939   0.241  24.503  0.00  0.00    -0.001 C 
ATOM      5  C   UNL     1      -4.742   0.319  24.673  0.00  0.00    -0.000 C 
ATOM      6  C   UNL     1      -4.355  -0.394  24.826  0.00  0.00    +0.001 C 
ATOM      7  C   UNL     1      -3.969  -1.106  24.979  0.00  0.00    +0.019 C 
ATOM      8  C   UNL     1      -3.165  -1.184  24.808  0.00  0.00    +0.097 C 
ATOM     14  C   UNL     1      -2.749  -0.550  24.485  0.00  0.00    +0.017 C 
ATOM     15  C   UNL     1      -1.945  -0.628  24.315  0.00  0.00    +0.001 C 
ATOM     16  C   UNL     1      -3.135   0.163  24.332  0.00  0.00    +0.045 C 
ATOM     17  C   UNL     1      -2.719   0.797  24.009  0.00  0.00    +0.145 C 
ATOM     18  O   UNL     1      -1.916   0.719  23.838  0.00  0.00    -0.224 OA
ENDROOT
BRANCH   1  19
ATOM     19  C   UNL     1      -2.690   2.144  23.533  0.00  0.00    +0.077 C 
ATOM     20  C   UNL     1      -2.340   2.071  22.789  0.00  0.00    +0.009 C 
BRANCH  19  21
ATOM     21  C   UNL     1      -2.623   2.851  23.952  0.00  0.00    +0.241 C 
ATOM     22  O   UNL     1      -3.232   3.408  23.921  0.00  0.00    -0.273 OA
ATOM     23  N   UNL     1      -1.949   3.003  24.402  0.00  0.00    -0.207 NA
BRANCH  23  24
ATOM     24  C   UNL     1      -1.882   3.710  24.820  0.00  0.00    +0.095 C 
ATOM     25  C   UNL     1      -2.334   3.831  25.500  0.00  0.00    +0.022 C 
ATOM     26  C   UNL     1      -2.267   4.538  25.919  0.00  0.00    +0.002 C 
ATOM     27  C   UNL     1      -1.749   5.126  25.658  0.00  0.00    +0.000 C 
ATOM     28  C   UNL     1      -1.297   5.005  24.979  0.00  0.00    +0.002 C 
ATOM     29  C   UNL     1      -1.363   4.297  24.559  0.00  0.00    +0.022 C 
ENDBRANCH  23  24
ENDBRANCH  19  21
ENDBRANCH   1  19
BRANCH   8   9
ATOM      9  N   UNL     1      -2.778  -1.897  24.961  0.00  0.00    -0.084 NA
BRANCH   9  10
ATOM     10  S   UNL     1      -3.187  -2.610  24.899  0.00  0.00    +0.059 S 
ATOM     11  C   UNL     1      -3.597  -3.324  24.836  0.00  0.00    +0.197 C 
ATOM     12  O   UNL     1      -3.404  -2.556  25.693  0.00  0.00    -0.156 OA
ATOM     13  O   UNL     1      -2.971  -2.666  24.105  0.00  0.00    -0.156 OA
ENDBRANCH   9  10
ENDBRANCH   8   9
TORSDOF 5
ENDMDL
MODEL 4
REMARK VINA RESULT:     -11.5      1.773      5.043
REMARK  Name = 
REMARK  5 active torsions:
REMARK  status: ('A' for Active; 'I' for Inactive)
REMARK    1  A    between atoms: C_2  and  C_21
REMARK    2  A    between atoms: C_9  and  N_10
REMARK    3  A    between atoms: N_10  and  S_11
REMARK    4  A    between atoms: C_21  and  C_23
REMARK    5  A    between atoms: N_25  and  C_26
REMARK                            x       y       z     vdW  Elec       q    Type
REMARK                         _______ _______ _______ _____ _____    ______ ____
ROOT
ATOM      1  C   UNL     1      -3.585   1.100  24.165  0.00  0.00    +0.052 C 
ATOM      2  C   UNL     1      -3.317   1.150  23.386  0.00  0.00    -0.001 C 
ATOM      3  C   UNL     1      -2.799   1.752  23.165  0.00  0.00    -0.000 C 
ATOM      4  C   UNL     1      -2.549   2.305  23.723  0.00  0.00    -0.001 C 
ATOM      5  C   UNL     1      -2.281   2.354  22.945  0.00  0.00    -0.000 C 
ATOM      6  C   UNL     1      -2.030   2.908  23.503  0.00  0.00    +0.001 C 
ATOM      7  C   UNL     1      -1.779   3.460  24.060  0.00  0.00    +0.019 C 
ATOM      8  C   UNL     1      -2.047   3.411  24.840  0.00  0.00    +0.097 C 
ATOM     14  C   UNL     1      -2.565   2.809  25.060  0.00  0.00    +0.017 C 
ATOM     15  C   UNL     1      -2.832   2.760  25.839  0.00  0.00    +0.001 C 
ATOM     16  C   UNL     1      -2.816   2.255  24.503  0.00  0.00    +0.045 C 
ATOM     17  C   UNL     1      -3.334   1.653  24.723  0.00  0.00    +0.145 C 
ATOM     18  O   UNL     1      -3.602   1.604  25.502  0.00  0.00    -0.224 OA
ENDROOT
BRANCH   1  19
ATOM     19  C   UNL     1      -4.104   0.497  24.386  0.00  0.00    +0.077 C 
ATOM     20  C   UNL     1      -4.827   0.683  24.737  0.00  0.00    +0.009 C 
BRANCH  19  21
ATOM     21  C   UNL     1      -3.900  -0.292  24.255  0.00  0.00    +0.241 C 
ATOM     22  O   UNL     1      -3.946  -0.609  23.494  0.00  0.00    -0.273 OA
ATOM     23  N   UNL     1      -3.652  -0.764  24.884  0.00  0.00    -0.207 NA
BRANCH  23  24
ATOM     24  C   UNL     1      -3.448  -1.552  24.753  0.00  0.00    +0.095 C 
ATOM     25  C   UNL     1      -4.030  -2.100  24.546  0.00  0.00    +0.022 C 
ATOM     26  C   UNL     1      -3.827  -2.888  24.415  0.00  0.00    +0.002 C 
ATOM     27  C   UNL     1      -3.041  -3.129  24.491  0.00  0.00    +0.000 C 
ATOM     28  C   UNL     1      -2.459  -2.582  24.697  0.00  0.00    +0.002 C 
ATOM     29  C   UNL     1      -2.662  -1.793  24.828  0.00  0.00    +0.022 C 
ENDBRANCH  23  24
ENDBRANCH  19  21
ENDBRANCH   1  19
BRANCH   8   9
ATOM      9  N   UNL     1      -1.795   3.965  25.398  0.00  0.00    -0.084 NA
BRANCH   9  10
ATOM     10  S   UNL     1      -1.315   4.594  25.168  0.00  0.00    +0.059 S 
ATOM     11  C   UNL     1      -0.834   5.224  24.937  0.00  0.00    +0.197 C 
ATOM     12  O   UNL     1      -0.645   4.127  25.286  0.00  0.00    -0.156 OA
ATOM     13  O   UNL     1      -1.984   5.062  25.049  0.00  0.00    -0.156 OA
ENDBRANCH   9  10
ENDBRANCH   8   9
TORSDOF 5
ENDMDL
MODEL 5
REMARK VINA RESULT:     -11.2      1.864      5.206
REMARK  Name = 
REMARK  5 active torsions:
REMARK  status: ('A' for Active; 'I' for Inactive)
REMARK    1  A    between atoms: C_2  and  C_21
REMARK    2  A    between atoms: C_9  and  N_10
REMARK    3  A    between atoms: N_10  and  S_11
REMARK    4  A    between atoms: C_21  and  C_23
REMARK    5  A    between atoms: N_25  and  C_26
REMARK                            x       y       z     vdW  Elec       q    Type
REMARK                         _______ _______ _______ _____ _____    ______ ____
ROOT
ATOM      1  C   UNL     1      -3.435   1.351  24.025  0.00  0.00    +0.052 C 
ATOM      2  C   UNL     1      -4.163   1.657  24.269  0.00  0.00    -0.001 C 
ATOM      3  C   UNL     1      -4.195   2.384  24.656  0.00  0.00    -0.000 C 
ATOM      4  C   UNL     1      -3.501   2.806  24.800  0.00  0.00    -0.001 C 
ATOM      5  C   UNL     1      -4.227   3.111  25.044  0.00  0.00    -0.000 C 
ATOM      6  C   UNL     1      -3.533   3.534  25.188  0.00  0.00    +0.001 C 
ATOM      7  C   UNL     1      -2.839   3.955  25.332  0.00  0.00    +0.019 C 
ATOM      8  C   UNL     1      -2.112   3.650  25.088  0.00  0.00    +0.097 C 
ATOM     14  C   UNL     1      -2.080   2.923  24.700  0.00  0.00    +0.017 C 
ATOM     15  C   UNL     1      -1.353   2.617  24.456  0.00  0.00    +0.001 C 
ATOM     16  C   UNL     1      -2.774   2.500  24.556  0.00  0.00    +0.045 C 
ATOM     17  C   UNL     1      -2.742   1.773  24.169  0.00  0.00    +0.145 C 
ATOM     18  O   UNL     1      -2.015   1.468  23.925  0.00  0.00    -0.224 OA
ENDROOT
BRANCH   1  19
ATOM     19  C   UNL     1      -3.403   0.624  23.637  0.00  0.00    +0.077 C 
ATOM     20  C   UNL     1      -3.193   0.590  22.840  0.00  0.00    +0.009 C 
BRANCH  19  21
ATOM     21  C   UNL     1      -3.582  -0.071  24.045  0.00  0.00    +0.241 C 
ATOM     22  O   UNL     1      -4.352  -0.207  24.311  0.00  0.00    -0.273 OA
ATOM     23  N   UNL     1      -2.992  -0.629  24.188  0.00  0.00    -0.207 NA
BRANCH  23  24
ATOM     24  C   UNL     1      -3.171  -1.323  24.596  0.00  0.00    +0.095 C 
ATOM     25  C   UNL     1      -3.466  -1.977  24.189  0.00  0.00    +0.022 C 
ATOM     26  C   UNL     1      -3.645  -2.671  24.597  0.00  0.00    +0.002 C 
ATOM     27  C   UNL     1      -3.529  -2.711  25.413  0.00  0.00    +0.000 C 
ATOM     28  C   UNL     1      -3.234  -2.058  25.820  0.00  0.00    +0.002 C 
ATOM     29  C   UNL     1      -3.055  -1.363  25.412  0.00  0.00    +0.022 C 
ENDBRANCH  23  24
ENDBRANCH  19  21
ENDBRANCH   1  19
BRANCH   8   9
ATOM      9  N   UNL     1      -1.418   4.072  25.232  0.00  0.00    -0.084 NA
BRANCH   9  10
ATOM     10  S   UNL     1      -1.407   4.891  25.140  0.00  0.00    +0.059 S 
ATOM     11  C   UNL     1      -1.395   5.712  25.048  0.00  0.00    +0.197 C 
ATOM     12  O   UNL     1      -1.044   4.804  24.404  0.00  0.00    -0.156 OA
ATOM     13  O   UNL     1      -1.770   4.980  25.875  0.00  0.00    -0.156 OA
ENDBRANCH   9  10
ENDBRANCH   8   9
TORSDOF 5
ENDMDL
MODEL 6
REMARK VINA RESULT:     -11.0      1.481      1.839
REMARK  Name = 
REMARK  5 active torsions:
REMARK  status: ('A' for Active; 'I' for Inactive)
REMARK    1  A    between atoms: C_2  and  C_21
REMARK    2  A    between atoms: C_9  and  N_10
REMARK    3  A    between atoms: N_10  and  S_11
REMARK    4  A    between atoms: C_21  and  C_23
REMARK    5  A    between atoms: N_25  and  C_26
REMARK                            x       y       z     vdW  Elec       q    Type
REMARK                         _______ _______ _______ _____ _____    ______ ____
ROOT
ATOM      1  C   UNL     1      -1.853   1.141  24.035  0.00  0.00    +0.052 C 
ATOM      2  C   UNL     1      -1.118   0.860  24.286  0.00  0.00    -0.001 C 
ATOM      3  C   UNL     1      -1.045   0.089  24.567  0.00  0.00    -0.000 C 
ATOM      4  C   UNL     1      -1.707  -0.402  24.600  0.00  0.00    -0.001 C 
ATOM      5  C   UNL     1      -0.973  -0.682  24.849  0.00  0.00    -0.000 C 
ATOM      6  C   UNL     1      -1.635  -1.174  24.882  0.00  0.00    +0.001 C 
ATOM      7  C   UNL     1      -2.297  -1.665  24.914  0.00  0.00    +0.019 C 
ATOM      8  C   UNL     1      -3.032  -1.384  24.664  0.00  0.00    +0.097 C 
ATOM     14  C   UNL     1      -3.104  -0.613  24.382  0.00  0.00    +0.017 C 
ATOM     15  C   UNL     1      -3.838  -0.332  24.132  0.00  0.00    +0.001 C 
ATOM     16  C   UNL     1      -2.442  -0.121  24.349  0.00  0.00    +0.045 C 
ATOM     17  C   UNL     1      -2.514   0.651  24.068  0.00  0.00    +0.145 C 
ATOM     18  O   UNL     1      -3.249   0.931  23.818  0.00  0.00    -0.224 OA
ENDROOT
BRANCH   1  19
ATOM     19  C   UNL     1      -1.925   1.914  23.753  0.00  0.00    +0.077 C 
ATOM     20  C   UNL     1      -2.087   2.047  22.956  0.00  0.00    +0.009 C 
BRANCH  19  21
ATOM     21  C   UNL     1      -1.834   2.552  24.268  0.00  0.00    +0.241 C 
ATOM     22  O   UNL     1      -1.129   2.646  24.688  0.00  0.00    -0.273 OA
ATOM     23  N   UNL     1      -2.446   3.096  24.363  0.00  0.00    -0.207 NA
BRANCH  23  24
ATOM     24  C   UNL     1      -2.355   3.734  24.877  0.00  0.00    +0.095 C 
ATOM     25  C   UNL     1      -1.833   4.345  24.689  0.00  0.00    +0.022 C 
ATOM     26  C   UNL     1      -1.742   4.983  25.203  0.00  0.00    +0.002 C 
ATOM     27  C   UNL     1      -2.173   5.011  25.907  0.00  0.00    +0.000 C 
ATOM     28  C   UNL     1      -2.695   4.401  26.095  0.00  0.00    +0.002 C 
ATOM     29  C   UNL     1      -2.786   3.762  25.581  0.00  0.00    +0.022 C 
ENDBRANCH  23  24
ENDBRANCH  19  21
ENDBRANCH   1  19
BRANCH   8   9
ATOM      9  N   UNL     1      -3.694  -1.876  24.696  0.00  0.00    -0.084 NA
BRANCH   9  10
ATOM     10  S   UNL     1      -3.599  -2.695  24.707  0.00  0.00    +0.059 S 
ATOM     11  C   UNL     1      -3.505  -3.515  24.719  0.00  0.00    +0.197 C 
ATOM     12  O   UNL     1      -3.554  -2.679  25.531  0.00  0.00    -0.156 OA
ATOM     13  O   UNL     1      -3.644  -2.712  23.884  0.00  0.00    -0.156 OA
ENDBRANCH   9  10
ENDBRANCH   8   9
TORSDOF 5
ENDMDL
MODEL 7
REMARK VINA RESULT:     -11.0      2.410      5.404
REMARK  Name = 
REMARK  5 active torsions:
REMARK  status: ('A' for Active; 'I' for Inactive)
REMARK    1  A    between atoms: C_2  and  C_21
REMARK    2  A    between atoms: C_9  and  N_10
REMARK    3  A    between atoms: N_10  and  S_11
REMARK    4  A    between atoms: C_21  and  C_23
REMARK    5  A    between atoms: N_25  and  C_26
REMARK                            x       y       z     vdW  Elec       q    Type
REMARK                         _______ _______ _______ _____ _____    ______ ____
ROOT
ATOM      1  C   UNL     1      -1.079   0.211  25.073  0.00  0.00    +0.052 C 
ATOM      2  C   UNL     1      -0.528   0.217  24.457  0.00  0.00    -0.001 C 
ATOM      3  C   UNL     1      -0.255   0.934  24.156  0.00  0.00    -0.000 C 
ATOM      4  C   UNL     1      -0.530   1.645  24.470  0.00  0.00    -0.001 C 
ATOM      5  C   UNL     1       0.019   1.651  23.855  0.00  0.00    -0.000 C 
ATOM      6  C   UNL     1      -0.256   2.363  24.169  0.00  0.00    +0.001 C 
ATOM      7  C   UNL     1      -0.532   3.074  24.483  0.00  0.00    +0.019 C 
ATOM      8  C   UNL     1      -1.082   3.068  25.099  0.00  0.00    +0.097 C 
ATOM     14  C   UNL     1      -1.356   2.351  25.399  0.00  0.00    +0.017 C 
ATOM     15  C   UNL     1      -1.905   2.344  26.015  0.00  0.00    +0.001 C 
ATOM     16  C   UNL     1      -1.080   1.639  25.086  0.00  0.00    +0.045 C 
ATOM     17  C   UNL     1      -1.354   0.922  25.387  0.00  0.00    +0.145 C 
ATOM     18  O   UNL     1      -1.904   0.916  26.002  0.00  0.00    -0.224 OA
ENDROOT
BRANCH   1  19
ATOM     19  C   UNL     1      -1.352  -0.507  25.374  0.00  0.00    +0.077 C 
ATOM     20  C   UNL     1      -1.099  -0.767  26.115  0.00  0.00    +0.009 C 
BRANCH  19  21
ATOM     21  C   UNL     1      -1.879  -0.966  24.934  0.00  0.00    +0.241 C 
ATOM     22  O   UNL     1      -1.638  -1.296  24.216  0.00  0.00    -0.273 OA
ATOM     23  N   UNL     1      -2.644  -1.096  25.211  0.00  0.00    -0.207 NA
BRANCH  23  24
ATOM     24  C   UNL     1      -3.170  -1.555  24.772  0.00  0.00    +0.095 C 
ATOM     25  C   UNL     1      -3.722  -1.191  24.278  0.00  0.00    +0.022 C 
ATOM     26  C   UNL     1      -4.248  -1.650  23.839  0.00  0.00    +0.002 C 
ATOM     27  C   UNL     1      -4.222  -2.474  23.893  0.00  0.00    +0.000 C 
ATOM     28  C   UNL     1      -3.670  -2.837  24.387  0.00  0.00    +0.002 C 
ATOM     29  C   UNL     1      -3.144  -2.378  24.827  0.00  0.00    +0.022 C 
ENDBRANCH  23  24
ENDBRANCH  19  21
ENDBRANCH   1  19
BRANCH   8   9
ATOM      9  N   UNL     1      -1.357   3.780  25.412  0.00  0.00    -0.084 NA
BRANCH   9  10
ATOM     10  S   UNL     1      -1.177   4.492  25.039  0.00  0.00    +0.059 S 
ATOM     11  C   UNL     1      -0.995   5.206  24.666  0.00  0.00    +0.197 C 
ATOM     12  O   UNL     1      -0.454   4.518  25.437  0.00  0.00    -0.156 OA
ATOM     13  O   UNL     1      -1.899   4.468  24.641  0.00  0.00    -0.156 OA
ENDBRANCH   9  10
ENDBRANCH   8   9
TORSDOF 5
ENDMDL
MODEL 8
REMARK VINA RESULT:     -10.7      2.250      4.677
REMARK  Name = 
REMARK  5 active torsions:
REMARK  status: ('A' for Active; 'I' for Inactive)
REMARK    1  A    between atoms: C_2  and  C_21
REMARK    2  A    between atoms: C_9  and  N_10
REMARK    3  A    between atoms: N_10  and  S_11
REMARK    4  A    between atoms: C_21  and  C_23
REMARK    5  A    between atoms: N_25  and  C_26
REMARK                            x       y       z     vdW  Elec       q    Type
REMARK                         _______ _______ _______ _____ _____    ______ ____
ROOT
ATOM      1  C   UNL     1      -3.772   0.088  24.207  0.00  0.00    +0.052 C 
ATOM      2  C   UNL     1      -3.339   0.515  23.647  0.00  0.00    -0.001 C 
ATOM      3  C   UNL     1      -3.423   1.334  23.600  0.00  0.00    -0.000 C 
ATOM      4  C   UNL     1      -3.938   1.727  24.110  0.00  0.00    -0.001 C 
ATOM      5  C   UNL     1      -3.506   2.153  23.552  0.00  0.00    -0.000 C 
ATOM      6  C   UNL     1      -4.021   2.546  24.063  0.00  0.00    +0.001 C 
ATOM      7  C   UNL     1      -4.536   2.939  24.573  0.00  0.00    +0.019 C 
ATOM      8  C   UNL     1      -4.968   2.512  25.133  0.00  0.00    +0.097 C 
ATOM     14  C   UNL     1      -4.885   1.693  25.180  0.00  0.00    +0.017 C 
ATOM     15  C   UNL     1      -5.316   1.267  25.739  0.00  0.00    +0.001 C 
ATOM     16  C   UNL     1      -4.370   1.300  24.670  0.00  0.00    +0.045 C 
ATOM     17  C   UNL     1      -4.286   0.481  24.717  0.00  0.00    +0.145 C 
ATOM     18  O   UNL     1      -4.718   0.054  25.276  0.00  0.00    -0.224 OA
ENDROOT
BRANCH   1  19
ATOM     19  C   UNL     1      -3.688  -0.731  24.254  0.00  0.00    +0.077 C 
ATOM     20  C   UNL     1      -4.264  -1.224  23.928  0.00  0.00    +0.009 C 
BRANCH  19  21
ATOM     21  C   UNL     1      -3.029  -1.059  24.627  0.00  0.00    +0.241 C 
ATOM     22  O   UNL     1      -3.055  -1.231  25.435  0.00  0.00    -0.273 OA
ATOM     23  N   UNL     1      -2.344  -1.214  24.195  0.00  0.00    -0.207 NA
BRANCH  23  24
ATOM     24  C   UNL     1      -1.686  -1.542  24.568  0.00  0.00    +0.095 C 
ATOM     25  C   UNL     1      -1.606  -2.361  24.622  0.00  0.00    +0.022 C 
ATOM     26  C   UNL     1      -0.948  -2.688  24.995  0.00  0.00    +0.002 C 
ATOM     27  C   UNL     1      -0.368  -2.196  25.315  0.00  0.00    +0.000 C 
ATOM     28  C   UNL     1      -0.447  -1.377  25.262  0.00  0.00    +0.002 C 
ATOM     29  C   UNL     1      -1.106  -1.049  24.888  0.00  0.00    +0.022 C 
ENDBRANCH  23  24
ENDBRANCH  19  21
ENDBRANCH   1  19
BRANCH   8   9
ATOM      9  N   UNL     1      -5.483   2.905  25.643  0.00  0.00    -0.084 NA
BRANCH   9  10
ATOM     10  S   UNL     1      -5.492   3.729  25.667  0.00  0.00    +0.059 S 
ATOM     11  C   UNL     1      -5.501   4.555  25.690  0.00  0.00    +0.197 C 
ATOM     12  O   UNL     1      -6.119   3.739  25.130  0.00  0.00    -0.156 OA
ATOM     13  O   UNL     1      -4.865   3.722  26.203  0.00  0.00    -0.156 OA
ENDBRANCH   9  10
ENDBRANCH   8   9
TORSDOF 5
ENDMDL
