MODEL 1
REMARK VINA RESULT:     -13.0      0.000      0.000
REMARK  Name = 
REMARK  3 active torsions:
REMARK  status: ('A' for Active; 'I' for Inactive)
REMARK    1  A    between atoms: C_7  and  N_10
REMARK    2  A    between atoms: C_13  and  C_15
REMARK    3  A    between atoms: C_18  and  C_20
REMARK                            x       y       z     vdW  Elec       q    Type
REMARK                         _______ _______ _______ _____ _____    ______ ____
ROOT
ATOM     10  N   UNL     1      -4.289   0.636  24.932  0.00  0.00    -0.273 NA
ATOM     11  C   UNL     1      -5.035   0.975  25.025  0.00  0.00    +0.073 C 
ATOM     12  C   UNL     1      -4.937   1.792  25.089  0.00  0.00    +0.028 C 
ATOM     13  C   UNL     1      -4.130   1.957  25.035  0.00  0.00    +0.096 C 
ATOM     14  C   UNL     1      -3.730   1.242  24.938  0.00  0.00    +0.081 C 
ENDROOT
BRANCH  10   7
ATOM      1  C   UNL     1      -3.810  -2.963  23.878  0.00  0.00    +0.095 C 
ATOM      2  C   UNL     1      -3.654  -2.585  24.593  0.00  0.00    +0.226 C 
ATOM      3  O   UNL     1      -3.338  -3.012  25.226  0.00  0.00    -0.275 OA
ATOM      4  N   UNL     1      -3.813  -1.779  24.678  0.00  0.00    -0.279 N 
ATOM      5  C   UNL     1      -3.656  -1.402  25.395  0.00  0.00    +0.095 C 
ATOM      6  C   UNL     1      -3.814  -0.596  25.479  0.00  0.00    +0.038 C 
ATOM      7  C   UNL     1      -4.130  -0.169  24.847  0.00  0.00    +0.061 C 
ATOM      8  C   UNL     1      -4.286  -0.548  24.131  0.00  0.00    +0.038 C 
ATOM      9  C   UNL     1      -4.128  -1.353  24.047  0.00  0.00    +0.095 C 
ENDBRANCH  10   7
BRANCH  13  15
ATOM     15  C   UNL     1      -3.784   2.705  25.072  0.00  0.00    +0.227 A 
ATOM     16  N   UNL     1      -4.185   3.420  25.170  0.00  0.00    -0.111 NA
ATOM     17  N   UNL     1      -3.626   4.026  25.175  0.00  0.00    -0.107 NA
ATOM     18  C   UNL     1      -2.880   3.686  25.081  0.00  0.00    +0.250 A 
ATOM     19  O   UNL     1      -2.978   2.869  25.017  0.00  0.00    -0.419 OA
BRANCH  18  20
ATOM     20  C   UNL     1      -2.161   4.092  25.055  0.00  0.00    +0.055 A 
ATOM     21  C   UNL     1      -2.149   4.914  25.127  0.00  0.00    +0.005 A 
ATOM     22  C   UNL     1      -1.431   5.319  25.101  0.00  0.00    +0.000 A 
ATOM     23  C   UNL     1      -0.725   4.903  25.003  0.00  0.00    +0.000 A 
ATOM     24  C   UNL     1      -0.738   4.081  24.931  0.00  0.00    +0.000 A 
ATOM     25  C   UNL     1      -1.456   3.676  24.957  0.00  0.00    +0.005 A 
ENDBRANCH  18  20
ENDBRANCH  13  15
TORSDOF 3
ENDMDL
MODEL 2
REMARK VINA RESULT:     -12.3      1.182      5.588
REMARK  Name = 
REMARK  3 active torsions:
REMARK  status: ('A' for Active; 'I' for Inactive)
REMARK    1  A    between atoms: C_7  and  N_10
REMARK    2  A    between atoms: C_13  and  C_15
REMARK    3  A    between atoms: C_18  and  C_20
REMARK                            x       y       z     vdW  Elec       q    Type
REMARK                         _______ _______ _______ _____ _____    ______ ____
ROOT
ATOM     10  N   UNL     1      -3.326   2.617  24.601  0.00  0.00    -0.273 NA
ATOM     11  C   UNL     1      -4.046   2.683  24.204  0.00  0.00    +0.073 C 
ATOM     12  C   UNL     1      -4.427   1.951  24.246  0.00  0.00    +0.028 C 
ATOM     13  C   UNL     1      -3.941   1.435  24.668  0.00  0.00    +0.096 C 
ATOM     14  C   UNL     1      -3.260   1.848  24.888  0.00  0.00    +0.081 C 
ENDROOT
BRANCH  10   7
ATOM      1  C   UNL     1      -0.305   4.884  24.784  0.00  0.00    +0.095 C 
ATOM      2  C   UNL     1      -1.096   5.022  24.974  0.00  0.00    +0.226 C 
ATOM      3  O   UNL     1      -1.330   5.761  25.258  0.00  0.00    -0.275 OA
ATOM      4  N   UNL     1      -1.654   4.420  24.881  0.00  0.00    -0.279 N 
ATOM      5  C   UNL     1      -2.445   4.559  25.071  0.00  0.00    +0.095 C 
ATOM      6  C   UNL     1      -3.002   3.958  24.978  0.00  0.00    +0.038 C 
ATOM      7  C   UNL     1      -2.769   3.218  24.694  0.00  0.00    +0.061 C 
ATOM      8  C   UNL     1      -1.978   3.081  24.504  0.00  0.00    +0.038 C 
ATOM      9  C   UNL     1      -1.420   3.682  24.598  0.00  0.00    +0.095 C 
ENDBRANCH  10   7
BRANCH  13  15
ATOM     15  C   UNL     1      -4.106   0.646  24.841  0.00  0.00    +0.227 A 
ATOM     16  N   UNL     1      -4.635   0.376  25.414  0.00  0.00    -0.111 NA
ATOM     17  N   UNL     1      -4.628  -0.449  25.399  0.00  0.00    -0.107 NA
ATOM     18  C   UNL     1      -4.094  -0.689  24.817  0.00  0.00    +0.250 A 
ATOM     19  O   UNL     1      -3.772  -0.012  24.472  0.00  0.00    -0.419 OA
BRANCH  18  20
ATOM     20  C   UNL     1      -3.915  -1.469  24.615  0.00  0.00    +0.055 A 
ATOM     21  C   UNL     1      -3.395  -1.906  25.082  0.00  0.00    +0.005 A 
ATOM     22  C   UNL     1      -3.215  -2.686  24.880  0.00  0.00    +0.000 A 
ATOM     23  C   UNL     1      -3.556  -3.027  24.210  0.00  0.00    +0.000 A 
ATOM     24  C   UNL     1      -4.076  -2.589  23.743  0.00  0.00    +0.000 A 
ATOM     25  C   UNL     1      -4.255  -1.810  23.945  0.00  0.00    +0.005 A 
ENDBRANCH  18  20
ENDBRANCH  13  15
TORSDOF 3
ENDMDL
MODEL 3
REMARK VINA RESULT:     -12.1      1.922      2.360
REMARK  Name = 
REMARK  3 active torsions:
REMARK  status: ('A' for Active; 'I' for Inactive)
REMARK    1  A    between atoms: C_7  and  N_10
REMARK    2  A    between atoms: C_13  and  C_15
REMARK    3  A    between atoms: C_18  and  C_20
REMARK                            x       y       z     vdW  Elec       q    Type
REMARK                         _______ _______ _______ _____ _____    ______ ____
ROOT
ATOM     10  N   UNL     1      -1.531  -0.237  24.763  0.00  0.00    -0.273 NA
ATOM     11  C   UNL     1      -0.726  -0.271  24.586  0.00  0.00    +0.073 C 
ATOM     12  C   UNL     1      -0.389   0.452  24.797  0.00  0.00    +0.028 C 
ATOM     13  C   UNL     1      -0.985   0.932  25.104  0.00  0.00    +0.096 C 
ATOM     14  C   UNL     1      -1.692   0.505  25.083  0.00  0.00    +0.081 C 
ENDROOT
BRANCH  10   7
ATOM      1  C   UNL     1      -4.456  -2.483  23.929  0.00  0.00    +0.095 C 
ATOM      2  C   UNL     1      -3.726  -2.653  24.273  0.00  0.00    +0.226 C 
ATOM      3  O   UNL     1      -3.544  -3.427  24.494  0.00  0.00    -0.275 OA
ATOM      4  N   UNL     1      -3.177  -2.048  24.395  0.00  0.00    -0.279 N 
ATOM      5  C   UNL     1      -2.447  -2.219  24.739  0.00  0.00    +0.095 C 
ATOM      6  C   UNL     1      -1.898  -1.615  24.862  0.00  0.00    +0.038 C 
ATOM      7  C   UNL     1      -2.080  -0.841  24.640  0.00  0.00    +0.061 C 
ATOM      8  C   UNL     1      -2.810  -0.672  24.296  0.00  0.00    +0.038 C 
ATOM      9  C   UNL     1      -3.359  -1.275  24.174  0.00  0.00    +0.095 C 
ENDBRANCH  10   7
BRANCH  13  15
ATOM     15  C   UNL     1      -0.893   1.702  25.384  0.00  0.00    +0.227 A 
ATOM     16  N   UNL     1      -0.458   1.928  26.048  0.00  0.00    -0.111 NA
ATOM     17  N   UNL     1      -0.514   2.747  26.124  0.00  0.00    -0.107 NA
ATOM     18  C   UNL     1      -0.984   3.028  25.506  0.00  0.00    +0.250 A 
ATOM     19  O   UNL     1      -1.218   2.382  25.049  0.00  0.00    -0.419 OA
BRANCH  18  20
ATOM     20  C   UNL     1      -1.185   3.817  25.370  0.00  0.00    +0.055 A 
ATOM     21  C   UNL     1      -0.662   4.312  24.967  0.00  0.00    +0.005 A 
ATOM     22  C   UNL     1      -0.863   5.101  24.831  0.00  0.00    +0.000 A 
ATOM     23  C   UNL     1      -1.587   5.394  25.097  0.00  0.00    +0.000 A 
ATOM     24  C   UNL     1      -2.110   4.898  25.499  0.00  0.00    +0.000 A 
ATOM     25  C   UNL     1      -1.909   4.110  25.636  0.00  0.00    +0.005 A 
ENDBRANCH  18  20
ENDBRANCH  13  15
TORSDOF 3
ENDMDL
MODEL 4
REMARK VINA RESULT:     -12.0      1.867      5.923
REMARK  Name = 
REMARK  3 active torsions:
REMARK  status: ('A' for Active; 'I' for Inactive)
REMARK    1  A    between atoms: C_7  and  N_10
REMARK    2  A    between atoms: C_13  and  C_15
REMARK    3  A    between atoms: C_18  and  C_20
REMARK                            x       y       z     vdW  Elec       q    Type
REMARK                         _______ _______ _______ _____ _____    ______ ____
ROOT
ATOM     10  N   UNL     1      -1.078   1.819  25.183  0.00  0.00    -0.273 NA
ATOM     11  C   UNL     1      -0.387   1.369  25.162  0.00  0.00    +0.073 C 
ATOM     12  C   UNL     1      -0.600   0.574  25.216  0.00  0.00    +0.028 C 
ATOM     13  C   UNL     1      -1.422   0.533  25.271  0.00  0.00    +0.096 C 
ATOM     14  C   UNL     1      -1.717   1.303  25.250  0.00  0.00    +0.081 C 
ENDROOT
BRANCH  10   7
ATOM      1  C   UNL     1      -1.927   5.502  25.290  0.00  0.00    +0.095 C 
ATOM      2  C   UNL     1      -1.251   5.112  25.025  0.00  0.00    +0.226 C 
ATOM      3  O   UNL     1      -0.618   5.543  24.719  0.00  0.00    -0.275 OA
ATOM      4  N   UNL     1      -1.208   4.288  25.064  0.00  0.00    -0.279 N 
ATOM      5  C   UNL     1      -0.531   3.898  24.798  0.00  0.00    +0.095 C 
ATOM      6  C   UNL     1      -0.488   3.075  24.838  0.00  0.00    +0.038 C 
ATOM      7  C   UNL     1      -1.121   2.642  25.143  0.00  0.00    +0.061 C 
ATOM      8  C   UNL     1      -1.797   3.033  25.409  0.00  0.00    +0.038 C 
ATOM      9  C   UNL     1      -1.840   3.856  25.369  0.00  0.00    +0.095 C 
ENDBRANCH  10   7
BRANCH  13  15
ATOM     15  C   UNL     1      -1.870  -0.156  25.335  0.00  0.00    +0.227 A 
ATOM     16  N   UNL     1      -1.903  -0.654  25.992  0.00  0.00    -0.111 NA
ATOM     17  N   UNL     1      -2.418  -1.275  25.817  0.00  0.00    -0.107 NA
ATOM     18  C   UNL     1      -2.703  -1.160  25.051  0.00  0.00    +0.250 A 
ATOM     19  O   UNL     1      -2.365  -0.469  24.753  0.00  0.00    -0.419 OA
BRANCH  18  20
ATOM     20  C   UNL     1      -3.234  -1.651  24.653  0.00  0.00    +0.055 A 
ATOM     21  C   UNL     1      -3.852  -1.322  24.216  0.00  0.00    +0.005 A 
ATOM     22  C   UNL     1      -4.382  -1.813  23.818  0.00  0.00    +0.000 A 
ATOM     23  C   UNL     1      -4.295  -2.632  23.857  0.00  0.00    +0.000 A 
ATOM     24  C   UNL     1      -3.677  -2.961  24.294  0.00  0.00    +0.000 A 
ATOM     25  C   UNL     1      -3.147  -2.471  24.692  0.00  0.00    +0.005 A 
ENDBRANCH  18  20
ENDBRANCH  13  15
TORSDOF 3
ENDMDL
MODEL 5
REMARK VINA RESULT:     -10.0      3.189      4.526
REMARK  Name = 
REMARK  3 active torsions:
REMARK  status: ('A' for Active; 'I' for Inactive)
REMARK    1  A    between atoms: C_7  and  N_10
REMARK    2  A    between atoms: C_13  and  C_15
REMARK    3  A    between atoms: C_18  and  C_20
REMARK                            x       y       z     vdW  Elec       q    Type
REMARK                         _______ _______ _______ _____ _____    ______ ____
ROOT
ATOM     10  N   UNL     1      -0.889   0.243  24.306  0.00  0.00    -0.273 NA
ATOM     11  C   UNL     1      -1.088  -0.266  24.924  0.00  0.00    +0.073 C 
ATOM     12  C   UNL     1      -1.893  -0.171  25.083  0.00  0.00    +0.028 C 
ATOM     13  C   UNL     1      -2.190   0.397  24.563  0.00  0.00    +0.096 C 
ATOM     14  C   UNL     1      -1.569   0.652  24.082  0.00  0.00    +0.081 C 
ENDROOT
BRANCH  10   7
ATOM      1  C   UNL     1       2.400  -0.001  22.457  0.00  0.00    +0.095 C 
ATOM      2  C   UNL     1       2.107   0.580  22.963  0.00  0.00    +0.226 C 
ATOM      3  O   UNL     1       2.563   1.247  23.134  0.00  0.00    -0.275 OA
ATOM      4  N   UNL     1       1.357   0.496  23.299  0.00  0.00    -0.279 N 
ATOM      5  C   UNL     1       1.065   1.078  23.805  0.00  0.00    +0.095 C 
ATOM      6  C   UNL     1       0.316   0.994  24.141  0.00  0.00    +0.038 C 
ATOM      7  C   UNL     1      -0.140   0.327  23.970  0.00  0.00    +0.061 C 
ATOM      8  C   UNL     1       0.153  -0.254  23.464  0.00  0.00    +0.038 C 
ATOM      9  C   UNL     1       0.902  -0.170  23.128  0.00  0.00    +0.095 C 
ENDBRANCH  10   7
BRANCH  13  15
ATOM     15  C   UNL     1      -2.970   0.662  24.528  0.00  0.00    +0.227 A 
ATOM     16  N   UNL     1      -3.574   0.335  24.071  0.00  0.00    -0.111 NA
ATOM     17  N   UNL     1      -4.260   0.771  24.205  0.00  0.00    -0.107 NA
ATOM     18  C   UNL     1      -4.081   1.369  24.745  0.00  0.00    +0.250 A 
ATOM     19  O   UNL     1      -3.283   1.302  24.945  0.00  0.00    -0.419 OA
BRANCH  18  20
ATOM     20  C   UNL     1      -4.607   1.936  25.034  0.00  0.00    +0.055 A 
ATOM     21  C   UNL     1      -5.314   1.699  25.388  0.00  0.00    +0.005 A 
ATOM     22  C   UNL     1      -5.840   2.265  25.677  0.00  0.00    +0.000 A 
ATOM     23  C   UNL     1      -5.659   3.067  25.613  0.00  0.00    +0.000 A 
ATOM     24  C   UNL     1      -4.952   3.303  25.259  0.00  0.00    +0.000 A 
ATOM     25  C   UNL     1      -4.427   2.738  24.970  0.00  0.00    +0.005 A 
ENDBRANCH  18  20
ENDBRANCH  13  15
TORSDOF 3
ENDMDL
MODEL 6
REMARK VINA RESULT:      -9.0      3.185      4.577
REMARK  Name = 
REMARK  3 active torsions:
REMARK  status: ('A' for Active; 'I' for Inactive)
REMARK    1  A    between atoms: C_7  and  N_10
REMARK    2  A    between atoms: C_13  and  C_15
REMARK    3  A    between atoms: C_18  and  C_20
REMARK                            x       y       z     vdW  Elec       q    Type
REMARK                         _______ _______ _______ _____ _____    ______ ____
ROOT
ATOM     10  N   UNL     1      -2.976   1.799  24.029  0.00  0.00    -0.273 NA
ATOM     11  C   UNL     1      -2.821   1.961  23.236  0.00  0.00    +0.073 C 
ATOM     12  C   UNL     1      -2.098   1.613  23.042  0.00  0.00    +0.028 C 
ATOM     13  C   UNL     1      -1.808   1.236  23.716  0.00  0.00    +0.096 C 
ATOM     14  C   UNL     1      -2.351   1.351  24.327  0.00  0.00    +0.081 C 
ENDROOT
BRANCH  10   7
ATOM      1  C   UNL     1      -6.208   2.222  25.946  0.00  0.00    +0.095 C 
ATOM      2  C   UNL     1      -5.639   2.773  25.720  0.00  0.00    +0.226 C 
ATOM      3  O   UNL     1      -5.734   3.569  25.916  0.00  0.00    -0.275 OA
ATOM      4  N   UNL     1      -4.972   2.530  25.297  0.00  0.00    -0.279 N 
ATOM      5  C   UNL     1      -4.403   3.082  25.071  0.00  0.00    +0.095 C 
ATOM      6  C   UNL     1      -3.738   2.839  24.648  0.00  0.00    +0.038 C 
ATOM      7  C   UNL     1      -3.642   2.042  24.452  0.00  0.00    +0.061 C 
ATOM      8  C   UNL     1      -4.212   1.491  24.679  0.00  0.00    +0.038 C 
ATOM      9  C   UNL     1      -4.877   1.735  25.101  0.00  0.00    +0.095 C 
ENDBRANCH  10   7
BRANCH  13  15
ATOM     15  C   UNL     1      -1.099   0.818  23.771  0.00  0.00    +0.227 A 
ATOM     16  N   UNL     1      -0.941   0.198  24.292  0.00  0.00    -0.111 NA
ATOM     17  N   UNL     1      -0.169  -0.058  24.158  0.00  0.00    -0.107 NA
ATOM     18  C   UNL     1       0.152   0.404  23.554  0.00  0.00    +0.250 A 
ATOM     19  O   UNL     1      -0.424   0.945  23.314  0.00  0.00    -0.419 OA
BRANCH  18  20
ATOM     20  C   UNL     1       0.913   0.337  23.243  0.00  0.00    +0.055 A 
ATOM     21  C   UNL     1       1.503   0.862  23.481  0.00  0.00    +0.005 A 
ATOM     22  C   UNL     1       2.265   0.795  23.171  0.00  0.00    +0.000 A 
ATOM     23  C   UNL     1       2.436   0.203  22.622  0.00  0.00    +0.000 A 
ATOM     24  C   UNL     1       1.845  -0.321  22.384  0.00  0.00    +0.000 A 
ATOM     25  C   UNL     1       1.084  -0.254  22.694  0.00  0.00    +0.005 A 
ENDBRANCH  18  20
ENDBRANCH  13  15
TORSDOF 3
ENDMDL
