MODEL 1
REMARK VINA RESULT:     -10.5      0.000      0.000
REMARK  Name = 
REMARK  6 active torsions:
REMARK  status: ('A' for Active; 'I' for Inactive)
REMARK    1  A    between atoms: C_3  and  C_4
REMARK    2  A    between atoms: C_6  and  C_11
REMARK    3  A    between atoms: C_14  and  N_15
REMARK    4  A    between atoms: C_16  and  C_18
REMARK    5  A    between atoms: C_18  and  C_19
REMARK    6  A    between atoms: C_19  and  C_20
REMARK                            x       y       z     vdW  Elec       q    Type
REMARK                         _______ _______ _______ _____ _____    ______ ____
ROOT
ATOM     11  C   UNL     1      -3.706  -0.332  24.330  0.00  0.00    +0.006 A 
ATOM     12  C   UNL     1      -4.032   0.052  24.983  0.00  0.00    -0.001 A 
ATOM     13  C   UNL     1      -3.935   0.866  25.075  0.00  0.00    +0.016 A 
ATOM     14  C   UNL     1      -3.510   1.296  24.514  0.00  0.00    +0.073 A 
ATOM     26  C   UNL     1      -3.183   0.912  23.860  0.00  0.00    +0.016 A 
ATOM     27  C   UNL     1      -3.281   0.098  23.769  0.00  0.00    -0.001 A 
ENDROOT
BRANCH  11   6
ATOM      1  C   UNL     1      -2.782  -3.001  24.768  0.00  0.00    +0.115 C 
ATOM      2  N   UNL     1      -3.342  -2.480  24.457  0.00  0.00    -0.272 N 
ATOM      3  C   UNL     1      -3.244  -1.666  24.549  0.00  0.00    +0.140 C 
ATOM      6  C   UNL     1      -3.804  -1.145  24.238  0.00  0.00    +0.159 C 
ATOM      7  O   UNL     1      -4.461  -1.440  23.835  0.00  0.00    -0.341 OA
ATOM      8  C   UNL     1      -4.559  -2.253  23.743  0.00  0.00    +0.227 C 
ATOM      9  C   UNL     1      -3.999  -2.774  24.055  0.00  0.00    +0.256 C 
ATOM     10  O   UNL     1      -4.097  -3.588  23.962  0.00  0.00    -0.272 OA
BRANCH   3   4
ATOM      4  C   UNL     1      -2.587  -1.373  24.952  0.00  0.00    +0.205 C 
ATOM      5  O   UNL     1      -1.886  -1.806  24.968  0.00  0.00    -0.218 OA
ENDBRANCH   3   4
ENDBRANCH  11   6
BRANCH  14  15
ATOM     15  N   UNL     1      -3.412   2.111  24.606  0.00  0.00    -0.179 NA
ATOM     16  C   UNL     1      -2.776   2.402  25.043  0.00  0.00    +0.246 C 
ATOM     17  O   UNL     1      -2.238   1.880  25.388  0.00  0.00    -0.273 OA
BRANCH  16  18
ATOM     18  C   UNL     1      -2.678   3.216  25.134  0.00  0.00    +0.092 C 
BRANCH  18  19
ATOM     19  C   UNL     1      -2.016   3.510  25.530  0.00  0.00    +0.036 C 
BRANCH  19  20
ATOM     20  C   UNL     1      -1.685   4.230  25.302  0.00  0.00    -0.022 A 
ATOM     21  C   UNL     1      -0.931   4.250  24.966  0.00  0.00    -0.004 A 
ATOM     22  C   UNL     1      -0.601   4.970  24.738  0.00  0.00    -0.000 A 
ATOM     23  C   UNL     1      -1.022   5.670  24.845  0.00  0.00    -0.000 A 
ATOM     24  C   UNL     1      -1.776   5.651  25.180  0.00  0.00    -0.000 A 
ATOM     25  C   UNL     1      -2.107   4.930  25.409  0.00  0.00    -0.004 A 
ENDBRANCH  19  20
ENDBRANCH  18  19
ENDBRANCH  16  18
ENDBRANCH  14  15
TORSDOF 6
ENDMDL
MODEL 2
REMARK VINA RESULT:     -10.0      1.624      6.191
REMARK  Name = 
REMARK  6 active torsions:
REMARK  status: ('A' for Active; 'I' for Inactive)
REMARK    1  A    between atoms: C_3  and  C_4
REMARK    2  A    between atoms: C_6  and  C_11
REMARK    3  A    between atoms: C_14  and  N_15
REMARK    4  A    between atoms: C_16  and  C_18
REMARK    5  A    between atoms: C_18  and  C_19
REMARK    6  A    between atoms: C_19  and  C_20
REMARK                            x       y       z     vdW  Elec       q    Type
REMARK                         _______ _______ _______ _____ _____    ______ ____
ROOT
ATOM     11  C   UNL     1      -1.479   2.765  24.833  0.00  0.00    +0.006 A 
ATOM     12  C   UNL     1      -1.895   2.446  24.198  0.00  0.00    -0.001 A 
ATOM     13  C   UNL     1      -2.031   1.633  24.158  0.00  0.00    +0.016 A 
ATOM     14  C   UNL     1      -1.749   1.139  24.755  0.00  0.00    +0.073 A 
ATOM     26  C   UNL     1      -1.331   1.458  25.392  0.00  0.00    +0.016 A 
ATOM     27  C   UNL     1      -1.197   2.271  25.431  0.00  0.00    -0.001 A 
ENDROOT
BRANCH  11   6
ATOM      1  C   UNL     1      -2.347   5.385  25.574  0.00  0.00    +0.115 C 
ATOM      2  N   UNL     1      -1.778   4.888  25.243  0.00  0.00    -0.272 N 
ATOM      3  C   UNL     1      -1.913   4.075  25.204  0.00  0.00    +0.140 C 
ATOM      6  C   UNL     1      -1.344   3.577  24.873  0.00  0.00    +0.159 C 
ATOM      7  O   UNL     1      -0.639   3.894  24.581  0.00  0.00    -0.341 OA
ATOM      8  C   UNL     1      -0.504   4.706  24.621  0.00  0.00    +0.227 C 
ATOM      9  C   UNL     1      -1.074   5.204  24.952  0.00  0.00    +0.256 C 
ATOM     10  O   UNL     1      -0.939   6.017  24.991  0.00  0.00    -0.272 OA
BRANCH   3   4
ATOM      4  C   UNL     1      -2.617   3.759  25.495  0.00  0.00    +0.205 C 
ATOM      5  O   UNL     1      -3.013   4.135  26.113  0.00  0.00    -0.218 OA
ENDBRANCH   3   4
ENDBRANCH  11   6
BRANCH  14  15
ATOM     15  N   UNL     1      -1.884   0.325  24.716  0.00  0.00    -0.179 NA
ATOM     16  C   UNL     1      -2.571   0.006  25.042  0.00  0.00    +0.246 C 
ATOM     17  O   UNL     1      -3.123   0.499  25.406  0.00  0.00    -0.273 OA
BRANCH  16  18
ATOM     18  C   UNL     1      -2.706  -0.807  25.002  0.00  0.00    +0.092 C 
BRANCH  18  19
ATOM     19  C   UNL     1      -3.478  -1.098  25.015  0.00  0.00    +0.036 C 
BRANCH  19  20
ATOM     20  C   UNL     1      -3.652  -1.822  24.661  0.00  0.00    -0.022 A 
ATOM     21  C   UNL     1      -3.332  -2.518  24.968  0.00  0.00    -0.004 A 
ATOM     22  C   UNL     1      -3.505  -3.243  24.613  0.00  0.00    -0.000 A 
ATOM     23  C   UNL     1      -3.997  -3.271  23.953  0.00  0.00    -0.000 A 
ATOM     24  C   UNL     1      -4.317  -2.576  23.645  0.00  0.00    -0.000 A 
ATOM     25  C   UNL     1      -4.144  -1.851  24.000  0.00  0.00    -0.004 A 
ENDBRANCH  19  20
ENDBRANCH  18  19
ENDBRANCH  16  18
ENDBRANCH  14  15
TORSDOF 6
ENDMDL
MODEL 3
REMARK VINA RESULT:      -8.2      3.271      4.698
REMARK  Name = 
REMARK  6 active torsions:
REMARK  status: ('A' for Active; 'I' for Inactive)
REMARK    1  A    between atoms: C_3  and  C_4
REMARK    2  A    between atoms: C_6  and  C_11
REMARK    3  A    between atoms: C_14  and  N_15
REMARK    4  A    between atoms: C_16  and  C_18
REMARK    5  A    between atoms: C_18  and  C_19
REMARK    6  A    between atoms: C_19  and  C_20
REMARK                            x       y       z     vdW  Elec       q    Type
REMARK                         _______ _______ _______ _____ _____    ______ ____
ROOT
ATOM     11  C   UNL     1      -3.130   1.756  24.566  0.00  0.00    +0.006 A 
ATOM     12  C   UNL     1      -2.558   1.611  25.141  0.00  0.00    -0.001 A 
ATOM     13  C   UNL     1      -1.762   1.559  24.928  0.00  0.00    +0.016 A 
ATOM     14  C   UNL     1      -1.540   1.652  24.139  0.00  0.00    +0.073 A 
ATOM     26  C   UNL     1      -2.113   1.798  23.563  0.00  0.00    +0.016 A 
ATOM     27  C   UNL     1      -2.908   1.849  23.777  0.00  0.00    -0.001 A 
ENDROOT
BRANCH  11   6
ATOM      1  C   UNL     1      -5.349   3.303  25.490  0.00  0.00    +0.115 C 
ATOM      2  N   UNL     1      -5.035   2.582  25.241  0.00  0.00    -0.272 N 
ATOM      3  C   UNL     1      -4.239   2.530  25.028  0.00  0.00    +0.140 C 
ATOM      6  C   UNL     1      -3.925   1.808  24.779  0.00  0.00    +0.159 C 
ATOM      7  O   UNL     1      -4.407   1.139  24.744  0.00  0.00    -0.341 OA
ATOM      8  C   UNL     1      -5.202   1.191  24.957  0.00  0.00    +0.227 C 
ATOM      9  C   UNL     1      -5.516   1.913  25.206  0.00  0.00    +0.256 C 
ATOM     10  O   UNL     1      -6.311   1.965  25.419  0.00  0.00    -0.272 OA
BRANCH   3   4
ATOM      4  C   UNL     1      -3.758   3.199  25.063  0.00  0.00    +0.205 C 
ATOM      5  O   UNL     1      -3.979   3.842  25.529  0.00  0.00    -0.218 OA
ENDBRANCH   3   4
ENDBRANCH  11   6
BRANCH  14  15
ATOM     15  N   UNL     1      -0.744   1.600  23.925  0.00  0.00    -0.179 NA
ATOM     16  C   UNL     1      -0.387   0.861  23.844  0.00  0.00    +0.246 C 
ATOM     17  O   UNL     1      -0.825   0.174  23.975  0.00  0.00    -0.273 OA
BRANCH  16  18
ATOM     18  C   UNL     1       0.408   0.810  23.630  0.00  0.00    +0.092 C 
BRANCH  18  19
ATOM     19  C   UNL     1       0.691   0.130  23.257  0.00  0.00    +0.036 C 
BRANCH  19  20
ATOM     20  C   UNL     1       1.432   0.138  22.895  0.00  0.00    -0.022 A 
ATOM     21  C   UNL     1       2.067   0.516  23.263  0.00  0.00    -0.004 A 
ATOM     22  C   UNL     1       2.808   0.524  22.901  0.00  0.00    -0.000 A 
ATOM     23  C   UNL     1       2.915   0.154  22.173  0.00  0.00    -0.000 A 
ATOM     24  C   UNL     1       2.282  -0.225  21.804  0.00  0.00    -0.000 A 
ATOM     25  C   UNL     1       1.540  -0.232  22.166  0.00  0.00    -0.004 A 
ENDBRANCH  19  20
ENDBRANCH  18  19
ENDBRANCH  16  18
ENDBRANCH  14  15
TORSDOF 6
ENDMDL
