MODEL 1
REMARK VINA RESULT:     -12.1      0.000      0.000
REMARK  Name = 
REMARK  6 active torsions:
REMARK  status: ('A' for Active; 'I' for Inactive)
REMARK    1  A    between atoms: C_2  and  C_4
REMARK    2  A    between atoms: C_4  and  C_5
REMARK    3  A    between atoms: C_4  and  N_12
REMARK    4  A    between atoms: C_5  and  C_6
REMARK    5  A    between atoms: C_13  and  C_15
REMARK    6  A    between atoms: C_21  and  C_23
REMARK                            x       y       z     vdW  Elec       q    Type
REMARK                         _______ _______ _______ _____ _____    ______ ____
ROOT
ATOM     12  N   UNL     1      -2.552   0.074  24.254  0.00  0.00    -0.196 NA
ATOM     13  C   UNL     1      -2.581   0.863  24.497  0.00  0.00    +0.261 C 
ATOM     14  O   UNL     1      -2.407   1.060  25.279  0.00  0.00    -0.271 OA
ENDROOT
BRANCH  13  15
ATOM     15  C   UNL     1      -2.786   1.452  23.958  0.00  0.00    +0.171 C 
ATOM     16  C   UNL     1      -2.438   1.467  23.211  0.00  0.00    +0.118 C 
ATOM     17  N   UNL     1      -2.642   2.058  22.672  0.00  0.00    -0.214 NA
ATOM     18  C   UNL     1      -3.196   2.633  22.881  0.00  0.00    +0.110 C 
ATOM     19  C   UNL     1      -3.544   2.618  23.627  0.00  0.00    +0.113 C 
ATOM     20  N   UNL     1      -3.339   2.028  24.167  0.00  0.00    -0.270 N 
ATOM     21  C   UNL     1      -3.688   2.013  24.914  0.00  0.00    +0.226 C 
ATOM     22  O   UNL     1      -3.483   1.423  25.453  0.00  0.00    -0.275 OA
BRANCH  21  23
ATOM     23  C   UNL     1      -4.241   2.588  25.123  0.00  0.00    +0.077 C 
ATOM     24  C   UNL     1      -3.988   3.325  25.394  0.00  0.00    +0.009 C 
ATOM     25  C   UNL     1      -4.541   3.900  25.603  0.00  0.00    +0.000 C 
ATOM     26  C   UNL     1      -5.349   3.739  25.540  0.00  0.00    +0.000 C 
ATOM     27  C   UNL     1      -5.601   3.002  25.268  0.00  0.00    +0.000 C 
ATOM     28  C   UNL     1      -5.048   2.427  25.060  0.00  0.00    +0.009 C 
ENDBRANCH  21  23
ENDBRANCH  13  15
BRANCH  12   4
ATOM      4  C   UNL     1      -2.347  -0.516  24.793  0.00  0.00    +0.174 C 
BRANCH   4   2
ATOM      1  N   UNL     1      -1.282  -0.703  25.726  0.00  0.00    -0.086 NA
ATOM      2  C   UNL     1      -1.553  -0.677  24.948  0.00  0.00    +0.281 C 
ATOM      3  O   UNL     1      -1.031  -0.812  24.324  0.00  0.00    -0.270 OA
ENDBRANCH   4   2
BRANCH   4   5
ATOM      5  C   UNL     1      -2.938  -0.944  25.178  0.00  0.00    +0.031 C 
BRANCH   5   6
ATOM      6  C   UNL     1      -3.295  -1.585  24.799  0.00  0.00    +0.002 C 
ATOM      7  C   UNL     1      -3.038  -2.353  24.958  0.00  0.00    +0.000 C 
ATOM      8  C   UNL     1      -3.395  -2.994  24.579  0.00  0.00    +0.000 C 
ATOM      9  C   UNL     1      -4.007  -2.867  24.043  0.00  0.00    +0.000 C 
ATOM     10  C   UNL     1      -4.264  -2.099  23.884  0.00  0.00    +0.000 C 
ATOM     11  C   UNL     1      -3.908  -1.458  24.261  0.00  0.00    +0.000 C 
ENDBRANCH   5   6
ENDBRANCH   4   5
ENDBRANCH  12   4
TORSDOF 6
ENDMDL
MODEL 2
REMARK VINA RESULT:     -11.8      1.578      4.724
REMARK  Name = 
REMARK  6 active torsions:
REMARK  status: ('A' for Active; 'I' for Inactive)
REMARK    1  A    between atoms: C_2  and  C_4
REMARK    2  A    between atoms: C_4  and  C_5
REMARK    3  A    between atoms: C_4  and  N_12
REMARK    4  A    between atoms: C_5  and  C_6
REMARK    5  A    between atoms: C_13  and  C_15
REMARK    6  A    between atoms: C_21  and  C_23
REMARK                            x       y       z     vdW  Elec       q    Type
REMARK                         _______ _______ _______ _____ _____    ______ ____
ROOT
ATOM     12  N   UNL     1      -2.120   1.831  24.394  0.00  0.00    -0.196 NA
ATOM     13  C   UNL     1      -2.260   1.112  24.777  0.00  0.00    +0.261 C 
ATOM     14  O   UNL     1      -2.902   1.036  25.290  0.00  0.00    -0.271 OA
ENDROOT
BRANCH  13  15
ATOM     15  C   UNL     1      -1.758   0.471  24.646  0.00  0.00    +0.171 C 
ATOM     16  C   UNL     1      -0.952   0.596  24.529  0.00  0.00    +0.118 C 
ATOM     17  N   UNL     1      -0.449  -0.046  24.398  0.00  0.00    -0.214 NA
ATOM     18  C   UNL     1      -0.755  -0.812  24.383  0.00  0.00    +0.110 C 
ATOM     19  C   UNL     1      -1.561  -0.936  24.499  0.00  0.00    +0.113 C 
ATOM     20  N   UNL     1      -2.064  -0.295  24.631  0.00  0.00    -0.270 N 
ATOM     21  C   UNL     1      -2.871  -0.420  24.747  0.00  0.00    +0.226 C 
ATOM     22  O   UNL     1      -3.372   0.222  24.878  0.00  0.00    -0.275 OA
BRANCH  21  23
ATOM     23  C   UNL     1      -3.176  -1.186  24.732  0.00  0.00    +0.077 C 
ATOM     24  C   UNL     1      -3.106  -1.672  25.395  0.00  0.00    +0.009 C 
ATOM     25  C   UNL     1      -3.411  -2.437  25.380  0.00  0.00    +0.000 C 
ATOM     26  C   UNL     1      -3.787  -2.719  24.701  0.00  0.00    +0.000 C 
ATOM     27  C   UNL     1      -3.857  -2.234  24.038  0.00  0.00    +0.000 C 
ATOM     28  C   UNL     1      -3.552  -1.467  24.052  0.00  0.00    +0.009 C 
ENDBRANCH  21  23
ENDBRANCH  13  15
BRANCH  12   4
ATOM      4  C   UNL     1      -2.623   2.472  24.526  0.00  0.00    +0.174 C 
BRANCH   4   2
ATOM      1  N   UNL     1      -3.982   2.809  24.245  0.00  0.00    -0.086 NA
ATOM      2  C   UNL     1      -3.217   2.649  23.982  0.00  0.00    +0.281 C 
ATOM      3  O   UNL     1      -3.046   2.665  23.175  0.00  0.00    -0.270 OA
ENDBRANCH   4   2
BRANCH   4   5
ATOM      5  C   UNL     1      -2.530   2.935  25.201  0.00  0.00    +0.031 C 
BRANCH   5   6
ATOM      6  C   UNL     1      -2.060   3.613  25.175  0.00  0.00    +0.002 C 
ATOM      7  C   UNL     1      -1.257   3.552  24.993  0.00  0.00    +0.000 C 
ATOM      8  C   UNL     1      -0.788   4.230  24.966  0.00  0.00    +0.000 C 
ATOM      9  C   UNL     1      -1.120   4.969  25.121  0.00  0.00    +0.000 C 
ATOM     10  C   UNL     1      -1.922   5.030  25.303  0.00  0.00    +0.000 C 
ATOM     11  C   UNL     1      -2.393   4.353  25.330  0.00  0.00    +0.000 C 
ENDBRANCH   5   6
ENDBRANCH   4   5
ENDBRANCH  12   4
TORSDOF 6
ENDMDL
MODEL 3
REMARK VINA RESULT:     -11.7      1.313      1.663
REMARK  Name = 
REMARK  6 active torsions:
REMARK  status: ('A' for Active; 'I' for Inactive)
REMARK    1  A    between atoms: C_2  and  C_4
REMARK    2  A    between atoms: C_4  and  C_5
REMARK    3  A    between atoms: C_4  and  N_12
REMARK    4  A    between atoms: C_5  and  C_6
REMARK    5  A    between atoms: C_13  and  C_15
REMARK    6  A    between atoms: C_21  and  C_23
REMARK                            x       y       z     vdW  Elec       q    Type
REMARK                         _______ _______ _______ _____ _____    ______ ____
ROOT
ATOM     12  N   UNL     1      -2.297   0.140  24.292  0.00  0.00    -0.196 NA
ATOM     13  C   UNL     1      -2.376   0.935  24.503  0.00  0.00    +0.261 C 
ATOM     14  O   UNL     1      -2.368   1.153  25.299  0.00  0.00    -0.271 OA
ENDROOT
BRANCH  13  15
ATOM     15  C   UNL     1      -2.463   1.509  23.918  0.00  0.00    +0.171 C 
ATOM     16  C   UNL     1      -2.728   1.297  23.167  0.00  0.00    +0.118 C 
ATOM     17  N   UNL     1      -2.814   1.873  22.582  0.00  0.00    -0.214 NA
ATOM     18  C   UNL     1      -2.636   2.660  22.749  0.00  0.00    +0.110 C 
ATOM     19  C   UNL     1      -2.371   2.873  23.500  0.00  0.00    +0.113 C 
ATOM     20  N   UNL     1      -2.284   2.298  24.085  0.00  0.00    -0.270 N 
ATOM     21  C   UNL     1      -2.019   2.510  24.837  0.00  0.00    +0.226 C 
ATOM     22  O   UNL     1      -1.932   1.934  25.421  0.00  0.00    -0.275 OA
BRANCH  21  23
ATOM     23  C   UNL     1      -1.840   3.298  25.003  0.00  0.00    +0.077 C 
ATOM     24  C   UNL     1      -1.081   3.588  24.863  0.00  0.00    +0.009 C 
ATOM     25  C   UNL     1      -0.902   4.376  25.029  0.00  0.00    +0.000 C 
ATOM     26  C   UNL     1      -1.484   4.875  25.337  0.00  0.00    +0.000 C 
ATOM     27  C   UNL     1      -2.243   4.585  25.478  0.00  0.00    +0.000 C 
ATOM     28  C   UNL     1      -2.422   3.797  25.311  0.00  0.00    +0.009 C 
ENDBRANCH  21  23
ENDBRANCH  13  15
BRANCH  12   4
ATOM      4  C   UNL     1      -2.210  -0.435  24.877  0.00  0.00    +0.174 C 
BRANCH   4   2
ATOM      1  N   UNL     1      -1.270  -0.732  25.910  0.00  0.00    -0.086 NA
ATOM      2  C   UNL     1      -1.457  -0.678  25.109  0.00  0.00    +0.281 C 
ATOM      3  O   UNL     1      -0.891  -0.866  24.540  0.00  0.00    -0.270 OA
ENDBRANCH   4   2
BRANCH   4   5
ATOM      5  C   UNL     1      -2.878  -0.766  25.230  0.00  0.00    +0.031 C 
BRANCH   5   6
ATOM      6  C   UNL     1      -3.265  -1.399  24.867  0.00  0.00    +0.002 C 
ATOM      7  C   UNL     1      -3.042  -2.174  25.043  0.00  0.00    +0.000 C 
ATOM      8  C   UNL     1      -3.429  -2.806  24.680  0.00  0.00    +0.000 C 
ATOM      9  C   UNL     1      -4.037  -2.664  24.142  0.00  0.00    +0.000 C 
ATOM     10  C   UNL     1      -4.260  -1.889  23.966  0.00  0.00    +0.000 C 
ATOM     11  C   UNL     1      -3.874  -1.256  24.329  0.00  0.00    +0.000 C 
ENDBRANCH   5   6
ENDBRANCH   4   5
ENDBRANCH  12   4
TORSDOF 6
ENDMDL
MODEL 4
REMARK VINA RESULT:     -11.6      1.821      4.576
REMARK  Name = 
REMARK  6 active torsions:
REMARK  status: ('A' for Active; 'I' for Inactive)
REMARK    1  A    between atoms: C_2  and  C_4
REMARK    2  A    between atoms: C_4  and  C_5
REMARK    3  A    between atoms: C_4  and  N_12
REMARK    4  A    between atoms: C_5  and  C_6
REMARK    5  A    between atoms: C_13  and  C_15
REMARK    6  A    between atoms: C_21  and  C_23
REMARK                            x       y       z     vdW  Elec       q    Type
REMARK                         _______ _______ _______ _____ _____    ______ ____
ROOT
ATOM     12  N   UNL     1      -2.437   2.131  24.526  0.00  0.00    -0.196 NA
ATOM     13  C   UNL     1      -2.667   1.432  24.900  0.00  0.00    +0.261 C 
ATOM     14  O   UNL     1      -2.106   0.967  25.287  0.00  0.00    -0.271 OA
ENDROOT
BRANCH  13  15
ATOM     15  C   UNL     1      -3.458   1.199  24.887  0.00  0.00    +0.171 C 
ATOM     16  C   UNL     1      -4.055   1.766  24.879  0.00  0.00    +0.118 C 
ATOM     17  N   UNL     1      -4.847   1.532  24.865  0.00  0.00    -0.214 NA
ATOM     18  C   UNL     1      -5.039   0.730  24.859  0.00  0.00    +0.110 C 
ATOM     19  C   UNL     1      -4.442   0.163  24.867  0.00  0.00    +0.113 C 
ATOM     20  N   UNL     1      -3.651   0.396  24.881  0.00  0.00    -0.270 N 
ATOM     21  C   UNL     1      -3.053  -0.172  24.888  0.00  0.00    +0.226 C 
ATOM     22  O   UNL     1      -2.262   0.063  24.902  0.00  0.00    -0.275 OA
BRANCH  21  23
ATOM     23  C   UNL     1      -3.245  -0.974  24.882  0.00  0.00    +0.077 C 
ATOM     24  C   UNL     1      -3.264  -1.400  25.589  0.00  0.00    +0.009 C 
ATOM     25  C   UNL     1      -3.456  -2.201  25.583  0.00  0.00    +0.000 C 
ATOM     26  C   UNL     1      -3.632  -2.578  24.869  0.00  0.00    +0.000 C 
ATOM     27  C   UNL     1      -3.614  -2.153  24.163  0.00  0.00    +0.000 C 
ATOM     28  C   UNL     1      -3.421  -1.351  24.169  0.00  0.00    +0.009 C 
ENDBRANCH  21  23
ENDBRANCH  13  15
BRANCH  12   4
ATOM      4  C   UNL     1      -1.646   2.365  24.540  0.00  0.00    +0.174 C 
BRANCH   4   2
ATOM      1  N   UNL     1      -0.397   1.866  24.058  0.00  0.00    -0.086 NA
ATOM      2  C   UNL     1      -1.148   2.173  23.911  0.00  0.00    +0.281 C 
ATOM      3  O   UNL     1      -1.401   2.289  23.135  0.00  0.00    -0.270 OA
ENDBRANCH   4   2
BRANCH   4   5
ATOM      5  C   UNL     1      -1.354   2.790  25.183  0.00  0.00    +0.031 C 
BRANCH   5   6
ATOM      6  C   UNL     1      -1.395   3.615  25.185  0.00  0.00    +0.002 C 
ATOM      7  C   UNL     1      -0.776   4.060  24.870  0.00  0.00    +0.000 C 
ATOM      8  C   UNL     1      -0.819   4.884  24.873  0.00  0.00    +0.000 C 
ATOM      9  C   UNL     1      -1.479   5.263  25.190  0.00  0.00    +0.000 C 
ATOM     10  C   UNL     1      -2.098   4.817  25.505  0.00  0.00    +0.000 C 
ATOM     11  C   UNL     1      -2.057   3.994  25.503  0.00  0.00    +0.000 C 
ENDBRANCH   5   6
ENDBRANCH   4   5
ENDBRANCH  12   4
TORSDOF 6
ENDMDL
MODEL 5
REMARK VINA RESULT:     -11.2      1.786      2.604
REMARK  Name = 
REMARK  6 active torsions:
REMARK  status: ('A' for Active; 'I' for Inactive)
REMARK    1  A    between atoms: C_2  and  C_4
REMARK    2  A    between atoms: C_4  and  C_5
REMARK    3  A    between atoms: C_4  and  N_12
REMARK    4  A    between atoms: C_5  and  C_6
REMARK    5  A    between atoms: C_13  and  C_15
REMARK    6  A    between atoms: C_21  and  C_23
REMARK                            x       y       z     vdW  Elec       q    Type
REMARK                         _______ _______ _______ _____ _____    ______ ____
ROOT
ATOM     12  N   UNL     1      -2.874   0.437  25.112  0.00  0.00    -0.196 NA
ATOM     13  C   UNL     1      -2.424   1.065  24.822  0.00  0.00    +0.261 C 
ATOM     14  O   UNL     1      -2.668   1.471  24.147  0.00  0.00    -0.271 OA
ENDROOT
BRANCH  13  15
ATOM     15  C   UNL     1      -1.729   1.285  25.208  0.00  0.00    +0.171 C 
ATOM     16  C   UNL     1      -1.235   0.710  25.530  0.00  0.00    +0.118 C 
ATOM     17  N   UNL     1      -0.540   0.931  25.916  0.00  0.00    -0.214 NA
ATOM     18  C   UNL     1      -0.340   1.729  25.979  0.00  0.00    +0.110 C 
ATOM     19  C   UNL     1      -0.833   2.304  25.657  0.00  0.00    +0.113 C 
ATOM     20  N   UNL     1      -1.528   2.084  25.271  0.00  0.00    -0.270 N 
ATOM     21  C   UNL     1      -2.022   2.660  24.948  0.00  0.00    +0.226 C 
ATOM     22  O   UNL     1      -2.717   2.438  24.562  0.00  0.00    -0.275 OA
BRANCH  21  23
ATOM     23  C   UNL     1      -1.822   3.457  25.012  0.00  0.00    +0.077 C 
ATOM     24  C   UNL     1      -1.227   3.773  24.535  0.00  0.00    +0.009 C 
ATOM     25  C   UNL     1      -1.026   4.570  24.598  0.00  0.00    +0.000 C 
ATOM     26  C   UNL     1      -1.421   5.053  25.139  0.00  0.00    +0.000 C 
ATOM     27  C   UNL     1      -2.015   4.739  25.616  0.00  0.00    +0.000 C 
ATOM     28  C   UNL     1      -2.217   3.941  25.553  0.00  0.00    +0.009 C 
ENDBRANCH  21  23
ENDBRANCH  13  15
BRANCH  12   4
ATOM      4  C   UNL     1      -3.569   0.216  24.726  0.00  0.00    +0.174 C 
BRANCH   4   2
ATOM      1  N   UNL     1      -4.825   0.855  24.495  0.00  0.00    -0.086 NA
ATOM      2  C   UNL     1      -4.299   0.480  25.006  0.00  0.00    +0.281 C 
ATOM      3  O   UNL     1      -4.502   0.367  25.797  0.00  0.00    -0.270 OA
ENDBRANCH   4   2
BRANCH   4   5
ATOM      5  C   UNL     1      -3.533  -0.268  24.059  0.00  0.00    +0.031 C 
BRANCH   5   6
ATOM      6  C   UNL     1      -3.612  -1.086  24.139  0.00  0.00    +0.002 C 
ATOM      7  C   UNL     1      -3.058  -1.514  24.577  0.00  0.00    +0.000 C 
ATOM      8  C   UNL     1      -3.138  -2.331  24.657  0.00  0.00    +0.000 C 
ATOM      9  C   UNL     1      -3.771  -2.721  24.300  0.00  0.00    +0.000 C 
ATOM     10  C   UNL     1      -4.325  -2.294  23.862  0.00  0.00    +0.000 C 
ATOM     11  C   UNL     1      -4.246  -1.477  23.782  0.00  0.00    +0.000 C 
ENDBRANCH   5   6
ENDBRANCH   4   5
ENDBRANCH  12   4
TORSDOF 6
ENDMDL
MODEL 6
REMARK VINA RESULT:     -11.1      1.042      4.402
REMARK  Name = 
REMARK  6 active torsions:
REMARK  status: ('A' for Active; 'I' for Inactive)
REMARK    1  A    between atoms: C_2  and  C_4
REMARK    2  A    between atoms: C_4  and  C_5
REMARK    3  A    between atoms: C_4  and  N_12
REMARK    4  A    between atoms: C_5  and  C_6
REMARK    5  A    between atoms: C_13  and  C_15
REMARK    6  A    between atoms: C_21  and  C_23
REMARK                            x       y       z     vdW  Elec       q    Type
REMARK                         _______ _______ _______ _____ _____    ______ ____
ROOT
ATOM     12  N   UNL     1      -3.052   1.798  24.629  0.00  0.00    -0.196 NA
ATOM     13  C   UNL     1      -2.705   1.107  24.340  0.00  0.00    +0.261 C 
ATOM     14  O   UNL     1      -2.889   0.839  23.581  0.00  0.00    -0.271 OA
ENDROOT
BRANCH  13  15
ATOM     15  C   UNL     1      -2.174   0.685  24.809  0.00  0.00    +0.171 C 
ATOM     16  C   UNL     1      -1.544   1.074  25.171  0.00  0.00    +0.118 C 
ATOM     17  N   UNL     1      -1.013   0.651  25.641  0.00  0.00    -0.214 NA
ATOM     18  C   UNL     1      -1.114  -0.160  25.749  0.00  0.00    +0.110 C 
ATOM     19  C   UNL     1      -1.744  -0.549  25.387  0.00  0.00    +0.113 C 
ATOM     20  N   UNL     1      -2.275  -0.127  24.917  0.00  0.00    -0.270 N 
ATOM     21  C   UNL     1      -2.905  -0.517  24.555  0.00  0.00    +0.226 C 
ATOM     22  O   UNL     1      -3.436  -0.093  24.085  0.00  0.00    -0.275 OA
BRANCH  21  23
ATOM     23  C   UNL     1      -3.005  -1.328  24.662  0.00  0.00    +0.077 C 
ATOM     24  C   UNL     1      -2.616  -1.861  24.167  0.00  0.00    +0.009 C 
ATOM     25  C   UNL     1      -2.716  -2.673  24.275  0.00  0.00    +0.000 C 
ATOM     26  C   UNL     1      -3.206  -2.952  24.879  0.00  0.00    +0.000 C 
ATOM     27  C   UNL     1      -3.595  -2.419  25.373  0.00  0.00    +0.000 C 
ATOM     28  C   UNL     1      -3.495  -1.607  25.266  0.00  0.00    +0.009 C 
ENDBRANCH  21  23
ENDBRANCH  13  15
BRANCH  12   4
ATOM      4  C   UNL     1      -3.583   2.220  24.159  0.00  0.00    +0.174 C 
BRANCH   4   2
ATOM      1  N   UNL     1      -3.580   2.791  22.850  0.00  0.00    -0.086 NA
ATOM      2  C   UNL     1      -3.305   2.786  23.627  0.00  0.00    +0.281 C 
ATOM      3  O   UNL     1      -2.751   3.345  23.873  0.00  0.00    -0.270 OA
ENDBRANCH   4   2
BRANCH   4   5
ATOM      5  C   UNL     1      -4.393   2.075  24.222  0.00  0.00    +0.031 C 
BRANCH   5   6
ATOM      6  C   UNL     1      -4.821   2.395  24.851  0.00  0.00    +0.002 C 
ATOM      7  C   UNL     1      -4.653   3.157  25.119  0.00  0.00    +0.000 C 
ATOM      8  C   UNL     1      -5.081   3.476  25.748  0.00  0.00    +0.000 C 
ATOM      9  C   UNL     1      -5.677   3.035  26.109  0.00  0.00    +0.000 C 
ATOM     10  C   UNL     1      -5.845   2.273  25.841  0.00  0.00    +0.000 C 
ATOM     11  C   UNL     1      -5.417   1.952  25.212  0.00  0.00    +0.000 C 
ENDBRANCH   5   6
ENDBRANCH   4   5
ENDBRANCH  12   4
TORSDOF 6
ENDMDL
