MODEL 1
REMARK VINA RESULT:     -13.2      0.000      0.000
REMARK  Name = 
REMARK  6 active torsions:
REMARK  status: ('A' for Active; 'I' for Inactive)
REMARK    1  A    between atoms: C_2  and  C_3
REMARK    2  A    between atoms: C_2  and  C_17
REMARK    3  A    between atoms: N_9  and  C_10
REMARK    4  A    between atoms: C_10  and  C_11
REMARK    5  A    between atoms: C_20  and  N_21
REMARK    6  A    between atoms: C_22  and  C_24
REMARK                            x       y       z     vdW  Elec       q    Type
REMARK                         _______ _______ _______ _____ _____    ______ ____
ROOT
ATOM      1  O   UNL     1      -3.986   3.420  23.667  0.00  0.00    -0.216 OA
ATOM      2  C   UNL     1      -3.977   2.953  24.348  0.00  0.00    +0.195 C 
ENDROOT
BRANCH   2   3
ATOM      3  C   UNL     1      -3.939   3.308  25.092  0.00  0.00    +0.140 C 
ATOM      4  C   UNL     1      -4.492   3.112  25.671  0.00  0.00    +0.165 C 
ATOM      5  O   UNL     1      -4.454   3.468  26.416  0.00  0.00    -0.343 OA
ATOM      6  C   UNL     1      -3.863   4.019  26.579  0.00  0.00    +0.227 C 
ATOM      7  C   UNL     1      -3.309   4.216  26.000  0.00  0.00    +0.256 C 
ATOM      8  O   UNL     1      -2.718   4.767  26.163  0.00  0.00    -0.272 OA
ATOM      9  N   UNL     1      -3.347   3.860  25.255  0.00  0.00    -0.270 N 
BRANCH   9  10
ATOM     10  C   UNL     1      -2.795   4.056  24.676  0.00  0.00    +0.120 C 
BRANCH  10  11
ATOM     11  C   UNL     1      -1.995   4.107  24.870  0.00  0.00    -0.002 A 
ATOM     12  C   UNL     1      -1.594   4.824  24.782  0.00  0.00    -0.003 A 
ATOM     13  C   UNL     1      -0.793   4.874  24.976  0.00  0.00    -0.000 A 
ATOM     14  C   UNL     1      -0.393   4.209  25.257  0.00  0.00    -0.000 A 
ATOM     15  C   UNL     1      -0.794   3.493  25.345  0.00  0.00    -0.000 A 
ATOM     16  C   UNL     1      -1.595   3.442  25.151  0.00  0.00    -0.003 A 
ENDBRANCH  10  11
ENDBRANCH   9  10
ENDBRANCH   2   3
BRANCH   2  17
ATOM     17  C   UNL     1      -4.007   2.131  24.284  0.00  0.00    +0.010 A 
ATOM     18  C   UNL     1      -4.591   1.707  24.683  0.00  0.00    -0.000 A 
ATOM     19  C   UNL     1      -4.620   0.885  24.618  0.00  0.00    +0.016 A 
ATOM     20  C   UNL     1      -4.065   0.488  24.155  0.00  0.00    +0.074 A 
ATOM     30  C   UNL     1      -3.482   0.912  23.756  0.00  0.00    +0.016 A 
ATOM     31  C   UNL     1      -3.452   1.734  23.820  0.00  0.00    -0.000 A 
BRANCH  20  21
ATOM     21  N   UNL     1      -4.095  -0.335  24.090  0.00  0.00    -0.175 NA
ATOM     22  C   UNL     1      -3.646  -0.805  24.598  0.00  0.00    +0.269 C 
ATOM     23  O   UNL     1      -3.167  -0.452  25.171  0.00  0.00    -0.268 OA
BRANCH  22  24
ATOM     24  C   UNL     1      -3.675  -1.626  24.534  0.00  0.00    +0.055 A 
ATOM     25  C   UNL     1      -3.286  -2.098  25.088  0.00  0.00    +0.005 A 
ATOM     26  C   UNL     1      -3.316  -2.920  25.023  0.00  0.00    +0.000 A 
ATOM     27  C   UNL     1      -3.734  -3.271  24.406  0.00  0.00    +0.000 A 
ATOM     28  C   UNL     1      -4.124  -2.798  23.851  0.00  0.00    +0.000 A 
ATOM     29  C   UNL     1      -4.094  -1.977  23.916  0.00  0.00    +0.005 A 
ENDBRANCH  22  24
ENDBRANCH  20  21
ENDBRANCH   2  17
TORSDOF 6
ENDMDL
MODEL 2
REMARK VINA RESULT:     -12.8      1.775      6.151
REMARK  Name = 
REMARK  6 active torsions:
REMARK  status: ('A' for Active; 'I' for Inactive)
REMARK    1  A    between atoms: C_2  and  C_3
REMARK    2  A    between atoms: C_2  and  C_17
REMARK    3  A    between atoms: N_9  and  C_10
REMARK    4  A    between atoms: C_10  and  C_11
REMARK    5  A    between atoms: C_20  and  N_21
REMARK    6  A    between atoms: C_22  and  C_24
REMARK                            x       y       z     vdW  Elec       q    Type
REMARK                         _______ _______ _______ _____ _____    ______ ____
ROOT
ATOM      1  O   UNL     1      -2.106  -0.584  26.238  0.00  0.00    -0.216 OA
ATOM      2  C   UNL     1      -1.683  -0.358  25.566  0.00  0.00    +0.195 C 
ENDROOT
BRANCH   2   3
ATOM      3  C   UNL     1      -1.361  -0.933  25.069  0.00  0.00    +0.140 C 
ATOM      4  C   UNL     1      -0.614  -0.821  24.740  0.00  0.00    +0.165 C 
ATOM      5  O   UNL     1      -0.292  -1.397  24.242  0.00  0.00    -0.343 OA
ATOM      6  C   UNL     1      -0.718  -2.083  24.076  0.00  0.00    +0.227 C 
ATOM      7  C   UNL     1      -1.466  -2.195  24.406  0.00  0.00    +0.256 C 
ATOM      8  O   UNL     1      -1.892  -2.881  24.239  0.00  0.00    -0.272 OA
ATOM      9  N   UNL     1      -1.788  -1.620  24.903  0.00  0.00    -0.270 N 
BRANCH   9  10
ATOM     10  C   UNL     1      -2.535  -1.732  25.233  0.00  0.00    +0.120 C 
BRANCH  10  11
ATOM     11  C   UNL     1      -3.169  -1.951  24.754  0.00  0.00    -0.002 A 
ATOM     12  C   UNL     1      -3.440  -2.731  24.759  0.00  0.00    -0.003 A 
ATOM     13  C   UNL     1      -4.075  -2.950  24.279  0.00  0.00    -0.000 A 
ATOM     14  C   UNL     1      -4.439  -2.390  23.794  0.00  0.00    -0.000 A 
ATOM     15  C   UNL     1      -4.168  -1.610  23.789  0.00  0.00    -0.000 A 
ATOM     16  C   UNL     1      -3.533  -1.391  24.269  0.00  0.00    -0.003 A 
ENDBRANCH  10  11
ENDBRANCH   9  10
ENDBRANCH   2   3
BRANCH   2  17
ATOM     17  C   UNL     1      -1.581   0.441  25.392  0.00  0.00    +0.010 A 
ATOM     18  C   UNL     1      -2.146   0.842  24.946  0.00  0.00    -0.000 A 
ATOM     19  C   UNL     1      -2.044   1.642  24.772  0.00  0.00    +0.016 A 
ATOM     20  C   UNL     1      -1.376   2.041  25.046  0.00  0.00    +0.074 A 
ATOM     30  C   UNL     1      -0.811   1.641  25.492  0.00  0.00    +0.016 A 
ATOM     31  C   UNL     1      -0.912   0.841  25.666  0.00  0.00    -0.000 A 
BRANCH  20  21
ATOM     21  N   UNL     1      -1.274   2.842  24.872  0.00  0.00    -0.175 NA
ATOM     22  C   UNL     1      -1.527   3.416  25.408  0.00  0.00    +0.269 C 
ATOM     23  O   UNL     1      -1.881   3.189  26.118  0.00  0.00    -0.268 OA
BRANCH  22  24
ATOM     24  C   UNL     1      -1.424   4.215  25.234  0.00  0.00    +0.055 A 
ATOM     25  C   UNL     1      -2.037   4.751  25.379  0.00  0.00    +0.005 A 
ATOM     26  C   UNL     1      -1.934   5.551  25.205  0.00  0.00    +0.000 A 
ATOM     27  C   UNL     1      -1.221   5.816  24.886  0.00  0.00    +0.000 A 
ATOM     28  C   UNL     1      -0.609   5.280  24.742  0.00  0.00    +0.000 A 
ATOM     29  C   UNL     1      -0.711   4.481  24.915  0.00  0.00    +0.005 A 
ENDBRANCH  22  24
ENDBRANCH  20  21
ENDBRANCH   2  17
TORSDOF 6
ENDMDL
MODEL 3
REMARK VINA RESULT:     -11.0      1.680      2.434
REMARK  Name = 
REMARK  6 active torsions:
REMARK  status: ('A' for Active; 'I' for Inactive)
REMARK    1  A    between atoms: C_2  and  C_3
REMARK    2  A    between atoms: C_2  and  C_17
REMARK    3  A    between atoms: N_9  and  C_10
REMARK    4  A    between atoms: C_10  and  C_11
REMARK    5  A    between atoms: C_20  and  N_21
REMARK    6  A    between atoms: C_22  and  C_24
REMARK                            x       y       z     vdW  Elec       q    Type
REMARK                         _______ _______ _______ _____ _____    ______ ____
ROOT
ATOM      1  O   UNL     1      -0.844   2.615  23.607  0.00  0.00    -0.216 OA
ATOM      2  C   UNL     1      -0.885   2.080  24.234  0.00  0.00    +0.195 C 
ENDROOT
BRANCH   2   3
ATOM      3  C   UNL     1      -0.520   2.258  24.953  0.00  0.00    +0.140 C 
ATOM      4  C   UNL     1       0.191   1.894  25.155  0.00  0.00    +0.165 C 
ATOM      5  O   UNL     1       0.556   2.072  25.875  0.00  0.00    -0.343 OA
ATOM      6  C   UNL     1       0.208   2.614  26.390  0.00  0.00    +0.227 C 
ATOM      7  C   UNL     1      -0.504   2.978  26.188  0.00  0.00    +0.256 C 
ATOM      8  O   UNL     1      -0.852   3.520  26.703  0.00  0.00    -0.272 OA
ATOM      9  N   UNL     1      -0.869   2.800  25.468  0.00  0.00    -0.270 N 
BRANCH   9  10
ATOM     10  C   UNL     1      -1.580   3.164  25.266  0.00  0.00    +0.120 C 
BRANCH  10  11
ATOM     11  C   UNL     1      -1.632   3.987  25.247  0.00  0.00    -0.002 A 
ATOM     12  C   UNL     1      -2.277   4.368  25.595  0.00  0.00    -0.003 A 
ATOM     13  C   UNL     1      -2.328   5.191  25.576  0.00  0.00    -0.000 A 
ATOM     14  C   UNL     1      -1.736   5.634  25.209  0.00  0.00    -0.000 A 
ATOM     15  C   UNL     1      -1.092   5.253  24.861  0.00  0.00    -0.000 A 
ATOM     16  C   UNL     1      -1.040   4.430  24.880  0.00  0.00    -0.003 A 
ENDBRANCH  10  11
ENDBRANCH   9  10
ENDBRANCH   2   3
BRANCH   2  17
ATOM     17  C   UNL     1      -1.290   1.368  24.142  0.00  0.00    +0.010 A 
ATOM     18  C   UNL     1      -2.085   1.370  23.925  0.00  0.00    -0.000 A 
ATOM     19  C   UNL     1      -2.490   0.657  23.833  0.00  0.00    +0.016 A 
ATOM     20  C   UNL     1      -2.099  -0.058  23.958  0.00  0.00    +0.074 A 
ATOM     30  C   UNL     1      -1.304  -0.061  24.175  0.00  0.00    +0.016 A 
ATOM     31  C   UNL     1      -0.898   0.651  24.267  0.00  0.00    -0.000 A 
BRANCH  20  21
ATOM     21  N   UNL     1      -2.504  -0.772  23.866  0.00  0.00    -0.175 NA
ATOM     22  C   UNL     1      -2.959  -1.071  24.485  0.00  0.00    +0.269 C 
ATOM     23  O   UNL     1      -3.009  -0.656  25.197  0.00  0.00    -0.268 OA
BRANCH  22  24
ATOM     24  C   UNL     1      -3.364  -1.783  24.393  0.00  0.00    +0.055 A 
ATOM     25  C   UNL     1      -3.082  -2.468  24.757  0.00  0.00    +0.005 A 
ATOM     26  C   UNL     1      -3.487  -3.181  24.664  0.00  0.00    +0.000 A 
ATOM     27  C   UNL     1      -4.173  -3.210  24.209  0.00  0.00    +0.000 A 
ATOM     28  C   UNL     1      -4.456  -2.524  23.844  0.00  0.00    +0.000 A 
ATOM     29  C   UNL     1      -4.051  -1.812  23.937  0.00  0.00    +0.005 A 
ENDBRANCH  22  24
ENDBRANCH  20  21
ENDBRANCH   2  17
TORSDOF 6
ENDMDL
MODEL 4
REMARK VINA RESULT:     -10.7      1.058      2.249
REMARK  Name = 
REMARK  6 active torsions:
REMARK  status: ('A' for Active; 'I' for Inactive)
REMARK    1  A    between atoms: C_2  and  C_3
REMARK    2  A    between atoms: C_2  and  C_17
REMARK    3  A    between atoms: N_9  and  C_10
REMARK    4  A    between atoms: C_10  and  C_11
REMARK    5  A    between atoms: C_20  and  N_21
REMARK    6  A    between atoms: C_22  and  C_24
REMARK                            x       y       z     vdW  Elec       q    Type
REMARK                         _______ _______ _______ _____ _____    ______ ____
ROOT
ATOM      1  O   UNL     1      -2.580   3.074  23.423  0.00  0.00    -0.216 OA
ATOM      2  C   UNL     1      -2.525   2.639  24.122  0.00  0.00    +0.195 C 
ENDROOT
BRANCH   2   3
ATOM      3  C   UNL     1      -2.383   3.024  24.838  0.00  0.00    +0.140 C 
ATOM      4  C   UNL     1      -1.692   2.871  25.259  0.00  0.00    +0.165 C 
ATOM      5  O   UNL     1      -1.550   3.256  25.976  0.00  0.00    -0.343 OA
ATOM      6  C   UNL     1      -2.101   3.795  26.269  0.00  0.00    +0.227 C 
ATOM      7  C   UNL     1      -2.794   3.949  25.848  0.00  0.00    +0.256 C 
ATOM      8  O   UNL     1      -3.345   4.487  26.142  0.00  0.00    -0.272 OA
ATOM      9  N   UNL     1      -2.935   3.563  25.132  0.00  0.00    -0.270 N 
BRANCH   9  10
ATOM     10  C   UNL     1      -3.627   3.716  24.710  0.00  0.00    +0.120 C 
BRANCH  10  11
ATOM     11  C   UNL     1      -4.358   3.673  25.089  0.00  0.00    -0.002 A 
ATOM     12  C   UNL     1      -4.868   4.324  25.077  0.00  0.00    -0.003 A 
ATOM     13  C   UNL     1      -5.599   4.280  25.456  0.00  0.00    -0.000 A 
ATOM     14  C   UNL     1      -5.823   3.588  25.846  0.00  0.00    -0.000 A 
ATOM     15  C   UNL     1      -5.314   2.938  25.857  0.00  0.00    -0.000 A 
ATOM     16  C   UNL     1      -4.582   2.981  25.478  0.00  0.00    -0.003 A 
ENDBRANCH  10  11
ENDBRANCH   9  10
ENDBRANCH   2   3
BRANCH   2  17
ATOM     17  C   UNL     1      -2.610   1.819  24.104  0.00  0.00    +0.010 A 
ATOM     18  C   UNL     1      -2.162   1.346  24.609  0.00  0.00    -0.000 A 
ATOM     19  C   UNL     1      -2.248   0.525  24.591  0.00  0.00    +0.016 A 
ATOM     20  C   UNL     1      -2.783   0.179  24.068  0.00  0.00    +0.074 A 
ATOM     30  C   UNL     1      -3.231   0.651  23.563  0.00  0.00    +0.016 A 
ATOM     31  C   UNL     1      -3.145   1.471  23.580  0.00  0.00    -0.000 A 
BRANCH  20  21
ATOM     21  N   UNL     1      -2.869  -0.642  24.049  0.00  0.00    -0.175 NA
ATOM     22  C   UNL     1      -3.463  -1.005  24.492  0.00  0.00    +0.269 C 
ATOM     23  O   UNL     1      -3.971  -0.546  24.953  0.00  0.00    -0.268 OA
BRANCH  22  24
ATOM     24  C   UNL     1      -3.549  -1.825  24.474  0.00  0.00    +0.055 A 
ATOM     25  C   UNL     1      -4.048  -2.175  23.917  0.00  0.00    +0.005 A 
ATOM     26  C   UNL     1      -4.133  -2.996  23.899  0.00  0.00    +0.000 A 
ATOM     27  C   UNL     1      -3.721  -3.466  24.437  0.00  0.00    +0.000 A 
ATOM     28  C   UNL     1      -3.222  -3.115  24.993  0.00  0.00    +0.000 A 
ATOM     29  C   UNL     1      -3.136  -2.295  25.012  0.00  0.00    +0.005 A 
ENDBRANCH  22  24
ENDBRANCH  20  21
ENDBRANCH   2  17
TORSDOF 6
ENDMDL
