MODEL 1
REMARK VINA RESULT:      -9.8      0.000      0.000
REMARK  Name = 
REMARK  6 active torsions:
REMARK  status: ('A' for Active; 'I' for Inactive)
REMARK    1  A    between atoms: C_3  and  C_4
REMARK    2  A    between atoms: C_4  and  N_5
REMARK    3  A    between atoms: C_6  and  C_8
REMARK    4  A    between atoms: C_15  and  N_16
REMARK    5  A    between atoms: N_16  and  C_17
REMARK    6  A    between atoms: C_17  and  C_18
REMARK                            x       y       z     vdW  Elec       q    Type
REMARK                         _______ _______ _______ _____ _____    ______ ____
ROOT
ATOM      1  O   UNL     1      -4.052   1.222  25.433  0.00  0.00    -0.219 OA
ATOM      2  C   UNL     1      -3.716   1.315  24.685  0.00  0.00    +0.199 C 
ATOM      3  C   UNL     1      -3.414   2.016  24.373  0.00  0.00    +0.169 C 
ATOM     13  O   UNL     1      -3.134   1.857  23.614  0.00  0.00    -0.350 OA
ATOM     14  C   UNL     1      -3.263   1.058  23.456  0.00  0.00    +0.162 C 
ATOM     15  C   UNL     1      -3.622   0.722  24.118  0.00  0.00    +0.135 C 
ENDROOT
BRANCH   3   4
ATOM      4  C   UNL     1      -3.395   2.748  24.754  0.00  0.00    +0.148 C 
BRANCH   4   5
ATOM      5  N   UNL     1      -2.716   3.215  24.717  0.00  0.00    -0.199 NA
ATOM      6  C   UNL     1      -2.673   3.915  25.152  0.00  0.00    +0.271 C 
ATOM      7  O   UNL     1      -3.308   4.147  25.624  0.00  0.00    -0.268 OA
BRANCH   6   8
ATOM      8  C   UNL     1      -1.994   4.382  25.115  0.00  0.00    +0.084 A 
ATOM      9  C   UNL     1      -1.971   5.206  25.120  0.00  0.00    +0.012 A 
ATOM     10  C   UNL     1      -1.182   5.440  25.075  0.00  0.00    +0.008 A 
ATOM     11  C   UNL     1      -0.716   4.760  25.042  0.00  0.00    +0.036 A 
ATOM     12  S   UNL     1      -1.217   4.106  25.067  0.00  0.00    -0.082 S 
ENDBRANCH   6   8
ENDBRANCH   4   5
ENDBRANCH   3   4
BRANCH  15  16
ATOM     16  N   UNL     1      -3.848  -0.066  24.200  0.00  0.00    -0.209 NA
BRANCH  16  17
ATOM     17  C   UNL     1      -3.276  -0.660  24.220  0.00  0.00    +0.118 C 
BRANCH  17  18
ATOM     18  C   UNL     1      -3.503  -1.453  24.224  0.00  0.00    +0.034 A 
ATOM     19  C   UNL     1      -3.018  -2.019  24.578  0.00  0.00    +0.193 A 
ATOM     20  O   UNL     1      -2.307  -1.792  24.928  0.00  0.00    -0.287 OA
ATOM     21  C   UNL     1      -3.246  -2.813  24.582  0.00  0.00    +0.042 A 
ATOM     22  C   UNL     1      -3.958  -3.039  24.232  0.00  0.00    +0.003 A 
ATOM     23  C   UNL     1      -4.442  -2.473  23.878  0.00  0.00    -0.000 A 
ATOM     24  C   UNL     1      -4.215  -1.679  23.874  0.00  0.00    +0.000 A 
ENDBRANCH  17  18
ENDBRANCH  16  17
ENDBRANCH  15  16
TORSDOF 6
ENDMDL
MODEL 2
REMARK VINA RESULT:      -9.5      2.135      5.925
REMARK  Name = 
REMARK  6 active torsions:
REMARK  status: ('A' for Active; 'I' for Inactive)
REMARK    1  A    between atoms: C_3  and  C_4
REMARK    2  A    between atoms: C_4  and  N_5
REMARK    3  A    between atoms: C_6  and  C_8
REMARK    4  A    between atoms: C_15  and  N_16
REMARK    5  A    between atoms: N_16  and  C_17
REMARK    6  A    between atoms: C_17  and  C_18
REMARK                            x       y       z     vdW  Elec       q    Type
REMARK                         _______ _______ _______ _____ _____    ______ ____
ROOT
ATOM      1  O   UNL     1      -1.164   1.163  23.753  0.00  0.00    -0.219 OA
ATOM      2  C   UNL     1      -1.102   1.046  24.567  0.00  0.00    +0.199 C 
ATOM      3  C   UNL     1      -1.126   0.319  24.956  0.00  0.00    +0.169 C 
ATOM     13  O   UNL     1      -1.043   0.460  25.764  0.00  0.00    -0.350 OA
ATOM     14  C   UNL     1      -0.968   1.274  25.875  0.00  0.00    +0.162 C 
ATOM     15  C   UNL     1      -1.004   1.636  25.135  0.00  0.00    +0.135 C 
ENDROOT
BRANCH   3   4
ATOM      4  C   UNL     1      -1.218  -0.419  24.598  0.00  0.00    +0.148 C 
BRANCH   4   5
ATOM      5  N   UNL     1      -1.956  -0.788  24.597  0.00  0.00    -0.199 NA
ATOM      6  C   UNL     1      -2.017  -1.587  24.400  0.00  0.00    +0.271 C 
ATOM      7  O   UNL     1      -1.340  -2.017  24.204  0.00  0.00    -0.268 OA
BRANCH   6   8
ATOM      8  C   UNL     1      -2.755  -1.956  24.398  0.00  0.00    +0.084 A 
ATOM      9  C   UNL     1      -3.456  -1.637  24.104  0.00  0.00    +0.012 A 
ATOM     10  C   UNL     1      -4.055  -2.193  24.215  0.00  0.00    +0.008 A 
ATOM     11  C   UNL     1      -3.724  -2.856  24.578  0.00  0.00    +0.036 A 
ATOM     12  S   UNL     1      -2.921  -2.710  24.691  0.00  0.00    -0.082 S 
ENDBRANCH   6   8
ENDBRANCH   4   5
ENDBRANCH   3   4
BRANCH  15  16
ATOM     16  N   UNL     1      -0.951   2.446  24.989  0.00  0.00    -0.209 NA
BRANCH  16  17
ATOM     17  C   UNL     1      -1.328   2.981  25.491  0.00  0.00    +0.118 C 
BRANCH  17  18
ATOM     18  C   UNL     1      -1.316   3.788  25.318  0.00  0.00    +0.034 A 
ATOM     19  C   UNL     1      -1.956   4.264  25.529  0.00  0.00    +0.193 A 
ATOM     20  O   UNL     1      -2.608   3.933  25.912  0.00  0.00    -0.287 OA
ATOM     21  C   UNL     1      -1.945   5.071  25.356  0.00  0.00    +0.042 A 
ATOM     22  C   UNL     1      -1.293   5.401  24.972  0.00  0.00    +0.003 A 
ATOM     23  C   UNL     1      -0.653   4.925  24.762  0.00  0.00    -0.000 A 
ATOM     24  C   UNL     1      -0.665   4.118  24.935  0.00  0.00    +0.000 A 
ENDBRANCH  17  18
ENDBRANCH  16  17
ENDBRANCH  15  16
TORSDOF 6
ENDMDL
MODEL 3
REMARK VINA RESULT:      -9.5      1.430      1.647
REMARK  Name = 
REMARK  6 active torsions:
REMARK  status: ('A' for Active; 'I' for Inactive)
REMARK    1  A    between atoms: C_3  and  C_4
REMARK    2  A    between atoms: C_4  and  N_5
REMARK    3  A    between atoms: C_6  and  C_8
REMARK    4  A    between atoms: C_15  and  N_16
REMARK    5  A    between atoms: N_16  and  C_17
REMARK    6  A    between atoms: C_17  and  C_18
REMARK                            x       y       z     vdW  Elec       q    Type
REMARK                         _______ _______ _______ _____ _____    ______ ____
ROOT
ATOM      1  O   UNL     1      -1.070   0.262  25.202  0.00  0.00    -0.219 OA
ATOM      2  C   UNL     1      -1.791   0.654  25.108  0.00  0.00    +0.199 C 
ATOM      3  C   UNL     1      -1.908   1.469  25.149  0.00  0.00    +0.169 C 
ATOM     13  O   UNL     1      -2.710   1.617  25.024  0.00  0.00    -0.350 OA
ATOM     14  C   UNL     1      -3.088   0.894  24.905  0.00  0.00    +0.162 C 
ATOM     15  C   UNL     1      -2.520   0.298  24.958  0.00  0.00    +0.135 C 
ENDROOT
BRANCH   3   4
ATOM      4  C   UNL     1      -1.326   2.037  25.290  0.00  0.00    +0.148 C 
BRANCH   4   5
ATOM      5  N   UNL     1      -1.477   2.831  25.129  0.00  0.00    -0.199 NA
ATOM      6  C   UNL     1      -0.932   3.409  25.354  0.00  0.00    +0.271 C 
ATOM      7  O   UNL     1      -0.237   3.191  25.741  0.00  0.00    -0.268 OA
BRANCH   6   8
ATOM      8  C   UNL     1      -1.083   4.204  25.192  0.00  0.00    +0.084 A 
ATOM      9  C   UNL     1      -1.735   4.637  25.452  0.00  0.00    +0.012 A 
ATOM     10  C   UNL     1      -1.663   5.405  25.163  0.00  0.00    +0.008 A 
ATOM     11  C   UNL     1      -0.966   5.448  24.724  0.00  0.00    +0.036 A 
ATOM     12  S   UNL     1      -0.607   4.706  24.742  0.00  0.00    -0.082 S 
ENDBRANCH   6   8
ENDBRANCH   4   5
ENDBRANCH   3   4
BRANCH  15  16
ATOM     16  N   UNL     1      -2.657  -0.511  24.874  0.00  0.00    -0.209 NA
BRANCH  16  17
ATOM     17  C   UNL     1      -3.398  -0.781  24.634  0.00  0.00    +0.118 C 
BRANCH  17  18
ATOM     18  C   UNL     1      -3.533  -1.590  24.541  0.00  0.00    +0.034 A 
ATOM     19  C   UNL     1      -4.051  -1.858  23.958  0.00  0.00    +0.193 A 
ATOM     20  O   UNL     1      -4.434  -1.317  23.467  0.00  0.00    -0.287 OA
ATOM     21  C   UNL     1      -4.185  -2.667  23.866  0.00  0.00    +0.042 A 
ATOM     22  C   UNL     1      -3.801  -3.207  24.357  0.00  0.00    +0.003 A 
ATOM     23  C   UNL     1      -3.283  -2.939  24.940  0.00  0.00    -0.000 A 
ATOM     24  C   UNL     1      -3.149  -2.130  25.033  0.00  0.00    +0.000 A 
ENDBRANCH  17  18
ENDBRANCH  16  17
ENDBRANCH  15  16
TORSDOF 6
ENDMDL
MODEL 4
REMARK VINA RESULT:      -9.4      1.796      5.783
REMARK  Name = 
REMARK  6 active torsions:
REMARK  status: ('A' for Active; 'I' for Inactive)
REMARK    1  A    between atoms: C_3  and  C_4
REMARK    2  A    between atoms: C_4  and  N_5
REMARK    3  A    between atoms: C_6  and  C_8
REMARK    4  A    between atoms: C_15  and  N_16
REMARK    5  A    between atoms: N_16  and  C_17
REMARK    6  A    between atoms: C_17  and  C_18
REMARK                            x       y       z     vdW  Elec       q    Type
REMARK                         _______ _______ _______ _____ _____    ______ ____
ROOT
ATOM      1  O   UNL     1      -3.900   2.073  24.349  0.00  0.00    -0.219 OA
ATOM      2  C   UNL     1      -3.231   1.683  24.634  0.00  0.00    +0.199 C 
ATOM      3  C   UNL     1      -3.138   0.867  24.703  0.00  0.00    +0.169 C 
ATOM     13  O   UNL     1      -2.387   0.721  25.011  0.00  0.00    -0.350 OA
ATOM     14  C   UNL     1      -2.016   1.448  25.134  0.00  0.00    +0.162 C 
ATOM     15  C   UNL     1      -2.538   2.043  24.901  0.00  0.00    +0.135 C 
ENDROOT
BRANCH   3   4
ATOM      4  C   UNL     1      -3.698   0.296  24.498  0.00  0.00    +0.148 C 
BRANCH   4   5
ATOM      5  N   UNL     1      -3.497  -0.504  24.519  0.00  0.00    -0.199 NA
ATOM      6  C   UNL     1      -4.069  -1.077  24.357  0.00  0.00    +0.271 C 
ATOM      7  O   UNL     1      -4.840  -0.849  24.174  0.00  0.00    -0.268 OA
BRANCH   6   8
ATOM      8  C   UNL     1      -3.868  -1.877  24.377  0.00  0.00    +0.084 A 
ATOM      9  C   UNL     1      -4.065  -2.441  23.808  0.00  0.00    +0.012 A 
ATOM     10  C   UNL     1      -3.755  -3.166  24.049  0.00  0.00    +0.008 A 
ATOM     11  C   UNL     1      -3.365  -3.050  24.767  0.00  0.00    +0.036 A 
ATOM     12  S   UNL     1      -3.436  -2.254  24.970  0.00  0.00    -0.082 S 
ENDBRANCH   6   8
ENDBRANCH   4   5
ENDBRANCH   3   4
BRANCH  15  16
ATOM     16  N   UNL     1      -2.392   2.854  24.929  0.00  0.00    -0.209 NA
BRANCH  16  17
ATOM     17  C   UNL     1      -1.619   3.131  25.002  0.00  0.00    +0.118 C 
BRANCH  17  18
ATOM     18  C   UNL     1      -1.470   3.943  25.004  0.00  0.00    +0.034 A 
ATOM     19  C   UNL     1      -0.776   4.236  24.667  0.00  0.00    +0.193 A 
ATOM     20  O   UNL     1      -0.231   3.717  24.329  0.00  0.00    -0.287 OA
ATOM     21  C   UNL     1      -0.627   5.048  24.668  0.00  0.00    +0.042 A 
ATOM     22  C   UNL     1      -1.173   5.566  25.007  0.00  0.00    +0.003 A 
ATOM     23  C   UNL     1      -1.867   5.273  25.344  0.00  0.00    -0.000 A 
ATOM     24  C   UNL     1      -2.015   4.461  25.342  0.00  0.00    +0.000 A 
ENDBRANCH  17  18
ENDBRANCH  16  17
ENDBRANCH  15  16
TORSDOF 6
ENDMDL
MODEL 5
REMARK VINA RESULT:      -8.1      3.095      4.644
REMARK  Name = 
REMARK  6 active torsions:
REMARK  status: ('A' for Active; 'I' for Inactive)
REMARK    1  A    between atoms: C_3  and  C_4
REMARK    2  A    between atoms: C_4  and  N_5
REMARK    3  A    between atoms: C_6  and  C_8
REMARK    4  A    between atoms: C_15  and  N_16
REMARK    5  A    between atoms: N_16  and  C_17
REMARK    6  A    between atoms: C_17  and  C_18
REMARK                            x       y       z     vdW  Elec       q    Type
REMARK                         _______ _______ _______ _____ _____    ______ ____
ROOT
ATOM      1  O   UNL     1      -2.274   0.125  25.047  0.00  0.00    -0.219 OA
ATOM      2  C   UNL     1      -2.107   0.709  24.489  0.00  0.00    +0.199 C 
ATOM      3  C   UNL     1      -1.424   0.760  24.029  0.00  0.00    +0.169 C 
ATOM     13  O   UNL     1      -1.489   1.427  23.549  0.00  0.00    -0.350 OA
ATOM     14  C   UNL     1      -2.212   1.789  23.712  0.00  0.00    +0.162 C 
ATOM     15  C   UNL     1      -2.594   1.346  24.293  0.00  0.00    +0.135 C 
ENDROOT
BRANCH   3   4
ATOM      4  C   UNL     1      -0.788   0.235  24.046  0.00  0.00    +0.148 C 
BRANCH   4   5
ATOM      5  N   UNL     1      -0.104   0.401  23.615  0.00  0.00    -0.199 NA
ATOM      6  C   UNL     1       0.486  -0.171  23.541  0.00  0.00    +0.271 C 
ATOM      7  O   UNL     1       0.392  -0.909  23.899  0.00  0.00    -0.268 OA
BRANCH   6   8
ATOM      8  C   UNL     1       1.170  -0.005  23.110  0.00  0.00    +0.084 A 
ATOM      9  C   UNL     1       1.764   0.524  23.327  0.00  0.00    +0.012 A 
ATOM     10  C   UNL     1       2.340   0.517  22.738  0.00  0.00    +0.008 A 
ATOM     11  C   UNL     1       2.102  -0.017  22.156  0.00  0.00    +0.036 A 
ATOM     12  S   UNL     1       1.380  -0.340  22.385  0.00  0.00    -0.082 S 
ENDBRANCH   6   8
ENDBRANCH   4   5
ENDBRANCH   3   4
BRANCH  15  16
ATOM     16  N   UNL     1      -3.333   1.510  24.620  0.00  0.00    -0.209 NA
BRANCH  16  17
ATOM     17  C   UNL     1      -3.630   2.279  24.603  0.00  0.00    +0.118 C 
BRANCH  17  18
ATOM     18  C   UNL     1      -4.382   2.438  24.905  0.00  0.00    +0.034 A 
ATOM     19  C   UNL     1      -4.526   3.146  25.302  0.00  0.00    +0.193 A 
ATOM     20  O   UNL     1      -3.918   3.696  25.397  0.00  0.00    -0.287 OA
ATOM     21  C   UNL     1      -5.278   3.305  25.603  0.00  0.00    +0.042 A 
ATOM     22  C   UNL     1      -5.885   2.755  25.507  0.00  0.00    +0.003 A 
ATOM     23  C   UNL     1      -5.741   2.046  25.110  0.00  0.00    -0.000 A 
ATOM     24  C   UNL     1      -4.989   1.887  24.809  0.00  0.00    +0.000 A 
ENDBRANCH  17  18
ENDBRANCH  16  17
ENDBRANCH  15  16
TORSDOF 6
ENDMDL
MODEL 6
REMARK VINA RESULT:      -8.1      4.235      4.921
REMARK  Name = 
REMARK  6 active torsions:
REMARK  status: ('A' for Active; 'I' for Inactive)
REMARK    1  A    between atoms: C_3  and  C_4
REMARK    2  A    between atoms: C_4  and  N_5
REMARK    3  A    between atoms: C_6  and  C_8
REMARK    4  A    between atoms: C_15  and  N_16
REMARK    5  A    between atoms: N_16  and  C_17
REMARK    6  A    between atoms: C_17  and  C_18
REMARK                            x       y       z     vdW  Elec       q    Type
REMARK                         _______ _______ _______ _____ _____    ______ ____
ROOT
ATOM      1  O   UNL     1      -0.136  -1.106  23.531  0.00  0.00    -0.219 OA
ATOM      2  C   UNL     1      -0.070  -0.306  23.721  0.00  0.00    +0.199 C 
ATOM      3  C   UNL     1       0.503   0.214  23.436  0.00  0.00    +0.169 C 
ATOM     13  O   UNL     1       0.362   0.956  23.768  0.00  0.00    -0.350 OA
ATOM     14  C   UNL     1      -0.299   0.894  24.258  0.00  0.00    +0.162 C 
ATOM     15  C   UNL     1      -0.566   0.115  24.229  0.00  0.00    +0.135 C 
ENDROOT
BRANCH   3   4
ATOM      4  C   UNL     1       1.111   0.026  22.911  0.00  0.00    +0.148 C 
BRANCH   4   5
ATOM      5  N   UNL     1       1.891   0.219  23.097  0.00  0.00    -0.199 NA
ATOM      6  C   UNL     1       2.482   0.145  22.525  0.00  0.00    +0.271 C 
ATOM      7  O   UNL     1       2.292  -0.123  21.768  0.00  0.00    -0.268 OA
BRANCH   6   8
ATOM      8  C   UNL     1       3.263   0.338  22.711  0.00  0.00    +0.084 A 
ATOM      9  C   UNL     1       3.617   1.076  22.611  0.00  0.00    +0.012 A 
ATOM     10  C   UNL     1       4.398   1.021  22.868  0.00  0.00    +0.008 A 
ATOM     11  C   UNL     1       4.528   0.248  23.127  0.00  0.00    +0.036 A 
ATOM     12  S   UNL     1       3.827  -0.174  23.030  0.00  0.00    -0.082 S 
ENDBRANCH   6   8
ENDBRANCH   4   5
ENDBRANCH   3   4
BRANCH  15  16
ATOM     16  N   UNL     1      -1.215  -0.191  24.636  0.00  0.00    -0.209 NA
BRANCH  16  17
ATOM     17  C   UNL     1      -1.941   0.199  24.607  0.00  0.00    +0.118 C 
BRANCH  17  18
ATOM     18  C   UNL     1      -2.612  -0.154  24.933  0.00  0.00    +0.034 A 
ATOM     19  C   UNL     1      -3.363   0.088  24.692  0.00  0.00    +0.193 A 
ATOM     20  O   UNL     1      -3.443   0.682  24.125  0.00  0.00    -0.287 OA
ATOM     21  C   UNL     1      -4.034  -0.265  25.018  0.00  0.00    +0.042 A 
ATOM     22  C   UNL     1      -3.954  -0.859  25.585  0.00  0.00    +0.003 A 
ATOM     23  C   UNL     1      -3.202  -1.100  25.826  0.00  0.00    -0.000 A 
ATOM     24  C   UNL     1      -2.531  -0.747  25.500  0.00  0.00    +0.000 A 
ENDBRANCH  17  18
ENDBRANCH  16  17
ENDBRANCH  15  16
TORSDOF 6
ENDMDL
MODEL 7
REMARK VINA RESULT:      -6.6      3.216      4.225
REMARK  Name = 
REMARK  6 active torsions:
REMARK  status: ('A' for Active; 'I' for Inactive)
REMARK    1  A    between atoms: C_3  and  C_4
REMARK    2  A    between atoms: C_4  and  N_5
REMARK    3  A    between atoms: C_6  and  C_8
REMARK    4  A    between atoms: C_15  and  N_16
REMARK    5  A    between atoms: N_16  and  C_17
REMARK    6  A    between atoms: C_17  and  C_18
REMARK                            x       y       z     vdW  Elec       q    Type
REMARK                         _______ _______ _______ _____ _____    ______ ____
ROOT
ATOM      1  O   UNL     1      -2.043  -0.261  24.390  0.00  0.00    -0.219 OA
ATOM      2  C   UNL     1      -1.980   0.528  24.157  0.00  0.00    +0.199 C 
ATOM      3  C   UNL     1      -2.569   1.101  24.220  0.00  0.00    +0.169 C 
ATOM     13  O   UNL     1      -2.269   1.809  23.922  0.00  0.00    -0.350 OA
ATOM     14  C   UNL     1      -1.494   1.674  23.674  0.00  0.00    +0.162 C 
ATOM     15  C   UNL     1      -1.315   0.882  23.819  0.00  0.00    +0.135 C 
ENDROOT
BRANCH   3   4
ATOM      4  C   UNL     1      -3.326   0.987  24.529  0.00  0.00    +0.148 C 
BRANCH   4   5
ATOM      5  N   UNL     1      -3.774   1.634  24.774  0.00  0.00    -0.199 NA
ATOM      6  C   UNL     1      -4.547   1.524  25.041  0.00  0.00    +0.271 C 
ATOM      7  O   UNL     1      -4.871   0.766  25.062  0.00  0.00    -0.268 OA
BRANCH   6   8
ATOM      8  C   UNL     1      -4.996   2.171  25.286  0.00  0.00    +0.084 A 
ATOM      9  C   UNL     1      -4.733   2.952  25.336  0.00  0.00    +0.012 A 
ATOM     10  C   UNL     1      -5.360   3.415  25.605  0.00  0.00    +0.008 A 
ATOM     11  C   UNL     1      -6.010   2.921  25.721  0.00  0.00    +0.036 A 
ATOM     12  S   UNL     1      -5.786   2.153  25.524  0.00  0.00    -0.082 S 
ENDBRANCH   6   8
ENDBRANCH   4   5
ENDBRANCH   3   4
BRANCH  15  16
ATOM     16  N   UNL     1      -0.598   0.509  23.655  0.00  0.00    -0.209 NA
BRANCH  16  17
ATOM     17  C   UNL     1       0.106   0.937  23.689  0.00  0.00    +0.118 C 
BRANCH  17  18
ATOM     18  C   UNL     1       0.795   0.627  23.356  0.00  0.00    +0.034 A 
ATOM     19  C   UNL     1       1.519   1.000  23.484  0.00  0.00    +0.193 A 
ATOM     20  O   UNL     1       1.555   1.684  23.944  0.00  0.00    -0.287 OA
ATOM     21  C   UNL     1       2.208   0.689  23.151  0.00  0.00    +0.042 A 
ATOM     22  C   UNL     1       2.171   0.005  22.692  0.00  0.00    +0.003 A 
ATOM     23  C   UNL     1       1.446  -0.368  22.564  0.00  0.00    -0.000 A 
ATOM     24  C   UNL     1       0.758  -0.057  22.897  0.00  0.00    +0.000 A 
ENDBRANCH  17  18
ENDBRANCH  16  17
ENDBRANCH  15  16
TORSDOF 6
ENDMDL
MODEL 8
REMARK VINA RESULT:      -6.1     14.234     16.362
REMARK  Name = 
REMARK  6 active torsions:
REMARK  status: ('A' for Active; 'I' for Inactive)
REMARK    1  A    between atoms: C_3  and  C_4
REMARK    2  A    between atoms: C_4  and  N_5
REMARK    3  A    between atoms: C_6  and  C_8
REMARK    4  A    between atoms: C_15  and  N_16
REMARK    5  A    between atoms: N_16  and  C_17
REMARK    6  A    between atoms: C_17  and  C_18
REMARK                            x       y       z     vdW  Elec       q    Type
REMARK                         _______ _______ _______ _____ _____    ______ ____
ROOT
ATOM      1  O   UNL     1      -4.295 -10.382  13.889  0.00  0.00    -0.219 OA
ATOM      2  C   UNL     1      -5.064 -10.154  13.694  0.00  0.00    +0.199 C 
ATOM      3  C   UNL     1      -5.691 -10.059  14.221  0.00  0.00    +0.169 C 
ATOM     13  O   UNL     1      -6.354  -9.827  13.790  0.00  0.00    -0.350 OA
ATOM     14  C   UNL     1      -6.137  -9.778  12.995  0.00  0.00    +0.162 C 
ATOM     15  C   UNL     1      -5.340  -9.980  12.936  0.00  0.00    +0.135 C 
ENDROOT
BRANCH   3   4
ATOM      4  C   UNL     1      -5.659 -10.176  15.038  0.00  0.00    +0.148 C 
BRANCH   4   5
ATOM      5  N   UNL     1      -6.336 -10.065  15.496  0.00  0.00    -0.199 NA
ATOM      6  C   UNL     1      -6.288 -10.110  16.319  0.00  0.00    +0.271 C 
ATOM      7  O   UNL     1      -5.565 -10.267  16.682  0.00  0.00    -0.268 OA
BRANCH   6   8
ATOM      8  C   UNL     1      -6.965  -9.998  16.778  0.00  0.00    +0.084 A 
ATOM      9  C   UNL     1      -7.292  -9.271  16.991  0.00  0.00    +0.012 A 
ATOM     10  C   UNL     1      -7.962  -9.418  17.449  0.00  0.00    +0.008 A 
ATOM     11  C   UNL     1      -8.049 -10.235  17.519  0.00  0.00    +0.036 A 
ATOM     12  S   UNL     1      -7.434 -10.594  17.105  0.00  0.00    -0.082 S 
ENDBRANCH   6   8
ENDBRANCH   4   5
ENDBRANCH   3   4
BRANCH  15  16
ATOM     16  N   UNL     1      -4.896 -10.004  12.241  0.00  0.00    -0.209 NA
BRANCH  16  17
ATOM     17  C   UNL     1      -5.050  -9.466  11.635  0.00  0.00    +0.118 C 
BRANCH  17  18
ATOM     18  C   UNL     1      -4.575  -9.458  10.960  0.00  0.00    +0.034 A 
ATOM     19  C   UNL     1      -4.565  -8.794  10.471  0.00  0.00    +0.193 A 
ATOM     20  O   UNL     1      -5.030  -8.138  10.656  0.00  0.00    -0.287 OA
ATOM     21  C   UNL     1      -4.090  -8.786   9.796  0.00  0.00    +0.042 A 
ATOM     22  C   UNL     1      -3.625  -9.442   9.611  0.00  0.00    +0.003 A 
ATOM     23  C   UNL     1      -3.635 -10.106  10.101  0.00  0.00    -0.000 A 
ATOM     24  C   UNL     1      -4.110 -10.114  10.775  0.00  0.00    +0.000 A 
ENDBRANCH  17  18
ENDBRANCH  16  17
ENDBRANCH  15  16
TORSDOF 6
ENDMDL
