MODEL 1
REMARK VINA RESULT:      -9.8      0.000      0.000
REMARK  Name = 
REMARK  4 active torsions:
REMARK  status: ('A' for Active; 'I' for Inactive)
REMARK    1  A    between atoms: N_7  and  C_8
REMARK    2  A    between atoms: C_8  and  C_9
REMARK    3  A    between atoms: C_12  and  O_13
REMARK    4  A    between atoms: O_13  and  C_14
REMARK                            x       y       z     vdW  Elec       q    Type
REMARK                         _______ _______ _______ _____ _____    ______ ____
ROOT
ATOM      9  C   UNL     1      -4.394   0.336  24.617  0.00  0.00    -0.006 A 
ATOM     10  C   UNL     1      -3.965  -0.022  24.009  0.00  0.00    +0.000 A 
ATOM     11  C   UNL     1      -3.511  -0.693  24.163  0.00  0.00    +0.037 A 
ATOM     12  C   UNL     1      -3.484  -1.006  24.926  0.00  0.00    +0.147 A 
ATOM     18  C   UNL     1      -3.912  -0.648  25.534  0.00  0.00    +0.037 A 
ATOM     19  C   UNL     1      -4.366   0.022  25.379  0.00  0.00    +0.000 A 
ENDROOT
BRANCH   9   8
ATOM      8  C   UNL     1      -4.848   1.007  24.462  0.00  0.00    +0.099 C 
BRANCH   8   7
ATOM      1  O   UNL     1      -5.398   3.064  26.243  0.00  0.00    -0.219 OA
ATOM      2  C   UNL     1      -4.871   2.853  25.645  0.00  0.00    +0.197 C 
ATOM      3  C   UNL     1      -4.282   3.406  25.474  0.00  0.00    +0.176 C 
ATOM      4  O   UNL     1      -3.679   3.358  24.913  0.00  0.00    -0.350 OA
ATOM      5  C   UNL     1      -3.516   2.746  24.384  0.00  0.00    +0.160 C 
ATOM      6  C   UNL     1      -3.915   2.031  24.286  0.00  0.00    +0.105 C 
ATOM      7  N   UNL     1      -4.577   1.750  24.692  0.00  0.00    -0.265 NA
ATOM     20  C   UNL     1      -5.002   2.116  25.297  0.00  0.00    +0.108 C 
ENDBRANCH   8   7
ENDBRANCH   9   8
BRANCH  12  13
ATOM     13  O   UNL     1      -3.029  -1.676  25.081  0.00  0.00    -0.404 OA
BRANCH  13  14
ATOM     14  C   UNL     1      -3.347  -2.428  24.957  0.00  0.00    +0.575 C 
ATOM     15  F   UNL     1      -3.664  -3.179  24.833  0.00  0.00    -0.133 F 
ATOM     16  F   UNL     1      -3.050  -2.426  24.187  0.00  0.00    -0.133 F 
ATOM     17  F   UNL     1      -3.643  -2.430  25.726  0.00  0.00    -0.133 F 
ENDBRANCH  13  14
ENDBRANCH  12  13
TORSDOF 4
ENDMDL
MODEL 2
REMARK VINA RESULT:      -9.6      1.226      1.898
REMARK  Name = 
REMARK  4 active torsions:
REMARK  status: ('A' for Active; 'I' for Inactive)
REMARK    1  A    between atoms: N_7  and  C_8
REMARK    2  A    between atoms: C_8  and  C_9
REMARK    3  A    between atoms: C_12  and  O_13
REMARK    4  A    between atoms: O_13  and  C_14
REMARK                            x       y       z     vdW  Elec       q    Type
REMARK                         _______ _______ _______ _____ _____    ______ ____
ROOT
ATOM      9  C   UNL     1      -3.917   1.573  24.215  0.00  0.00    -0.006 A 
ATOM     10  C   UNL     1      -3.307   1.083  23.950  0.00  0.00    +0.000 A 
ATOM     11  C   UNL     1      -3.338   0.272  24.095  0.00  0.00    +0.037 A 
ATOM     12  C   UNL     1      -3.978  -0.050  24.504  0.00  0.00    +0.147 A 
ATOM     18  C   UNL     1      -4.587   0.439  24.769  0.00  0.00    +0.037 A 
ATOM     19  C   UNL     1      -4.556   1.251  24.624  0.00  0.00    +0.000 A 
ENDROOT
BRANCH   9   8
ATOM      8  C   UNL     1      -3.886   2.385  24.070  0.00  0.00    +0.099 C 
BRANCH   8   7
ATOM      1  O   UNL     1      -1.545   3.654  24.854  0.00  0.00    -0.219 OA
ATOM      2  C   UNL     1      -2.338   3.576  25.066  0.00  0.00    +0.197 C 
ATOM      3  C   UNL     1      -2.573   3.997  25.736  0.00  0.00    +0.176 C 
ATOM      4  O   UNL     1      -3.319   4.032  26.085  0.00  0.00    -0.350 OA
ATOM      5  C   UNL     1      -4.015   3.655  25.852  0.00  0.00    +0.160 C 
ATOM      6  C   UNL     1      -4.136   3.150  25.212  0.00  0.00    +0.105 C 
ATOM      7  N   UNL     1      -3.591   2.895  24.646  0.00  0.00    -0.265 NA
ATOM     20  C   UNL     1      -2.791   3.085  24.581  0.00  0.00    +0.108 C 
ENDBRANCH   8   7
ENDBRANCH   9   8
BRANCH  12  13
ATOM     13  O   UNL     1      -4.009  -0.862  24.649  0.00  0.00    -0.404 OA
BRANCH  13  14
ATOM     14  C   UNL     1      -4.153  -1.387  24.028  0.00  0.00    +0.575 C 
ATOM     15  F   UNL     1      -4.298  -1.911  23.409  0.00  0.00    -0.133 F 
ATOM     16  F   UNL     1      -3.343  -1.521  23.954  0.00  0.00    -0.133 F 
ATOM     17  F   UNL     1      -4.963  -1.252  24.104  0.00  0.00    -0.133 F 
ENDBRANCH  13  14
ENDBRANCH  12  13
TORSDOF 4
ENDMDL
