MODEL 1
REMARK VINA RESULT:     -12.1      0.000      0.000
REMARK  Name = 
REMARK  9 active torsions:
REMARK  status: ('A' for Active; 'I' for Inactive)
REMARK    1  A    between atoms: C_2  and  C_4
REMARK    2  A    between atoms: C_6  and  C_7
REMARK    3  A    between atoms: C_7  and  C_8
REMARK    4  A    between atoms: C_21  and  C_22
REMARK    5  A    between atoms: C_22  and  N_23
REMARK    6  A    between atoms: C_24  and  C_26
REMARK    7  A    between atoms: C_26  and  C_27
REMARK    8  A    between atoms: C_27  and  C_28
REMARK    9  A    between atoms: C_28  and  C_29
REMARK                            x       y       z     vdW  Elec       q    Type
REMARK                         _______ _______ _______ _____ _____    ______ ____
ROOT
ATOM      4  C   UNL     1      -3.548   1.483  23.695  0.00  0.00    +0.006 C 
ATOM      5  C   UNL     1      -3.961   0.772  23.758  0.00  0.00    +0.005 C 
ATOM      6  C   UNL     1      -4.525   0.674  24.351  0.00  0.00    +0.026 C 
ATOM     18  C   UNL     1      -4.676   1.288  24.882  0.00  0.00    -0.048 C 
ATOM     19  C   UNL     1      -5.241   1.191  25.476  0.00  0.00    +0.026 C 
ATOM     20  C   UNL     1      -4.263   1.999  24.818  0.00  0.00    -0.033 C 
ATOM     21  C   UNL     1      -3.698   2.096  24.224  0.00  0.00    +0.043 C 
ENDROOT
BRANCH   4   2
ATOM      1  C   UNL     1      -3.165   2.021  22.427  0.00  0.00    +0.000 C 
ATOM      2  C   UNL     1      -2.984   1.580  23.101  0.00  0.00    +0.000 C 
ATOM      3  C   UNL     1      -2.237   1.237  23.180  0.00  0.00    +0.000 C 
ENDBRANCH   4   2
BRANCH   6   7
ATOM      7  C   UNL     1      -4.939  -0.037  24.415  0.00  0.00    +0.070 C 
BRANCH   7   8
ATOM      8  C   UNL     1      -4.528  -0.750  24.471  0.00  0.00    +0.139 A 
ATOM      9  N   UNL     1      -4.511  -1.345  23.901  0.00  0.00    -0.229 NA
ATOM     10  C   UNL     1      -4.035  -1.956  24.185  0.00  0.00    +0.100 A 
ATOM     11  C   UNL     1      -3.758  -1.738  24.931  0.00  0.00    +0.096 A 
ATOM     12  N   UNL     1      -4.063  -0.993  25.109  0.00  0.00    -0.230 NA
ATOM     13  C   UNL     1      -3.264  -2.248  25.352  0.00  0.00    -0.003 A 
ATOM     14  C   UNL     1      -2.988  -2.030  26.098  0.00  0.00    +0.033 C 
ATOM     15  C   UNL     1      -3.047  -2.974  25.028  0.00  0.00    -0.003 A 
ATOM     16  C   UNL     1      -3.324  -3.192  24.282  0.00  0.00    +0.001 A 
ATOM     17  C   UNL     1      -3.818  -2.683  23.860  0.00  0.00    +0.021 A 
ENDBRANCH   7   8
ENDBRANCH   6   7
BRANCH  21  22
ATOM     22  C   UNL     1      -3.285   2.808  24.161  0.00  0.00    +0.119 C 
BRANCH  22  23
ATOM     23  N   UNL     1      -2.709   3.000  24.720  0.00  0.00    -0.205 NA
ATOM     24  C   UNL     1      -2.540   3.791  24.883  0.00  0.00    +0.241 C 
ATOM     25  O   UNL     1      -2.949   4.390  24.488  0.00  0.00    -0.273 OA
BRANCH  24  26
ATOM     26  C   UNL     1      -1.964   3.983  25.441  0.00  0.00    +0.087 C 
BRANCH  26  27
ATOM     27  C   UNL     1      -1.239   4.290  25.195  0.00  0.00    +0.019 C 
ATOM     32  C   UNL     1      -1.640   5.010  25.198  0.00  0.00    +0.001 C 
ATOM     33  C   UNL     1      -1.110   5.598  24.964  0.00  0.00    +0.000 C 
ATOM     34  C   UNL     1      -0.381   5.240  24.817  0.00  0.00    +0.000 C 
ATOM     35  C   UNL     1      -0.461   4.432  24.960  0.00  0.00    +0.001 C 
BRANCH  27  28
ATOM     28  C   UNL     1      -0.989   3.505  25.244  0.00  0.00    +0.115 C 
BRANCH  28  29
ATOM     29  C   UNL     1      -0.497   3.266  25.863  0.00  0.00    +0.365 C 
ATOM     30  O   UNL     1      -0.781   3.260  26.637  0.00  0.00    -0.246 OA
ATOM     31  O   UNL     1       0.278   3.032  25.706  0.00  0.00    -0.246 OA
ENDBRANCH  28  29
ENDBRANCH  27  28
ENDBRANCH  26  27
ENDBRANCH  24  26
ENDBRANCH  22  23
ENDBRANCH  21  22
TORSDOF 9
ENDMDL
MODEL 2
REMARK VINA RESULT:     -11.6      1.594      2.578
REMARK  Name = 
REMARK  9 active torsions:
REMARK  status: ('A' for Active; 'I' for Inactive)
REMARK    1  A    between atoms: C_2  and  C_4
REMARK    2  A    between atoms: C_6  and  C_7
REMARK    3  A    between atoms: C_7  and  C_8
REMARK    4  A    between atoms: C_21  and  C_22
REMARK    5  A    between atoms: C_22  and  N_23
REMARK    6  A    between atoms: C_24  and  C_26
REMARK    7  A    between atoms: C_26  and  C_27
REMARK    8  A    between atoms: C_27  and  C_28
REMARK    9  A    between atoms: C_28  and  C_29
REMARK                            x       y       z     vdW  Elec       q    Type
REMARK                         _______ _______ _______ _____ _____    ______ ____
ROOT
ATOM      4  C   UNL     1      -0.683   0.365  24.425  0.00  0.00    +0.006 C 
ATOM      5  C   UNL     1      -0.878  -0.436  24.460  0.00  0.00    +0.005 C 
ATOM      6  C   UNL     1      -1.113  -0.771  25.176  0.00  0.00    +0.026 C 
ATOM     18  C   UNL     1      -1.152  -0.306  25.857  0.00  0.00    -0.048 C 
ATOM     19  C   UNL     1      -1.387  -0.642  26.573  0.00  0.00    +0.026 C 
ATOM     20  C   UNL     1      -0.956   0.494  25.821  0.00  0.00    -0.033 C 
ATOM     21  C   UNL     1      -0.722   0.830  25.104  0.00  0.00    +0.043 C 
ENDROOT
BRANCH   4   2
ATOM      1  C   UNL     1      -1.010   1.037  23.206  0.00  0.00    +0.000 C 
ATOM      2  C   UNL     1      -0.448   0.701  23.709  0.00  0.00    +0.000 C 
ATOM      3  C   UNL     1       0.349   0.700  23.494  0.00  0.00    +0.000 C 
ENDBRANCH   4   2
BRANCH   6   7
ATOM      7  C   UNL     1      -1.309  -1.572  25.213  0.00  0.00    +0.070 C 
BRANCH   7   8
ATOM      8  C   UNL     1      -2.009  -1.842  24.871  0.00  0.00    +0.139 A 
ATOM      9  N   UNL     1      -2.138  -2.594  24.558  0.00  0.00    -0.229 NA
ATOM     10  C   UNL     1      -2.912  -2.623  24.275  0.00  0.00    +0.100 A 
ATOM     11  C   UNL     1      -3.262  -1.889  24.414  0.00  0.00    +0.096 A 
ATOM     12  N   UNL     1      -2.705  -1.406  24.781  0.00  0.00    -0.230 NA
ATOM     13  C   UNL     1      -4.044  -1.757  24.186  0.00  0.00    -0.003 A 
ATOM     14  C   UNL     1      -4.395  -1.023  24.324  0.00  0.00    +0.033 C 
ATOM     15  C   UNL     1      -4.476  -2.357  23.821  0.00  0.00    -0.003 A 
ATOM     16  C   UNL     1      -4.126  -3.091  23.683  0.00  0.00    +0.001 A 
ATOM     17  C   UNL     1      -3.344  -3.225  23.910  0.00  0.00    +0.021 A 
ENDBRANCH   7   8
ENDBRANCH   6   7
BRANCH  21  22
ATOM     22  C   UNL     1      -0.526   1.631  25.069  0.00  0.00    +0.119 C 
BRANCH  22  23
ATOM     23  N   UNL     1      -1.009   2.189  25.438  0.00  0.00    -0.205 NA
ATOM     24  C   UNL     1      -0.766   2.976  25.489  0.00  0.00    +0.241 C 
ATOM     25  O   UNL     1      -0.039   3.204  25.170  0.00  0.00    -0.273 OA
BRANCH  24  26
ATOM     26  C   UNL     1      -1.248   3.534  25.858  0.00  0.00    +0.087 C 
BRANCH  26  27
ATOM     27  C   UNL     1      -1.614   4.123  25.409  0.00  0.00    +0.019 C 
ATOM     32  C   UNL     1      -0.861   4.459  25.395  0.00  0.00    +0.001 C 
ATOM     33  C   UNL     1      -0.903   5.160  24.960  0.00  0.00    +0.000 C 
ATOM     34  C   UNL     1      -1.683   5.255  24.707  0.00  0.00    +0.000 C 
ATOM     35  C   UNL     1      -2.121   4.615  24.984  0.00  0.00    +0.001 C 
BRANCH  27  28
ATOM     28  C   UNL     1      -2.291   3.663  25.518  0.00  0.00    +0.115 C 
BRANCH  28  29
ATOM     29  C   UNL     1      -2.946   3.979  25.908  0.00  0.00    +0.365 C 
ATOM     30  O   UNL     1      -2.871   4.262  26.679  0.00  0.00    -0.246 OA
ATOM     31  O   UNL     1      -3.677   4.011  25.526  0.00  0.00    -0.246 OA
ENDBRANCH  28  29
ENDBRANCH  27  28
ENDBRANCH  26  27
ENDBRANCH  24  26
ENDBRANCH  22  23
ENDBRANCH  21  22
TORSDOF 9
ENDMDL
MODEL 3
REMARK VINA RESULT:     -11.0      2.497      6.056
REMARK  Name = 
REMARK  9 active torsions:
REMARK  status: ('A' for Active; 'I' for Inactive)
REMARK    1  A    between atoms: C_2  and  C_4
REMARK    2  A    between atoms: C_6  and  C_7
REMARK    3  A    between atoms: C_7  and  C_8
REMARK    4  A    between atoms: C_21  and  C_22
REMARK    5  A    between atoms: C_22  and  N_23
REMARK    6  A    between atoms: C_24  and  C_26
REMARK    7  A    between atoms: C_26  and  C_27
REMARK    8  A    between atoms: C_27  and  C_28
REMARK    9  A    between atoms: C_28  and  C_29
REMARK                            x       y       z     vdW  Elec       q    Type
REMARK                         _______ _______ _______ _____ _____    ______ ____
ROOT
ATOM      4  C   UNL     1      -0.520   1.009  24.360  0.00  0.00    +0.006 C 
ATOM      5  C   UNL     1      -0.251   1.739  24.633  0.00  0.00    +0.005 C 
ATOM      6  C   UNL     1      -0.260   1.906  25.441  0.00  0.00    +0.026 C 
ATOM     18  C   UNL     1      -0.539   1.342  25.976  0.00  0.00    -0.048 C 
ATOM     19  C   UNL     1      -0.548   1.509  26.784  0.00  0.00    +0.026 C 
ATOM     20  C   UNL     1      -0.807   0.612  25.702  0.00  0.00    -0.033 C 
ATOM     21  C   UNL     1      -0.798   0.445  24.894  0.00  0.00    +0.043 C 
ENDROOT
BRANCH   4   2
ATOM      1  C   UNL     1      -1.130   1.096  23.071  0.00  0.00    +0.000 C 
ATOM      2  C   UNL     1      -0.511   0.842  23.552  0.00  0.00    +0.000 C 
ATOM      3  C   UNL     1       0.119   0.420  23.225  0.00  0.00    +0.000 C 
ENDBRANCH   4   2
BRANCH   6   7
ATOM      7  C   UNL     1       0.009   2.636  25.715  0.00  0.00    +0.070 C 
BRANCH   7   8
ATOM      8  C   UNL     1      -0.408   3.325  25.534  0.00  0.00    +0.139 A 
ATOM      9  N   UNL     1      -0.123   3.964  25.098  0.00  0.00    -0.229 NA
ATOM     10  C   UNL     1      -0.722   4.528  25.051  0.00  0.00    +0.100 A 
ATOM     11  C   UNL     1      -1.378   4.238  25.459  0.00  0.00    +0.096 A 
ATOM     12  N   UNL     1      -1.184   3.494  25.758  0.00  0.00    -0.230 NA
ATOM     13  C   UNL     1      -2.067   4.690  25.506  0.00  0.00    -0.003 A 
ATOM     14  C   UNL     1      -2.723   4.400  25.914  0.00  0.00    +0.033 C 
ATOM     15  C   UNL     1      -2.100   5.431  25.145  0.00  0.00    -0.003 A 
ATOM     16  C   UNL     1      -1.444   5.721  24.737  0.00  0.00    +0.001 A 
ATOM     17  C   UNL     1      -0.755   5.270  24.690  0.00  0.00    +0.021 A 
ENDBRANCH   7   8
ENDBRANCH   6   7
BRANCH  21  22
ATOM     22  C   UNL     1      -1.067  -0.285  24.621  0.00  0.00    +0.119 C 
BRANCH  22  23
ATOM     23  N   UNL     1      -1.761  -0.609  24.927  0.00  0.00    -0.205 NA
ATOM     24  C   UNL     1      -1.993  -1.370  24.710  0.00  0.00    +0.241 C 
ATOM     25  O   UNL     1      -1.530  -1.808  24.184  0.00  0.00    -0.273 OA
BRANCH  24  26
ATOM     26  C   UNL     1      -2.687  -1.694  25.017  0.00  0.00    +0.087 C 
BRANCH  26  27
ATOM     27  C   UNL     1      -3.343  -1.803  24.527  0.00  0.00    +0.019 C 
ATOM     32  C   UNL     1      -3.523  -1.028  24.741  0.00  0.00    +0.001 C 
ATOM     33  C   UNL     1      -4.223  -0.814  24.360  0.00  0.00    +0.000 C 
ATOM     34  C   UNL     1      -4.475  -1.459  23.912  0.00  0.00    +0.000 C 
ATOM     35  C   UNL     1      -3.931  -2.070  24.015  0.00  0.00    +0.001 C 
BRANCH  27  28
ATOM     28  C   UNL     1      -3.025  -2.557  24.415  0.00  0.00    +0.115 C 
BRANCH  28  29
ATOM     29  C   UNL     1      -3.418  -3.219  24.715  0.00  0.00    +0.365 C 
ATOM     30  O   UNL     1      -3.482  -3.327  25.530  0.00  0.00    -0.246 OA
ATOM     31  O   UNL     1      -3.746  -3.771  24.197  0.00  0.00    -0.246 OA
ENDBRANCH  28  29
ENDBRANCH  27  28
ENDBRANCH  26  27
ENDBRANCH  24  26
ENDBRANCH  22  23
ENDBRANCH  21  22
TORSDOF 9
ENDMDL
MODEL 4
REMARK VINA RESULT:     -10.5      1.780      5.628
REMARK  Name = 
REMARK  9 active torsions:
REMARK  status: ('A' for Active; 'I' for Inactive)
REMARK    1  A    between atoms: C_2  and  C_4
REMARK    2  A    between atoms: C_6  and  C_7
REMARK    3  A    between atoms: C_7  and  C_8
REMARK    4  A    between atoms: C_21  and  C_22
REMARK    5  A    between atoms: C_22  and  N_23
REMARK    6  A    between atoms: C_24  and  C_26
REMARK    7  A    between atoms: C_26  and  C_27
REMARK    8  A    between atoms: C_27  and  C_28
REMARK    9  A    between atoms: C_28  and  C_29
REMARK                            x       y       z     vdW  Elec       q    Type
REMARK                         _______ _______ _______ _____ _____    ______ ____
ROOT
ATOM      4  C   UNL     1      -4.533   1.607  24.606  0.00  0.00    +0.006 C 
ATOM      5  C   UNL     1      -4.284   2.337  24.314  0.00  0.00    +0.005 C 
ATOM      6  C   UNL     1      -3.698   2.371  23.734  0.00  0.00    +0.026 C 
ATOM     18  C   UNL     1      -3.360   1.674  23.448  0.00  0.00    -0.048 C 
ATOM     19  C   UNL     1      -2.773   1.708  22.869  0.00  0.00    +0.026 C 
ATOM     20  C   UNL     1      -3.610   0.945  23.741  0.00  0.00    -0.033 C 
ATOM     21  C   UNL     1      -4.196   0.911  24.320  0.00  0.00    +0.043 C 
ENDROOT
BRANCH   4   2
ATOM      1  C   UNL     1      -4.916   1.621  25.983  0.00  0.00    +0.000 C 
ATOM      2  C   UNL     1      -5.120   1.574  25.185  0.00  0.00    +0.000 C 
ATOM      3  C   UNL     1      -5.912   1.492  24.967  0.00  0.00    +0.000 C 
ENDBRANCH   4   2
BRANCH   6   7
ATOM      7  C   UNL     1      -3.448   3.100  23.441  0.00  0.00    +0.070 C 
BRANCH   7   8
ATOM      8  C   UNL     1      -2.962   3.585  23.899  0.00  0.00    +0.139 A 
ATOM      9  N   UNL     1      -3.193   4.277  24.285  0.00  0.00    -0.229 NA
ATOM     10  C   UNL     1      -2.534   4.582  24.675  0.00  0.00    +0.100 A 
ATOM     11  C   UNL     1      -1.896   4.079  24.531  0.00  0.00    +0.096 A 
ATOM     12  N   UNL     1      -2.160   3.463  24.051  0.00  0.00    -0.230 NA
ATOM     13  C   UNL     1      -1.156   4.249  24.855  0.00  0.00    -0.003 A 
ATOM     14  C   UNL     1      -0.518   3.746  24.711  0.00  0.00    +0.033 C 
ATOM     15  C   UNL     1      -1.054   4.919  25.324  0.00  0.00    -0.003 A 
ATOM     16  C   UNL     1      -1.692   5.422  25.468  0.00  0.00    +0.001 A 
ATOM     17  C   UNL     1      -2.432   5.254  25.144  0.00  0.00    +0.021 A 
ENDBRANCH   7   8
ENDBRANCH   6   7
BRANCH  21  22
ATOM     22  C   UNL     1      -4.445   0.181  24.613  0.00  0.00    +0.119 C 
BRANCH  22  23
ATOM     23  N   UNL     1      -3.901  -0.328  24.967  0.00  0.00    -0.205 NA
ATOM     24  C   UNL     1      -3.933  -1.138  24.814  0.00  0.00    +0.241 C 
ATOM     25  O   UNL     1      -4.510  -1.439  24.307  0.00  0.00    -0.273 OA
BRANCH  24  26
ATOM     26  C   UNL     1      -3.389  -1.647  25.168  0.00  0.00    +0.087 C 
BRANCH  26  27
ATOM     27  C   UNL     1      -2.998  -2.214  24.713  0.00  0.00    +0.019 C 
ATOM     32  C   UNL     1      -3.674  -2.665  24.851  0.00  0.00    +0.001 C 
ATOM     33  C   UNL     1      -3.577  -3.392  24.472  0.00  0.00    +0.000 C 
ATOM     34  C   UNL     1      -2.841  -3.389  24.100  0.00  0.00    +0.000 C 
ATOM     35  C   UNL     1      -2.483  -2.661  24.249  0.00  0.00    +0.001 C 
BRANCH  27  28
ATOM     28  C   UNL     1      -2.403  -1.644  24.671  0.00  0.00    +0.115 C 
BRANCH  28  29
ATOM     29  C   UNL     1      -1.644  -1.818  24.944  0.00  0.00    +0.365 C 
ATOM     30  O   UNL     1      -1.513  -1.943  25.749  0.00  0.00    -0.246 OA
ATOM     31  O   UNL     1      -1.016  -1.868  24.411  0.00  0.00    -0.246 OA
ENDBRANCH  28  29
ENDBRANCH  27  28
ENDBRANCH  26  27
ENDBRANCH  24  26
ENDBRANCH  22  23
ENDBRANCH  21  22
TORSDOF 9
ENDMDL
MODEL 5
REMARK VINA RESULT:      -9.9      2.974      4.620
REMARK  Name = 
REMARK  9 active torsions:
REMARK  status: ('A' for Active; 'I' for Inactive)
REMARK    1  A    between atoms: C_2  and  C_4
REMARK    2  A    between atoms: C_6  and  C_7
REMARK    3  A    between atoms: C_7  and  C_8
REMARK    4  A    between atoms: C_21  and  C_22
REMARK    5  A    between atoms: C_22  and  N_23
REMARK    6  A    between atoms: C_24  and  C_26
REMARK    7  A    between atoms: C_26  and  C_27
REMARK    8  A    between atoms: C_27  and  C_28
REMARK    9  A    between atoms: C_28  and  C_29
REMARK                            x       y       z     vdW  Elec       q    Type
REMARK                         _______ _______ _______ _____ _____    ______ ____
ROOT
ATOM      4  C   UNL     1      -0.792   1.726  24.805  0.00  0.00    +0.006 C 
ATOM      5  C   UNL     1      -0.269   1.105  24.657  0.00  0.00    +0.005 C 
ATOM      6  C   UNL     1      -0.557   0.338  24.561  0.00  0.00    +0.026 C 
ATOM     18  C   UNL     1      -1.368   0.192  24.612  0.00  0.00    -0.048 C 
ATOM     19  C   UNL     1      -1.656  -0.575  24.515  0.00  0.00    +0.026 C 
ATOM     20  C   UNL     1      -1.890   0.814  24.760  0.00  0.00    -0.033 C 
ATOM     21  C   UNL     1      -1.602   1.581  24.856  0.00  0.00    +0.043 C 
ENDROOT
BRANCH   4   2
ATOM      1  C   UNL     1      -0.456   3.001  24.253  0.00  0.00    +0.000 C 
ATOM      2  C   UNL     1      -0.504   2.493  24.902  0.00  0.00    +0.000 C 
ATOM      3  C   UNL     1      -0.263   2.753  25.647  0.00  0.00    +0.000 C 
ENDBRANCH   4   2
BRANCH   6   7
ATOM      7  C   UNL     1      -0.035  -0.283  24.413  0.00  0.00    +0.070 C 
BRANCH   7   8
ATOM      8  C   UNL     1       0.480  -0.246  23.769  0.00  0.00    +0.139 A 
ATOM      9  N   UNL     1       0.314  -0.495  23.001  0.00  0.00    -0.229 NA
ATOM     10  C   UNL     1       0.982  -0.356  22.538  0.00  0.00    +0.100 A 
ATOM     11  C   UNL     1       1.562  -0.021  23.021  0.00  0.00    +0.096 A 
ATOM     12  N   UNL     1       1.251   0.047  23.782  0.00  0.00    -0.230 NA
ATOM     13  C   UNL     1       2.297   0.178  22.704  0.00  0.00    -0.003 A 
ATOM     14  C   UNL     1       2.876   0.513  23.187  0.00  0.00    +0.033 C 
ATOM     15  C   UNL     1       2.453   0.043  21.906  0.00  0.00    -0.003 A 
ATOM     16  C   UNL     1       1.874  -0.292  21.424  0.00  0.00    +0.001 A 
ATOM     17  C   UNL     1       1.139  -0.492  21.739  0.00  0.00    +0.021 A 
ENDBRANCH   7   8
ENDBRANCH   6   7
BRANCH  21  22
ATOM     22  C   UNL     1      -2.125   2.201  25.004  0.00  0.00    +0.119 C 
BRANCH  22  23
ATOM     23  N   UNL     1      -2.907   2.151  24.746  0.00  0.00    -0.205 NA
ATOM     24  C   UNL     1      -3.485   2.631  25.086  0.00  0.00    +0.241 C 
ATOM     25  O   UNL     1      -3.281   3.162  25.684  0.00  0.00    -0.273 OA
BRANCH  24  26
ATOM     26  C   UNL     1      -4.268   2.581  24.828  0.00  0.00    +0.087 C 
BRANCH  26  27
ATOM     27  C   UNL     1      -4.865   2.966  25.248  0.00  0.00    +0.019 C 
ATOM     32  C   UNL     1      -4.595   3.635  24.850  0.00  0.00    +0.001 C 
ATOM     33  C   UNL     1      -5.056   4.277  25.088  0.00  0.00    +0.000 C 
ATOM     34  C   UNL     1      -5.611   4.003  25.633  0.00  0.00    +0.000 C 
ATOM     35  C   UNL     1      -5.493   3.193  25.732  0.00  0.00    +0.001 C 
BRANCH  27  28
ATOM     28  C   UNL     1      -5.010   2.215  25.559  0.00  0.00    +0.115 C 
BRANCH  28  29
ATOM     29  C   UNL     1      -5.733   1.842  25.417  0.00  0.00    +0.365 C 
ATOM     30  O   UNL     1      -5.961   1.663  24.645  0.00  0.00    -0.246 OA
ATOM     31  O   UNL     1      -6.228   1.650  26.049  0.00  0.00    -0.246 OA
ENDBRANCH  28  29
ENDBRANCH  27  28
ENDBRANCH  26  27
ENDBRANCH  24  26
ENDBRANCH  22  23
ENDBRANCH  21  22
TORSDOF 9
ENDMDL
MODEL 6
REMARK VINA RESULT:      -9.8      2.336      4.457
REMARK  Name = 
REMARK  9 active torsions:
REMARK  status: ('A' for Active; 'I' for Inactive)
REMARK    1  A    between atoms: C_2  and  C_4
REMARK    2  A    between atoms: C_6  and  C_7
REMARK    3  A    between atoms: C_7  and  C_8
REMARK    4  A    between atoms: C_21  and  C_22
REMARK    5  A    between atoms: C_22  and  N_23
REMARK    6  A    between atoms: C_24  and  C_26
REMARK    7  A    between atoms: C_26  and  C_27
REMARK    8  A    between atoms: C_27  and  C_28
REMARK    9  A    between atoms: C_28  and  C_29
REMARK                            x       y       z     vdW  Elec       q    Type
REMARK                         _______ _______ _______ _____ _____    ______ ____
ROOT
ATOM      4  C   UNL     1      -1.775   3.184  24.632  0.00  0.00    +0.006 C 
ATOM      5  C   UNL     1      -2.566   3.382  24.504  0.00  0.00    +0.005 C 
ATOM      6  C   UNL     1      -2.982   3.034  23.882  0.00  0.00    +0.026 C 
ATOM     18  C   UNL     1      -2.608   2.490  23.388  0.00  0.00    -0.048 C 
ATOM     19  C   UNL     1      -3.024   2.143  22.765  0.00  0.00    +0.026 C 
ATOM     20  C   UNL     1      -1.817   2.293  23.516  0.00  0.00    -0.033 C 
ATOM     21  C   UNL     1      -1.401   2.640  24.138  0.00  0.00    +0.043 C 
ENDROOT
BRANCH   4   2
ATOM      1  C   UNL     1      -0.941   4.231  25.131  0.00  0.00    +0.000 C 
ATOM      2  C   UNL     1      -1.359   3.531  25.254  0.00  0.00    +0.000 C 
ATOM      3  C   UNL     1      -1.361   3.177  26.000  0.00  0.00    +0.000 C 
ENDBRANCH   4   2
BRANCH   6   7
ATOM      7  C   UNL     1      -3.773   3.231  23.754  0.00  0.00    +0.070 C 
BRANCH   7   8
ATOM      8  C   UNL     1      -4.347   3.018  24.307  0.00  0.00    +0.139 A 
ATOM      9  N   UNL     1      -4.710   3.523  24.849  0.00  0.00    -0.229 NA
ATOM     10  C   UNL     1      -5.245   3.079  25.291  0.00  0.00    +0.100 A 
ATOM     11  C   UNL     1      -5.214   2.300  25.023  0.00  0.00    +0.096 A 
ATOM     12  N   UNL     1      -4.659   2.261  24.415  0.00  0.00    -0.230 NA
ATOM     13  C   UNL     1      -5.696   1.726  25.369  0.00  0.00    -0.003 A 
ATOM     14  C   UNL     1      -5.664   0.946  25.101  0.00  0.00    +0.033 C 
ATOM     15  C   UNL     1      -6.208   1.930  25.981  0.00  0.00    -0.003 A 
ATOM     16  C   UNL     1      -6.239   2.710  26.249  0.00  0.00    +0.001 A 
ATOM     17  C   UNL     1      -5.758   3.285  25.905  0.00  0.00    +0.021 A 
ENDBRANCH   7   8
ENDBRANCH   6   7
BRANCH  21  22
ATOM     22  C   UNL     1      -0.610   2.443  24.266  0.00  0.00    +0.119 C 
BRANCH  22  23
ATOM     23  N   UNL     1      -0.391   1.652  24.348  0.00  0.00    -0.205 NA
ATOM     24  C   UNL     1       0.368   1.409  24.137  0.00  0.00    +0.241 C 
ATOM     25  O   UNL     1       0.910   1.958  23.842  0.00  0.00    -0.273 OA
BRANCH  24  26
ATOM     26  C   UNL     1       0.587   0.618  24.219  0.00  0.00    +0.087 C 
BRANCH  26  27
ATOM     27  C   UNL     1       0.672   0.142  23.550  0.00  0.00    +0.019 C 
ATOM     32  C   UNL     1       1.395   0.530  23.472  0.00  0.00    +0.001 C 
ATOM     33  C   UNL     1       1.771   0.233  22.800  0.00  0.00    +0.000 C 
ATOM     34  C   UNL     1       1.280  -0.338  22.464  0.00  0.00    +0.000 C 
ATOM     35  C   UNL     1       0.601  -0.395  22.928  0.00  0.00    +0.001 C 
BRANCH  27  28
ATOM     28  C   UNL     1      -0.070  -0.147  23.769  0.00  0.00    +0.115 C 
BRANCH  28  29
ATOM     29  C   UNL     1      -0.144  -0.918  24.057  0.00  0.00    +0.365 C 
ATOM     30  O   UNL     1       0.240  -1.137  24.753  0.00  0.00    -0.246 OA
ATOM     31  O   UNL     1      -0.603  -1.468  23.648  0.00  0.00    -0.246 OA
ENDBRANCH  28  29
ENDBRANCH  27  28
ENDBRANCH  26  27
ENDBRANCH  24  26
ENDBRANCH  22  23
ENDBRANCH  21  22
TORSDOF 9
ENDMDL
