REMARK  Name = 
REMARK  1 active torsions:
REMARK  status: ('A' for Active; 'I' for Inactive)
REMARK    1  A    between atoms: C_5  and  C_6
REMARK                            x       y       z     vdW  Elec       q    Type
REMARK                         _______ _______ _______ _____ _____    ______ ____
ROOT
ATOM      1  O   UNL     1      -1.416  -1.716   0.000  0.00  0.00    -0.267 OA
ATOM      2  C   UNL     1      -0.785  -1.185   0.000  0.00  0.00    +0.261 A 
ATOM      3  C   UNL     1      -0.929  -0.373   0.000  0.00  0.00    +0.061 A 
ATOM      4  C   UNL     1      -0.298   0.158   0.000  0.00  0.00    +0.006 A 
ATOM      5  C   UNL     1       0.478  -0.123   0.000  0.00  0.00    +0.018 A 
ATOM     11  C   UNL     1       0.622  -0.936   0.000  0.00  0.00    +0.041 A 
ATOM     12  C   UNL     1       1.582  -0.925   0.000  0.00  0.00    +0.056 C 
ATOM     13  C   UNL     1       1.629  -1.912   0.000  0.00  0.00    +0.094 C 
ATOM     14  N   UNL     1       0.813  -2.091   0.000  0.00  0.00    -0.218 NA
ATOM     15  C   UNL     1       1.225  -1.510   0.000  0.00  0.00    +0.091 C 
ATOM     16  C   UNL     1       1.163  -0.557   0.000  0.00  0.00    +0.041 C 
ATOM     17  C   UNL     1       1.713  -0.121   0.000  0.00  0.00    +0.011 C 
ATOM     18  C   UNL     1       0.244  -0.558   0.000  0.00  0.00    +0.110 C 
ATOM     19  N   UNL     1      -0.009  -1.467   0.000  0.00  0.00    -0.299 N 
ENDROOT
BRANCH   5   6
ATOM      6  C   UNL     1       1.109   0.408   0.000  0.00  0.00    +0.031 A 
ATOM      7  C   UNL     1       1.051   1.230   0.000  0.00  0.00    +0.007 A 
ATOM      8  C   UNL     1       1.815   1.540   0.000  0.00  0.00    +0.007 A 
ATOM      9  C   UNL     1       2.346   0.909   0.000  0.00  0.00    +0.035 A 
ATOM     10  S   UNL     1       1.910   0.209   0.000  0.00  0.00    -0.086 S 
ENDBRANCH   5   6
TORSDOF 1
