MODEL 1
REMARK VINA RESULT:      -7.8      0.000      0.000
REMARK  Name = 
REMARK  7 active torsions:
REMARK  status: ('A' for Active; 'I' for Inactive)
REMARK    1  A    between atoms: N_6  and  C_7
REMARK    2  A    between atoms: C_7  and  C_8
REMARK    3  A    between atoms: C_18  and  C_19
REMARK    4  A    between atoms: C_19  and  C_20
REMARK    5  A    between atoms: C_20  and  C_21
REMARK    6  A    between atoms: N_23  and  C_24
REMARK    7  A    between atoms: C_24  and  C_25
REMARK                            x       y       z     vdW  Elec       q    Type
REMARK                         _______ _______ _______ _____ _____    ______ ____
ROOT
ATOM      1  C   UNL     1      -1.488  -0.293  24.428  0.00  0.00    +0.090 C 
ATOM      2  N   UNL     1      -1.597   0.506  24.254  0.00  0.00    -0.271 NA
ATOM      3  C   UNL     1      -2.330   0.822  24.463  0.00  0.00    +0.083 C 
ATOM      4  C   UNL     1      -2.928   0.383  24.824  0.00  0.00    +0.035 C 
ATOM      5  C   UNL     1      -3.572   0.883  24.947  0.00  0.00    +0.074 C 
ATOM      6  N   UNL     1      -3.372   1.632  24.662  0.00  0.00    -0.259 NA
ATOM     13  C   UNL     1      -2.604   1.594  24.363  0.00  0.00    +0.152 C 
ATOM     14  C   UNL     1      -2.214   2.239  24.030  0.00  0.00    +0.257 C 
ATOM     15  O   UNL     1      -2.642   2.945  24.009  0.00  0.00    -0.272 OA
ATOM     16  N   UNL     1      -1.453   2.273  23.713  0.00  0.00    -0.203 NA
ATOM     17  C   UNL     1      -0.894   1.669  23.653  0.00  0.00    +0.131 C 
ATOM     18  C   UNL     1      -0.958   0.883  23.893  0.00  0.00    +0.080 C 
ENDROOT
BRANCH   6   7
ATOM      7  C   UNL     1      -3.856   2.300  24.674  0.00  0.00    +0.139 C 
BRANCH   7   8
ATOM      8  C   UNL     1      -4.625   2.247  24.968  0.00  0.00    +0.155 A 
ATOM      9  N   UNL     1      -5.278   1.945  24.567  0.00  0.00    -0.226 NA
ATOM     10  C   UNL     1      -5.932   1.998  25.066  0.00  0.00    +0.121 A 
ATOM     11  C   UNL     1      -5.682   2.334  25.778  0.00  0.00    +0.121 A 
ATOM     12  N   UNL     1      -4.874   2.488  25.718  0.00  0.00    -0.226 NA
ENDBRANCH   7   8
ENDBRANCH   6   7
BRANCH  18  19
ATOM     19  C   UNL     1      -0.295   0.411  23.755  0.00  0.00    +0.027 C 
BRANCH  19  20
ATOM     20  C   UNL     1       0.391   0.744  23.443  0.00  0.00    +0.088 C 
BRANCH  20  21
ATOM     21  C   UNL     1       0.982   0.258  23.132  0.00  0.00    +0.242 C 
ATOM     22  O   UNL     1       0.788  -0.487  22.835  0.00  0.00    -0.273 OA
ATOM     23  N   UNL     1       1.764   0.517  23.118  0.00  0.00    -0.200 NA
BRANCH  23  24
ATOM     24  C   UNL     1       2.355   0.031  22.807  0.00  0.00    +0.148 C 
BRANCH  24  25
ATOM     25  C   UNL     1       3.144   0.266  22.843  0.00  0.00    +0.029 A 
ATOM     26  C   UNL     1       3.450   0.982  22.570  0.00  0.00    +0.004 A 
ATOM     27  C   UNL     1       4.262   0.985  22.716  0.00  0.00    +0.007 A 
ATOM     28  C   UNL     1       4.458   0.271  23.080  0.00  0.00    +0.035 A 
ATOM     29  S   UNL     1       3.767  -0.174  23.158  0.00  0.00    -0.089 S 
ENDBRANCH  24  25
ENDBRANCH  23  24
ENDBRANCH  20  21
ENDBRANCH  19  20
ENDBRANCH  18  19
TORSDOF 7
ENDMDL
MODEL 2
REMARK VINA RESULT:      -6.9      3.391      4.711
REMARK  Name = 
REMARK  7 active torsions:
REMARK  status: ('A' for Active; 'I' for Inactive)
REMARK    1  A    between atoms: N_6  and  C_7
REMARK    2  A    between atoms: C_7  and  C_8
REMARK    3  A    between atoms: C_18  and  C_19
REMARK    4  A    between atoms: C_19  and  C_20
REMARK    5  A    between atoms: C_20  and  C_21
REMARK    6  A    between atoms: N_23  and  C_24
REMARK    7  A    between atoms: C_24  and  C_25
REMARK                            x       y       z     vdW  Elec       q    Type
REMARK                         _______ _______ _______ _____ _____    ______ ____
ROOT
ATOM      1  C   UNL     1      -0.759   0.785  23.590  0.00  0.00    +0.090 C 
ATOM      2  N   UNL     1      -0.702   1.082  24.357  0.00  0.00    -0.271 NA
ATOM      3  C   UNL     1      -0.698   1.904  24.423  0.00  0.00    +0.083 C 
ATOM      4  C   UNL     1      -0.748   2.413  23.776  0.00  0.00    +0.035 C 
ATOM      5  C   UNL     1      -0.728   3.188  24.057  0.00  0.00    +0.074 C 
ATOM      6  N   UNL     1      -0.666   3.158  24.880  0.00  0.00    -0.259 NA
ATOM     13  C   UNL     1      -0.647   2.365  25.106  0.00  0.00    +0.152 C 
ATOM     14  C   UNL     1      -0.588   2.117  25.890  0.00  0.00    +0.257 C 
ATOM     15  O   UNL     1      -0.546   2.719  26.454  0.00  0.00    -0.272 OA
ATOM     16  N   UNL     1      -0.564   1.348  26.186  0.00  0.00    -0.203 NA
ATOM     17  C   UNL     1      -0.595   0.636  25.770  0.00  0.00    +0.131 C 
ATOM     18  C   UNL     1      -0.656   0.517  24.957  0.00  0.00    +0.080 C 
ENDROOT
BRANCH   6   7
ATOM      7  C   UNL     1      -0.628   3.808  25.387  0.00  0.00    +0.139 C 
BRANCH   7   8
ATOM      8  C   UNL     1      -0.967   4.526  25.162  0.00  0.00    +0.155 A 
ATOM      9  N   UNL     1      -0.595   5.125  24.734  0.00  0.00    -0.226 NA
ATOM     10  C   UNL     1      -1.135   5.740  24.633  0.00  0.00    +0.121 A 
ATOM     11  C   UNL     1      -1.842   5.520  24.999  0.00  0.00    +0.121 A 
ATOM     12  N   UNL     1      -1.738   4.770  25.325  0.00  0.00    -0.226 NA
ENDBRANCH   7   8
ENDBRANCH   6   7
BRANCH  18  19
ATOM     19  C   UNL     1      -0.673  -0.270  24.709  0.00  0.00    +0.027 C 
BRANCH  19  20
ATOM     20  C   UNL     1      -0.877  -0.866  25.241  0.00  0.00    +0.088 C 
BRANCH  20  21
ATOM     21  C   UNL     1      -1.219  -1.565  24.967  0.00  0.00    +0.242 C 
ATOM     22  O   UNL     1      -0.743  -2.218  24.799  0.00  0.00    -0.273 OA
ATOM     23  N   UNL     1      -2.035  -1.612  24.861  0.00  0.00    -0.200 NA
BRANCH  23  24
ATOM     24  C   UNL     1      -2.376  -2.312  24.587  0.00  0.00    +0.148 C 
BRANCH  24  25
ATOM     25  C   UNL     1      -3.151  -2.311  24.306  0.00  0.00    +0.029 A 
ATOM     26  C   UNL     1      -3.607  -1.643  24.141  0.00  0.00    +0.004 A 
ATOM     27  C   UNL     1      -4.345  -1.897  23.874  0.00  0.00    +0.007 A 
ATOM     28  C   UNL     1      -4.345  -2.722  23.874  0.00  0.00    +0.035 A 
ATOM     29  S   UNL     1      -3.608  -2.978  24.140  0.00  0.00    -0.089 S 
ENDBRANCH  24  25
ENDBRANCH  23  24
ENDBRANCH  20  21
ENDBRANCH  19  20
ENDBRANCH  18  19
TORSDOF 7
ENDMDL
MODEL 3
REMARK VINA RESULT:      -6.3      2.229      6.425
REMARK  Name = 
REMARK  7 active torsions:
REMARK  status: ('A' for Active; 'I' for Inactive)
REMARK    1  A    between atoms: N_6  and  C_7
REMARK    2  A    between atoms: C_7  and  C_8
REMARK    3  A    between atoms: C_18  and  C_19
REMARK    4  A    between atoms: C_19  and  C_20
REMARK    5  A    between atoms: C_20  and  C_21
REMARK    6  A    between atoms: N_23  and  C_24
REMARK    7  A    between atoms: C_24  and  C_25
REMARK                            x       y       z     vdW  Elec       q    Type
REMARK                         _______ _______ _______ _____ _____    ______ ____
ROOT
ATOM      1  C   UNL     1      -1.731   1.642  23.987  0.00  0.00    +0.090 C 
ATOM      2  N   UNL     1      -1.420   0.885  24.088  0.00  0.00    -0.271 NA
ATOM      3  C   UNL     1      -0.642   0.780  23.834  0.00  0.00    +0.083 C 
ATOM      4  C   UNL     1      -0.188   1.382  23.498  0.00  0.00    +0.035 C 
ATOM      5  C   UNL     1       0.553   1.072  23.315  0.00  0.00    +0.074 C 
ATOM      6  N   UNL     1       0.559   0.277  23.538  0.00  0.00    -0.259 NA
ATOM     13  C   UNL     1      -0.180   0.097  23.858  0.00  0.00    +0.152 C 
ATOM     14  C   UNL     1      -0.382  -0.650  24.143  0.00  0.00    +0.257 C 
ATOM     15  O   UNL     1       0.208  -1.225  24.091  0.00  0.00    -0.272 OA
ATOM     16  N   UNL     1      -1.095  -0.899  24.474  0.00  0.00    -0.203 NA
ATOM     17  C   UNL     1      -1.783  -0.461  24.601  0.00  0.00    +0.131 C 
ATOM     18  C   UNL     1      -1.928   0.332  24.430  0.00  0.00    +0.080 C 
ENDROOT
BRANCH   6   7
ATOM      7  C   UNL     1       1.192  -0.246  23.455  0.00  0.00    +0.139 C 
BRANCH   7   8
ATOM      8  C   UNL     1       1.838  -0.038  22.986  0.00  0.00    +0.155 A 
ATOM      9  N   UNL     1       1.941  -0.228  22.190  0.00  0.00    -0.226 NA
ATOM     10  C   UNL     1       2.662   0.089  21.944  0.00  0.00    +0.121 A 
ATOM     11  C   UNL     1       3.005   0.474  22.588  0.00  0.00    +0.121 A 
ATOM     12  N   UNL     1       2.496   0.396  23.232  0.00  0.00    -0.226 NA
ENDBRANCH   7   8
ENDBRANCH   6   7
BRANCH  18  19
ATOM     19  C   UNL     1      -2.679   0.610  24.625  0.00  0.00    +0.027 C 
BRANCH  19  20
ATOM     20  C   UNL     1      -3.267   0.082  24.860  0.00  0.00    +0.088 C 
BRANCH  20  21
ATOM     21  C   UNL     1      -4.062   0.295  24.799  0.00  0.00    +0.242 C 
ATOM     22  O   UNL     1      -4.597  -0.210  24.425  0.00  0.00    -0.273 OA
ATOM     23  N   UNL     1      -4.323   1.012  25.113  0.00  0.00    -0.200 NA
BRANCH  23  24
ATOM     24  C   UNL     1      -5.118   1.225  25.053  0.00  0.00    +0.148 C 
BRANCH  24  25
ATOM     25  C   UNL     1      -5.368   1.965  25.315  0.00  0.00    +0.029 A 
ATOM     26  C   UNL     1      -5.149   2.693  24.996  0.00  0.00    +0.004 A 
ATOM     27  C   UNL     1      -5.527   3.286  25.427  0.00  0.00    +0.007 A 
ATOM     28  C   UNL     1      -5.981   2.924  26.013  0.00  0.00    +0.035 A 
ATOM     29  S   UNL     1      -5.883   2.108  25.944  0.00  0.00    -0.089 S 
ENDBRANCH  24  25
ENDBRANCH  23  24
ENDBRANCH  20  21
ENDBRANCH  19  20
ENDBRANCH  18  19
TORSDOF 7
ENDMDL
MODEL 4
REMARK VINA RESULT:      -6.1      3.646      4.978
REMARK  Name = 
REMARK  7 active torsions:
REMARK  status: ('A' for Active; 'I' for Inactive)
REMARK    1  A    between atoms: N_6  and  C_7
REMARK    2  A    between atoms: C_7  and  C_8
REMARK    3  A    between atoms: C_18  and  C_19
REMARK    4  A    between atoms: C_19  and  C_20
REMARK    5  A    between atoms: C_20  and  C_21
REMARK    6  A    between atoms: N_23  and  C_24
REMARK    7  A    between atoms: C_24  and  C_25
REMARK                            x       y       z     vdW  Elec       q    Type
REMARK                         _______ _______ _______ _____ _____    ______ ____
ROOT
ATOM      1  C   UNL     1      -4.887   1.469  25.663  0.00  0.00    +0.090 C 
ATOM      2  N   UNL     1      -4.464   1.285  24.979  0.00  0.00    -0.271 NA
ATOM      3  C   UNL     1      -4.321   0.483  24.851  0.00  0.00    +0.083 C 
ATOM      4  C   UNL     1      -4.576  -0.112  25.363  0.00  0.00    +0.035 C 
ATOM      5  C   UNL     1      -4.331  -0.836  25.055  0.00  0.00    +0.074 C 
ATOM      6  N   UNL     1      -3.925  -0.690  24.352  0.00  0.00    -0.259 NA
ATOM     13  C   UNL     1      -3.919   0.125  24.226  0.00  0.00    +0.152 C 
ATOM     14  C   UNL     1      -3.561   0.482  23.574  0.00  0.00    +0.257 C 
ATOM     15  O   UNL     1      -3.199  -0.032  23.039  0.00  0.00    -0.272 OA
ATOM     16  N   UNL     1      -3.516   1.283  23.386  0.00  0.00    -0.203 NA
ATOM     17  C   UNL     1      -3.819   1.927  23.805  0.00  0.00    +0.131 C 
ATOM     18  C   UNL     1      -4.240   1.928  24.513  0.00  0.00    +0.080 C 
ENDROOT
BRANCH   6   7
ATOM      7  C   UNL     1      -3.585  -1.259  23.860  0.00  0.00    +0.139 C 
BRANCH   7   8
ATOM      8  C   UNL     1      -3.462  -2.025  24.141  0.00  0.00    +0.155 A 
ATOM      9  N   UNL     1      -3.984  -2.659  24.067  0.00  0.00    -0.226 NA
ATOM     10  C   UNL     1      -3.640  -3.317  24.426  0.00  0.00    +0.121 A 
ATOM     11  C   UNL     1      -2.904  -3.089  24.723  0.00  0.00    +0.121 A 
ATOM     12  N   UNL     1      -2.794  -2.291  24.547  0.00  0.00    -0.226 NA
ENDBRANCH   7   8
ENDBRANCH   6   7
BRANCH  18  19
ATOM     19  C   UNL     1      -4.469   2.670  24.793  0.00  0.00    +0.027 C 
BRANCH  19  20
ATOM     20  C   UNL     1      -4.133   3.353  24.477  0.00  0.00    +0.088 C 
BRANCH  20  21
ATOM     21  C   UNL     1      -3.726   3.878  24.966  0.00  0.00    +0.242 C 
ATOM     22  O   UNL     1      -4.115   4.238  25.599  0.00  0.00    -0.273 OA
ATOM     23  N   UNL     1      -2.931   4.043  24.824  0.00  0.00    -0.200 NA
BRANCH  23  24
ATOM     24  C   UNL     1      -2.524   4.568  25.313  0.00  0.00    +0.148 C 
BRANCH  24  25
ATOM     25  C   UNL     1      -1.734   4.747  25.160  0.00  0.00    +0.029 A 
ATOM     26  C   UNL     1      -1.435   5.489  24.956  0.00  0.00    +0.004 A 
ATOM     27  C   UNL     1      -0.619   5.416  24.854  0.00  0.00    +0.007 A 
ATOM     28  C   UNL     1      -0.415   4.629  24.995  0.00  0.00    +0.035 A 
ATOM     29  S   UNL     1      -1.103   4.216  25.185  0.00  0.00    -0.089 S 
ENDBRANCH  24  25
ENDBRANCH  23  24
ENDBRANCH  20  21
ENDBRANCH  19  20
ENDBRANCH  18  19
TORSDOF 7
ENDMDL
MODEL 5
REMARK VINA RESULT:      -6.1      3.219      4.541
REMARK  Name = 
REMARK  7 active torsions:
REMARK  status: ('A' for Active; 'I' for Inactive)
REMARK    1  A    between atoms: N_6  and  C_7
REMARK    2  A    between atoms: C_7  and  C_8
REMARK    3  A    between atoms: C_18  and  C_19
REMARK    4  A    between atoms: C_19  and  C_20
REMARK    5  A    between atoms: C_20  and  C_21
REMARK    6  A    between atoms: N_23  and  C_24
REMARK    7  A    between atoms: C_24  and  C_25
REMARK                            x       y       z     vdW  Elec       q    Type
REMARK                         _______ _______ _______ _____ _____    ______ ____
ROOT
ATOM      1  C   UNL     1      -0.215  -0.334  24.260  0.00  0.00    +0.090 C 
ATOM      2  N   UNL     1      -0.901  -0.294  24.715  0.00  0.00    -0.271 NA
ATOM      3  C   UNL     1      -1.405  -0.945  24.662  0.00  0.00    +0.083 C 
ATOM      4  C   UNL     1      -1.249  -1.603  24.189  0.00  0.00    +0.035 C 
ATOM      5  C   UNL     1      -1.873  -2.135  24.278  0.00  0.00    +0.074 C 
ATOM      6  N   UNL     1      -2.414  -1.807  24.807  0.00  0.00    -0.259 NA
ATOM     13  C   UNL     1      -2.126  -1.071  25.044  0.00  0.00    +0.152 C 
ATOM     14  C   UNL     1      -2.520  -0.578  25.573  0.00  0.00    +0.257 C 
ATOM     15  O   UNL     1      -3.238  -0.863  25.863  0.00  0.00    -0.272 OA
ATOM     16  N   UNL     1      -2.292   0.164  25.853  0.00  0.00    -0.203 NA
ATOM     17  C   UNL     1      -1.612   0.596  25.670  0.00  0.00    +0.131 C 
ATOM     18  C   UNL     1      -0.994   0.392  25.164  0.00  0.00    +0.080 C 
ENDROOT
BRANCH   6   7
ATOM      7  C   UNL     1      -3.121  -2.153  25.055  0.00  0.00    +0.139 C 
BRANCH   7   8
ATOM      8  C   UNL     1      -3.595  -2.555  24.512  0.00  0.00    +0.155 A 
ATOM      9  N   UNL     1      -4.148  -2.214  24.004  0.00  0.00    -0.226 NA
ATOM     10  C   UNL     1      -4.493  -2.818  23.561  0.00  0.00    +0.121 A 
ATOM     11  C   UNL     1      -4.154  -3.533  23.796  0.00  0.00    +0.121 A 
ATOM     12  N   UNL     1      -3.599  -3.371  24.384  0.00  0.00    -0.226 NA
ENDBRANCH   7   8
ENDBRANCH   6   7
BRANCH  18  19
ATOM     19  C   UNL     1      -0.387   0.947  25.098  0.00  0.00    +0.027 C 
BRANCH  19  20
ATOM     20  C   UNL     1      -0.371   1.603  25.596  0.00  0.00    +0.088 C 
BRANCH  20  21
ATOM     21  C   UNL     1      -0.126   2.336  25.307  0.00  0.00    +0.242 C 
ATOM     22  O   UNL     1       0.628   2.420  24.981  0.00  0.00    -0.273 OA
ATOM     23  N   UNL     1      -0.633   2.985  25.343  0.00  0.00    -0.200 NA
BRANCH  23  24
ATOM     24  C   UNL     1      -0.388   3.718  25.053  0.00  0.00    +0.148 C 
BRANCH  24  25
ATOM     25  C   UNL     1      -0.903   4.361  25.069  0.00  0.00    +0.029 A 
ATOM     26  C   UNL     1      -0.724   5.133  24.838  0.00  0.00    +0.004 A 
ATOM     27  C   UNL     1      -1.399   5.595  24.945  0.00  0.00    +0.007 A 
ATOM     28  C   UNL     1      -1.995   5.109  25.243  0.00  0.00    +0.035 A 
ATOM     29  S   UNL     1      -1.690   4.347  25.320  0.00  0.00    -0.089 S 
ENDBRANCH  24  25
ENDBRANCH  23  24
ENDBRANCH  20  21
ENDBRANCH  19  20
ENDBRANCH  18  19
TORSDOF 7
ENDMDL
MODEL 6
REMARK VINA RESULT:      -6.0      2.243      2.977
REMARK  Name = 
REMARK  7 active torsions:
REMARK  status: ('A' for Active; 'I' for Inactive)
REMARK    1  A    between atoms: N_6  and  C_7
REMARK    2  A    between atoms: C_7  and  C_8
REMARK    3  A    between atoms: C_18  and  C_19
REMARK    4  A    between atoms: C_19  and  C_20
REMARK    5  A    between atoms: C_20  and  C_21
REMARK    6  A    between atoms: N_23  and  C_24
REMARK    7  A    between atoms: C_24  and  C_25
REMARK                            x       y       z     vdW  Elec       q    Type
REMARK                         _______ _______ _______ _____ _____    ______ ____
ROOT
ATOM      1  C   UNL     1      -2.100   1.896  23.064  0.00  0.00    +0.090 C 
ATOM      2  N   UNL     1      -2.044   2.274  23.795  0.00  0.00    -0.271 NA
ATOM      3  C   UNL     1      -2.728   2.654  24.055  0.00  0.00    +0.083 C 
ATOM      4  C   UNL     1      -3.432   2.667  23.625  0.00  0.00    +0.035 C 
ATOM      5  C   UNL     1      -3.988   3.097  24.058  0.00  0.00    +0.074 C 
ATOM      6  N   UNL     1      -3.627   3.349  24.757  0.00  0.00    -0.259 NA
ATOM     13  C   UNL     1      -2.849   3.075  24.755  0.00  0.00    +0.152 C 
ATOM     14  C   UNL     1      -2.315   3.220  25.366  0.00  0.00    +0.257 C 
ATOM     15  O   UNL     1      -2.605   3.664  25.998  0.00  0.00    -0.272 OA
ATOM     16  N   UNL     1      -1.529   2.979  25.430  0.00  0.00    -0.203 NA
ATOM     17  C   UNL     1      -1.082   2.534  24.897  0.00  0.00    +0.131 C 
ATOM     18  C   UNL     1      -1.311   2.220  24.171  0.00  0.00    +0.080 C 
ENDROOT
BRANCH   6   7
ATOM      7  C   UNL     1      -3.982   3.796  25.352  0.00  0.00    +0.139 C 
BRANCH   7   8
ATOM      8  C   UNL     1      -4.791   3.719  25.498  0.00  0.00    +0.155 A 
ATOM      9  N   UNL     1      -5.369   4.284  25.340  0.00  0.00    -0.226 NA
ATOM     10  C   UNL     1      -6.098   3.976  25.572  0.00  0.00    +0.121 A 
ATOM     11  C   UNL     1      -5.970   3.219  25.875  0.00  0.00    +0.121 A 
ATOM     12  N   UNL     1      -5.162   3.060  25.830  0.00  0.00    -0.226 NA
ENDBRANCH   7   8
ENDBRANCH   6   7
BRANCH  18  19
ATOM     19  C   UNL     1      -0.731   1.797  23.764  0.00  0.00    +0.027 C 
BRANCH  19  20
ATOM     20  C   UNL     1      -0.159   1.375  24.181  0.00  0.00    +0.088 C 
BRANCH  20  21
ATOM     21  C   UNL     1       0.007   0.593  23.979  0.00  0.00    +0.242 C 
ATOM     22  O   UNL     1       0.544   0.428  23.374  0.00  0.00    -0.273 OA
ATOM     23  N   UNL     1      -0.363  -0.025  24.381  0.00  0.00    -0.200 NA
BRANCH  23  24
ATOM     24  C   UNL     1      -0.197  -0.807  24.180  0.00  0.00    +0.148 C 
BRANCH  24  25
ATOM     25  C   UNL     1      -0.672  -1.417  24.466  0.00  0.00    +0.029 A 
ATOM     26  C   UNL     1      -1.285  -1.788  24.056  0.00  0.00    +0.004 A 
ATOM     27  C   UNL     1      -1.610  -2.364  24.550  0.00  0.00    +0.007 A 
ATOM     28  C   UNL     1      -1.198  -2.349  25.264  0.00  0.00    +0.035 A 
ATOM     29  S   UNL     1      -0.619  -1.764  25.213  0.00  0.00    -0.089 S 
ENDBRANCH  24  25
ENDBRANCH  23  24
ENDBRANCH  20  21
ENDBRANCH  19  20
ENDBRANCH  18  19
TORSDOF 7
ENDMDL
MODEL 7
REMARK VINA RESULT:      -4.9     15.521     17.316
REMARK  Name = 
REMARK  7 active torsions:
REMARK  status: ('A' for Active; 'I' for Inactive)
REMARK    1  A    between atoms: N_6  and  C_7
REMARK    2  A    between atoms: C_7  and  C_8
REMARK    3  A    between atoms: C_18  and  C_19
REMARK    4  A    between atoms: C_19  and  C_20
REMARK    5  A    between atoms: C_20  and  C_21
REMARK    6  A    between atoms: N_23  and  C_24
REMARK    7  A    between atoms: C_24  and  C_25
REMARK                            x       y       z     vdW  Elec       q    Type
REMARK                         _______ _______ _______ _____ _____    ______ ____
ROOT
ATOM      1  C   UNL     1      12.632   6.876  19.556  0.00  0.00    +0.090 C 
ATOM      2  N   UNL     1      12.913   7.348  20.171  0.00  0.00    -0.271 NA
ATOM      3  C   UNL     1      13.655   7.144  20.470  0.00  0.00    +0.083 C 
ATOM      4  C   UNL     1      14.101   6.512  20.185  0.00  0.00    +0.035 C 
ATOM      5  C   UNL     1      14.804   6.480  20.615  0.00  0.00    +0.074 C 
ATOM      6  N   UNL     1      14.792   7.094  21.167  0.00  0.00    -0.259 NA
ATOM     13  C   UNL     1      14.082   7.504  21.077  0.00  0.00    +0.152 C 
ATOM     14  C   UNL     1      13.873   8.157  21.535  0.00  0.00    +0.257 C 
ATOM     15  O   UNL     1      14.424   8.386  22.105  0.00  0.00    -0.272 OA
ATOM     16  N   UNL     1      13.185   8.611  21.500  0.00  0.00    -0.203 NA
ATOM     17  C   UNL     1      12.537   8.525  20.997  0.00  0.00    +0.131 C 
ATOM     18  C   UNL     1      12.416   7.963  20.406  0.00  0.00    +0.080 C 
ENDROOT
BRANCH   6   7
ATOM      7  C   UNL     1      15.386   7.267  21.713  0.00  0.00    +0.139 C 
BRANCH   7   8
ATOM      8  C   UNL     1      16.171   7.079  21.541  0.00  0.00    +0.155 A 
ATOM      9  N   UNL     1      16.677   7.508  21.051  0.00  0.00    -0.226 NA
ATOM     10  C   UNL     1      17.405   7.123  21.037  0.00  0.00    +0.121 A 
ATOM     11  C   UNL     1      17.350   6.454  21.518  0.00  0.00    +0.121 A 
ATOM     12  N   UNL     1      16.587   6.427  21.829  0.00  0.00    -0.226 NA
ENDBRANCH   7   8
ENDBRANCH   6   7
BRANCH  18  19
ATOM     19  C   UNL     1      11.703   8.023  19.995  0.00  0.00    +0.027 C 
BRANCH  19  20
ATOM     20  C   UNL     1      11.564   8.668  19.501  0.00  0.00    +0.088 C 
BRANCH  20  21
ATOM     21  C   UNL     1      11.004   8.613  18.897  0.00  0.00    +0.242 C 
ATOM     22  O   UNL     1      10.247   8.331  19.062  0.00  0.00    -0.273 OA
ATOM     23  N   UNL     1      11.201   8.841  18.129  0.00  0.00    -0.200 NA
BRANCH  23  24
ATOM     24  C   UNL     1      10.642   8.786  17.525  0.00  0.00    +0.148 C 
BRANCH  24  25
ATOM     25  C   UNL     1      10.875   8.863  16.738  0.00  0.00    +0.029 A 
ATOM     26  C   UNL     1      10.400   8.732  16.076  0.00  0.00    +0.004 A 
ATOM     27  C   UNL     1      10.855   8.872  15.403  0.00  0.00    +0.007 A 
ATOM     28  C   UNL     1      11.612   9.089  15.649  0.00  0.00    +0.035 A 
ATOM     29  S   UNL     1      11.625   9.084  16.474  0.00  0.00    -0.089 S 
ENDBRANCH  24  25
ENDBRANCH  23  24
ENDBRANCH  20  21
ENDBRANCH  19  20
ENDBRANCH  18  19
TORSDOF 7
ENDMDL
