REMARK  Name = 
REMARK  10 active torsions:
REMARK  status: ('A' for Active; 'I' for Inactive)
REMARK    1  A    between atoms: C_2  and  C_4
REMARK    2  A    between atoms: C_4  and  C_5
REMARK    3  A    between atoms: C_4  and  N_13
REMARK    4  A    between atoms: C_5  and  C_6
REMARK    5  A    between atoms: C_14  and  C_16
REMARK    6  A    between atoms: C_18  and  N_19
REMARK    7  A    between atoms: C_20  and  C_22
REMARK    8  A    between atoms: C_22  and  C_23
REMARK    9  A    between atoms: C_23  and  C_24
REMARK   10  A    between atoms: C_24  and  C_25
REMARK                            x       y       z     vdW  Elec       q    Type
REMARK                         _______ _______ _______ _____ _____    ______ ____
ROOT
ATOM     16  C   UNL     1       3.572  -2.888   0.000  0.00  0.00    +0.033 C 
ATOM     17  C   UNL     1       4.287  -2.475   0.000  0.00  0.00    -0.002 C 
ATOM     18  C   UNL     1       5.001  -2.888   0.000  0.00  0.00    +0.150 C 
ATOM     32  C   UNL     1       5.001  -3.712   0.000  0.00  0.00    +0.206 C 
ATOM     33  O   UNL     1       5.716  -4.125   0.000  0.00  0.00    -0.218 OA
ATOM     34  C   UNL     1       4.287  -4.125   0.000  0.00  0.00    +0.189 C 
ATOM     35  O   UNL     1       4.287  -4.950   0.000  0.00  0.00    -0.220 OA
ATOM     36  C   UNL     1       3.572  -3.712   0.000  0.00  0.00    +0.066 C 
ENDROOT
BRANCH  16  14
ATOM     13  N   UNL     1       2.143  -2.888   0.000  0.00  0.00    -0.194 NA
ATOM     14  C   UNL     1       2.858  -2.475   0.000  0.00  0.00    +0.261 C 
ATOM     15  O   UNL     1       2.858  -1.650   0.000  0.00  0.00    -0.269 OA
BRANCH  13   4
ATOM      4  C   UNL     1       1.429  -2.475   0.000  0.00  0.00    +0.179 C 
BRANCH   4   2
ATOM      1  N   UNL     1       2.143  -1.238   0.000  0.00  0.00    -0.086 NA
ATOM      2  C   UNL     1       1.429  -1.650   0.000  0.00  0.00    +0.281 C 
ATOM      3  O   UNL     1       0.715  -1.238   0.000  0.00  0.00    -0.270 OA
ENDBRANCH   4   2
BRANCH   4   5
ATOM      5  C   UNL     1       0.715  -2.888   0.000  0.00  0.00    +0.057 C 
BRANCH   5   6
ATOM      6  C   UNL     1       0.000  -2.475   0.000  0.00  0.00    -0.020 A 
ATOM      7  C   UNL     1      -0.715  -2.888   0.000  0.00  0.00    -0.001 A 
ATOM      8  C   UNL     1      -1.429  -2.475   0.000  0.00  0.00    +0.042 A 
ATOM      9  C   UNL     1      -1.429  -1.650   0.000  0.00  0.00    +0.196 A 
ATOM     10  O   UNL     1      -2.143  -1.238   0.000  0.00  0.00    -0.287 OA
ATOM     11  C   UNL     1      -0.715  -1.238   0.000  0.00  0.00    +0.042 A 
ATOM     12  C   UNL     1       0.000  -1.650   0.000  0.00  0.00    -0.001 A 
ENDBRANCH   5   6
ENDBRANCH   4   5
ENDBRANCH  13   4
ENDBRANCH  16  14
BRANCH  18  19
ATOM     19  N   UNL     1       5.716  -2.475   0.000  0.00  0.00    -0.200 NA
ATOM     20  C   UNL     1       5.716  -1.650   0.000  0.00  0.00    +0.242 C 
ATOM     21  O   UNL     1       5.001  -1.238   0.000  0.00  0.00    -0.273 OA
BRANCH  20  22
ATOM     22  C   UNL     1       6.430  -1.238   0.000  0.00  0.00    +0.087 C 
BRANCH  22  23
ATOM     23  C   UNL     1       6.430  -0.412   0.000  0.00  0.00    +0.019 C 
ATOM     28  C   UNL     1       5.610  -0.499   0.000  0.00  0.00    +0.001 C 
ATOM     29  C   UNL     1       5.274   0.255   0.000  0.00  0.00    +0.000 C 
ATOM     30  C   UNL     1       5.887   0.807   0.000  0.00  0.00    +0.000 C 
ATOM     31  C   UNL     1       6.602   0.395   0.000  0.00  0.00    +0.001 C 
BRANCH  23  24
ATOM     24  C   UNL     1       7.251  -0.499   0.000  0.00  0.00    +0.115 C 
BRANCH  24  25
ATOM     25  C   UNL     1       7.736   0.169   0.000  0.00  0.00    +0.365 C 
ATOM     26  O   UNL     1       7.400   0.922   0.000  0.00  0.00    -0.246 OA
ATOM     27  O   UNL     1       8.556   0.083   0.000  0.00  0.00    -0.246 OA
ENDBRANCH  24  25
ENDBRANCH  23  24
ENDBRANCH  22  23
ENDBRANCH  20  22
ENDBRANCH  18  19
TORSDOF 10
