MODEL 1
REMARK VINA RESULT:      -8.4      0.000      0.000
REMARK  Name = 
REMARK  9 active torsions:
REMARK  status: ('A' for Active; 'I' for Inactive)
REMARK    1  A    between atoms: O_2  and  C_3
REMARK    2  A    between atoms: C_3  and  C_4
REMARK    3  A    between atoms: C_4  and  O_5
REMARK    4  A    between atoms: O_5  and  C_6
REMARK    5  A    between atoms: C_9  and  C_12
REMARK    6  A    between atoms: C_15  and  C_17
REMARK    7  A    between atoms: N_21  and  C_22
REMARK    8  A    between atoms: C_22  and  C_23
REMARK    9  A    between atoms: C_26  and  N_29
REMARK                            x       y       z     vdW  Elec       q    Type
REMARK                         _______ _______ _______ _____ _____    ______ ____
ROOT
ATOM     12  C   UNL     1      -0.695  -0.678  24.292  0.00  0.00    +0.205 A 
ATOM     13  N   UNL     1      -0.701  -1.015  25.046  0.00  0.00    -0.056 NA
ATOM     14  O   UNL     1      -1.474  -1.247  25.216  0.00  0.00    -0.336 OA
ATOM     15  C   UNL     1      -1.946  -1.055  24.567  0.00  0.00    +0.251 A 
ATOM     16  N   UNL     1      -1.465  -0.704  23.996  0.00  0.00    -0.190 NA
ENDROOT
BRANCH  12   9
ATOM      6  C   UNL     1       1.284   0.243  23.125  0.00  0.00    +0.225 A 
ATOM      7  C   UNL     1       0.765   0.748  23.520  0.00  0.00    +0.058 A 
ATOM      8  C   UNL     1       0.105   0.441  23.909  0.00  0.00    +0.010 A 
ATOM      9  C   UNL     1      -0.036  -0.371  23.903  0.00  0.00    +0.058 A 
ATOM     10  C   UNL     1       0.483  -0.878  23.508  0.00  0.00    +0.105 A 
ATOM     11  N   UNL     1       1.142  -0.571  23.119  0.00  0.00    -0.210 NA
BRANCH   6   5
ATOM      5  O   UNL     1       1.943   0.550  22.736  0.00  0.00    -0.457 OA
BRANCH   5   4
ATOM      4  C   UNL     1       2.679   0.551  23.111  0.00  0.00    +0.239 C 
BRANCH   4   3
ATOM      3  C   UNL     1       3.358   0.738  22.682  0.00  0.00    +0.189 C 
BRANCH   3   2
ATOM      1  C   UNL     1       4.726   0.551  23.052  0.00  0.00    +0.174 C 
ATOM      2  O   UNL     1       4.035   1.000  23.075  0.00  0.00    -0.347 OA
ENDBRANCH   3   2
ENDBRANCH   4   3
ENDBRANCH   5   4
ENDBRANCH   6   5
ENDBRANCH  12   9
BRANCH  15  17
ATOM     17  C   UNL     1      -2.757  -1.190  24.500  0.00  0.00    +0.138 C 
ATOM     18  C   UNL     1      -3.112  -1.889  24.242  0.00  0.00    +0.027 C 
ATOM     19  C   UNL     1      -3.930  -1.782  24.262  0.00  0.00    +0.019 C 
ATOM     20  C   UNL     1      -4.081  -1.017  24.532  0.00  0.00    +0.073 C 
ATOM     21  N   UNL     1      -3.355  -0.651  24.680  0.00  0.00    -0.263 NA
BRANCH  21  22
ATOM     22  C   UNL     1      -3.248   0.118  24.958  0.00  0.00    +0.099 C 
BRANCH  22  23
ATOM     23  C   UNL     1      -3.887   0.637  24.992  0.00  0.00    -0.006 A 
ATOM     24  C   UNL     1      -3.956   1.244  24.437  0.00  0.00    -0.002 A 
ATOM     25  C   UNL     1      -4.596   1.764  24.471  0.00  0.00    +0.014 A 
ATOM     26  C   UNL     1      -5.167   1.677  25.060  0.00  0.00    +0.048 A 
ATOM     27  C   UNL     1      -5.098   1.070  25.615  0.00  0.00    +0.014 A 
ATOM     28  C   UNL     1      -4.459   0.550  25.581  0.00  0.00    -0.002 A 
BRANCH  26  29
ATOM     29  N   UNL     1      -5.807   2.197  25.094  0.00  0.00    -0.304 N 
ATOM     30  C   UNL     1      -6.542   1.965  24.800  0.00  0.00    +0.112 C 
ATOM     31  C   UNL     1      -5.711   2.948  25.422  0.00  0.00    +0.112 C 
ENDBRANCH  26  29
ENDBRANCH  22  23
ENDBRANCH  21  22
ENDBRANCH  15  17
TORSDOF 9
ENDMDL
MODEL 2
REMARK VINA RESULT:      -7.8      2.569      4.324
REMARK  Name = 
REMARK  9 active torsions:
REMARK  status: ('A' for Active; 'I' for Inactive)
REMARK    1  A    between atoms: O_2  and  C_3
REMARK    2  A    between atoms: C_3  and  C_4
REMARK    3  A    between atoms: C_4  and  O_5
REMARK    4  A    between atoms: O_5  and  C_6
REMARK    5  A    between atoms: C_9  and  C_12
REMARK    6  A    between atoms: C_15  and  C_17
REMARK    7  A    between atoms: N_21  and  C_22
REMARK    8  A    between atoms: C_22  and  C_23
REMARK    9  A    between atoms: C_26  and  N_29
REMARK                            x       y       z     vdW  Elec       q    Type
REMARK                         _______ _______ _______ _____ _____    ______ ____
ROOT
ATOM     12  C   UNL     1      -0.367   1.663  25.192  0.00  0.00    +0.205 A 
ATOM     13  N   UNL     1       0.304   1.996  25.539  0.00  0.00    -0.056 NA
ATOM     14  O   UNL     1       0.198   2.815  25.563  0.00  0.00    -0.336 OA
ATOM     15  C   UNL     1      -0.538   2.986  25.232  0.00  0.00    +0.251 A 
ATOM     16  N   UNL     1      -0.887   2.274  25.002  0.00  0.00    -0.190 NA
ENDROOT
BRANCH  12   9
ATOM      6  C   UNL     1      -0.749  -0.750  24.792  0.00  0.00    +0.225 A 
ATOM      7  C   UNL     1      -0.965  -0.411  25.513  0.00  0.00    +0.058 A 
ATOM      8  C   UNL     1      -0.838   0.393  25.646  0.00  0.00    +0.010 A 
ATOM      9  C   UNL     1      -0.494   0.858  25.059  0.00  0.00    +0.058 A 
ATOM     10  C   UNL     1      -0.278   0.521  24.338  0.00  0.00    +0.105 A 
ATOM     11  N   UNL     1      -0.405  -0.283  24.204  0.00  0.00    -0.210 NA
BRANCH   6   5
ATOM      5  O   UNL     1      -0.876  -1.554  24.659  0.00  0.00    -0.457 OA
BRANCH   5   4
ATOM      4  C   UNL     1      -1.592  -1.810  24.338  0.00  0.00    +0.239 C 
BRANCH   4   3
ATOM      3  C   UNL     1      -1.874  -2.566  24.510  0.00  0.00    +0.189 C 
BRANCH   3   2
ATOM      1  C   UNL     1      -3.244  -2.972  24.510  0.00  0.00    +0.174 C 
ATOM      2  O   UNL     1      -2.531  -2.863  24.110  0.00  0.00    -0.347 OA
ENDBRANCH   3   2
ENDBRANCH   4   3
ENDBRANCH   5   4
ENDBRANCH   6   5
ENDBRANCH  12   9
BRANCH  15  17
ATOM     17  C   UNL     1      -0.868   3.737  25.144  0.00  0.00    +0.138 C 
ATOM     18  C   UNL     1      -0.542   4.363  24.716  0.00  0.00    +0.027 C 
ATOM     19  C   UNL     1      -1.053   5.007  24.776  0.00  0.00    +0.019 C 
ATOM     20  C   UNL     1      -1.695   4.780  25.243  0.00  0.00    +0.073 C 
ATOM     21  N   UNL     1      -1.580   3.995  25.470  0.00  0.00    -0.263 NA
BRANCH  21  22
ATOM     22  C   UNL     1      -2.089   3.547  25.940  0.00  0.00    +0.099 C 
BRANCH  22  23
ATOM     23  C   UNL     1      -2.905   3.609  25.841  0.00  0.00    -0.006 A 
ATOM     24  C   UNL     1      -3.278   3.204  25.227  0.00  0.00    -0.002 A 
ATOM     25  C   UNL     1      -4.095   3.266  25.127  0.00  0.00    +0.014 A 
ATOM     26  C   UNL     1      -4.538   3.734  25.642  0.00  0.00    +0.048 A 
ATOM     27  C   UNL     1      -4.165   4.139  26.256  0.00  0.00    +0.014 A 
ATOM     28  C   UNL     1      -3.349   4.077  26.355  0.00  0.00    -0.002 A 
BRANCH  26  29
ATOM     29  N   UNL     1      -5.355   3.796  25.542  0.00  0.00    -0.304 N 
ATOM     30  C   UNL     1      -5.821   3.115  25.524  0.00  0.00    +0.112 C 
ATOM     31  C   UNL     1      -5.706   4.539  25.460  0.00  0.00    +0.112 C 
ENDBRANCH  26  29
ENDBRANCH  22  23
ENDBRANCH  21  22
ENDBRANCH  15  17
TORSDOF 9
ENDMDL
MODEL 3
REMARK VINA RESULT:      -7.2      1.716      2.441
REMARK  Name = 
REMARK  9 active torsions:
REMARK  status: ('A' for Active; 'I' for Inactive)
REMARK    1  A    between atoms: O_2  and  C_3
REMARK    2  A    between atoms: C_3  and  C_4
REMARK    3  A    between atoms: C_4  and  O_5
REMARK    4  A    between atoms: O_5  and  C_6
REMARK    5  A    between atoms: C_9  and  C_12
REMARK    6  A    between atoms: C_15  and  C_17
REMARK    7  A    between atoms: N_21  and  C_22
REMARK    8  A    between atoms: C_22  and  C_23
REMARK    9  A    between atoms: C_26  and  N_29
REMARK                            x       y       z     vdW  Elec       q    Type
REMARK                         _______ _______ _______ _____ _____    ______ ____
ROOT
ATOM     12  C   UNL     1      -0.201   1.255  24.526  0.00  0.00    +0.205 A 
ATOM     13  N   UNL     1      -0.618   0.773  25.050  0.00  0.00    -0.056 NA
ATOM     14  O   UNL     1      -1.206   1.231  25.405  0.00  0.00    -0.336 OA
ATOM     15  C   UNL     1      -1.152   1.996  25.100  0.00  0.00    +0.251 A 
ATOM     16  N   UNL     1      -0.530   2.010  24.557  0.00  0.00    -0.190 NA
ENDROOT
BRANCH  12   9
ATOM      6  C   UNL     1       1.705   0.556  23.110  0.00  0.00    +0.225 A 
ATOM      7  C   UNL     1       1.026   0.089  23.148  0.00  0.00    +0.058 A 
ATOM      8  C   UNL     1       0.390   0.322  23.620  0.00  0.00    +0.010 A 
ATOM      9  C   UNL     1       0.434   1.022  24.054  0.00  0.00    +0.058 A 
ATOM     10  C   UNL     1       1.113   1.489  24.017  0.00  0.00    +0.105 A 
ATOM     11  N   UNL     1       1.749   1.256  23.545  0.00  0.00    -0.210 NA
BRANCH   6   5
ATOM      5  O   UNL     1       2.340   0.322  22.638  0.00  0.00    -0.457 OA
BRANCH   5   4
ATOM      4  C   UNL     1       3.100   0.599  22.804  0.00  0.00    +0.239 C 
BRANCH   4   3
ATOM      3  C   UNL     1       3.757   0.216  22.484  0.00  0.00    +0.189 C 
BRANCH   3   2
ATOM      1  C   UNL     1       5.035   0.196  23.123  0.00  0.00    +0.174 C 
ATOM      2  O   UNL     1       4.510   0.535  22.584  0.00  0.00    -0.347 OA
ENDBRANCH   3   2
ENDBRANCH   4   3
ENDBRANCH   5   4
ENDBRANCH   6   5
ENDBRANCH  12   9
BRANCH  15  17
ATOM     17  C   UNL     1      -1.633   2.634  25.303  0.00  0.00    +0.138 C 
ATOM     18  C   UNL     1      -1.409   3.285  25.758  0.00  0.00    +0.027 C 
ATOM     19  C   UNL     1      -2.061   3.787  25.823  0.00  0.00    +0.019 C 
ATOM     20  C   UNL     1      -2.688   3.446  25.408  0.00  0.00    +0.073 C 
ATOM     21  N   UNL     1      -2.423   2.734  25.087  0.00  0.00    -0.263 NA
BRANCH  21  22
ATOM     22  C   UNL     1      -2.870   2.212  24.630  0.00  0.00    +0.099 C 
BRANCH  22  23
ATOM     23  C   UNL     1      -3.682   2.147  24.755  0.00  0.00    -0.006 A 
ATOM     24  C   UNL     1      -4.196   2.710  24.439  0.00  0.00    -0.002 A 
ATOM     25  C   UNL     1      -5.009   2.644  24.565  0.00  0.00    +0.014 A 
ATOM     26  C   UNL     1      -5.308   2.014  25.006  0.00  0.00    +0.048 A 
ATOM     27  C   UNL     1      -4.795   1.451  25.321  0.00  0.00    +0.014 A 
ATOM     28  C   UNL     1      -3.982   1.517  25.196  0.00  0.00    -0.002 A 
BRANCH  26  29
ATOM     29  N   UNL     1      -6.121   1.948  25.131  0.00  0.00    -0.304 N 
ATOM     30  C   UNL     1      -6.454   2.230  25.831  0.00  0.00    +0.112 C 
ATOM     31  C   UNL     1      -6.601   1.600  24.556  0.00  0.00    +0.112 C 
ENDBRANCH  26  29
ENDBRANCH  22  23
ENDBRANCH  21  22
ENDBRANCH  15  17
TORSDOF 9
ENDMDL
MODEL 4
REMARK VINA RESULT:      -7.1      2.852      4.945
REMARK  Name = 
REMARK  9 active torsions:
REMARK  status: ('A' for Active; 'I' for Inactive)
REMARK    1  A    between atoms: O_2  and  C_3
REMARK    2  A    between atoms: C_3  and  C_4
REMARK    3  A    between atoms: C_4  and  O_5
REMARK    4  A    between atoms: O_5  and  C_6
REMARK    5  A    between atoms: C_9  and  C_12
REMARK    6  A    between atoms: C_15  and  C_17
REMARK    7  A    between atoms: N_21  and  C_22
REMARK    8  A    between atoms: C_22  and  C_23
REMARK    9  A    between atoms: C_26  and  N_29
REMARK                            x       y       z     vdW  Elec       q    Type
REMARK                         _______ _______ _______ _____ _____    ______ ____
ROOT
ATOM     12  C   UNL     1      -4.791   0.480  24.920  0.00  0.00    +0.205 A 
ATOM     13  N   UNL     1      -5.564   0.565  24.643  0.00  0.00    -0.056 NA
ATOM     14  O   UNL     1      -5.790   1.351  24.757  0.00  0.00    -0.336 OA
ATOM     15  C   UNL     1      -5.158   1.751  25.104  0.00  0.00    +0.251 A 
ATOM     16  N   UNL     1      -4.540   1.212  25.204  0.00  0.00    -0.190 NA
ENDROOT
BRANCH  12   9
ATOM      6  C   UNL     1      -3.460  -1.606  24.899  0.00  0.00    +0.225 A 
ATOM      7  C   UNL     1      -3.828  -1.345  24.209  0.00  0.00    +0.058 A 
ATOM      8  C   UNL     1      -4.272  -0.649  24.216  0.00  0.00    +0.010 A 
ATOM      9  C   UNL     1      -4.347  -0.215  24.913  0.00  0.00    +0.058 A 
ATOM     10  C   UNL     1      -3.979  -0.476  25.604  0.00  0.00    +0.105 A 
ATOM     11  N   UNL     1      -3.535  -1.172  25.597  0.00  0.00    -0.210 NA
BRANCH   6   5
ATOM      5  O   UNL     1      -3.016  -2.302  24.892  0.00  0.00    -0.457 OA
BRANCH   5   4
ATOM      4  C   UNL     1      -2.275  -2.315  24.528  0.00  0.00    +0.239 C 
BRANCH   4   3
ATOM      3  C   UNL     1      -1.625  -2.628  24.928  0.00  0.00    +0.189 C 
BRANCH   3   2
ATOM      1  C   UNL     1      -0.276  -2.201  25.124  0.00  0.00    +0.174 C 
ATOM      2  O   UNL     1      -0.864  -2.510  24.635  0.00  0.00    -0.347 OA
ENDBRANCH   3   2
ENDBRANCH   4   3
ENDBRANCH   5   4
ENDBRANCH   6   5
ENDBRANCH  12   9
BRANCH  15  17
ATOM     17  C   UNL     1      -5.144   2.548  25.314  0.00  0.00    +0.138 C 
ATOM     18  C   UNL     1      -5.725   2.945  25.746  0.00  0.00    +0.027 C 
ATOM     19  C   UNL     1      -5.488   3.731  25.828  0.00  0.00    +0.019 C 
ATOM     20  C   UNL     1      -4.762   3.820  25.446  0.00  0.00    +0.073 C 
ATOM     21  N   UNL     1      -4.549   3.089  25.128  0.00  0.00    -0.263 NA
BRANCH  21  22
ATOM     22  C   UNL     1      -3.863   2.927  24.701  0.00  0.00    +0.099 C 
BRANCH  22  23
ATOM     23  C   UNL     1      -3.203   3.414  24.780  0.00  0.00    -0.006 A 
ATOM     24  C   UNL     1      -2.640   3.255  25.362  0.00  0.00    -0.002 A 
ATOM     25  C   UNL     1      -1.979   3.743  25.442  0.00  0.00    +0.014 A 
ATOM     26  C   UNL     1      -1.882   4.390  24.939  0.00  0.00    +0.048 A 
ATOM     27  C   UNL     1      -2.444   4.549  24.358  0.00  0.00    +0.014 A 
ATOM     28  C   UNL     1      -3.105   4.062  24.278  0.00  0.00    -0.002 A 
BRANCH  26  29
ATOM     29  N   UNL     1      -1.221   4.878  25.019  0.00  0.00    -0.304 N 
ATOM     30  C   UNL     1      -1.316   5.696  25.070  0.00  0.00    +0.112 C 
ATOM     31  C   UNL     1      -0.465   4.548  25.047  0.00  0.00    +0.112 C 
ENDBRANCH  26  29
ENDBRANCH  22  23
ENDBRANCH  21  22
ENDBRANCH  15  17
TORSDOF 9
ENDMDL
MODEL 5
REMARK VINA RESULT:      -7.0      3.014      4.203
REMARK  Name = 
REMARK  9 active torsions:
REMARK  status: ('A' for Active; 'I' for Inactive)
REMARK    1  A    between atoms: O_2  and  C_3
REMARK    2  A    between atoms: C_3  and  C_4
REMARK    3  A    between atoms: C_4  and  O_5
REMARK    4  A    between atoms: O_5  and  C_6
REMARK    5  A    between atoms: C_9  and  C_12
REMARK    6  A    between atoms: C_15  and  C_17
REMARK    7  A    between atoms: N_21  and  C_22
REMARK    8  A    between atoms: C_22  and  C_23
REMARK    9  A    between atoms: C_26  and  N_29
REMARK                            x       y       z     vdW  Elec       q    Type
REMARK                         _______ _______ _______ _____ _____    ______ ____
ROOT
ATOM     12  C   UNL     1      -2.076   2.594  25.156  0.00  0.00    +0.205 A 
ATOM     13  N   UNL     1      -2.310   3.066  24.520  0.00  0.00    -0.056 NA
ATOM     14  O   UNL     1      -3.077   2.847  24.309  0.00  0.00    -0.336 OA
ATOM     15  C   UNL     1      -3.318   2.241  24.814  0.00  0.00    +0.251 A 
ATOM     16  N   UNL     1      -2.699   2.085  25.337  0.00  0.00    -0.190 NA
ENDROOT
BRANCH  12   9
ATOM      6  C   UNL     1       0.109   2.692  26.314  0.00  0.00    +0.225 A 
ATOM      7  C   UNL     1      -0.221   1.963  26.116  0.00  0.00    +0.058 A 
ATOM      8  C   UNL     1      -0.949   1.930  25.730  0.00  0.00    +0.010 A 
ATOM      9  C   UNL     1      -1.348   2.627  25.542  0.00  0.00    +0.058 A 
ATOM     10  C   UNL     1      -1.019   3.357  25.740  0.00  0.00    +0.105 A 
ATOM     11  N   UNL     1      -0.291   3.390  26.126  0.00  0.00    -0.210 NA
BRANCH   6   5
ATOM      5  O   UNL     1       0.837   2.725  26.701  0.00  0.00    -0.457 OA
BRANCH   5   4
ATOM      4  C   UNL     1       0.868   2.695  27.525  0.00  0.00    +0.239 C 
BRANCH   4   3
ATOM      3  C   UNL     1       1.596   2.741  27.911  0.00  0.00    +0.189 C 
BRANCH   3   2
ATOM      1  C   UNL     1       2.328   2.764  29.138  0.00  0.00    +0.174 C 
ATOM      2  O   UNL     1       1.648   2.565  28.715  0.00  0.00    -0.347 OA
ENDBRANCH   3   2
ENDBRANCH   4   3
ENDBRANCH   5   4
ENDBRANCH   6   5
ENDBRANCH  12   9
BRANCH  15  17
ATOM     17  C   UNL     1      -4.048   1.858  24.799  0.00  0.00    +0.138 C 
ATOM     18  C   UNL     1      -4.755   2.151  25.107  0.00  0.00    +0.027 C 
ATOM     19  C   UNL     1      -5.344   1.589  24.972  0.00  0.00    +0.019 C 
ATOM     20  C   UNL     1      -5.001   0.949  24.580  0.00  0.00    +0.073 C 
ATOM     21  N   UNL     1      -4.199   1.115  24.473  0.00  0.00    -0.263 NA
BRANCH  21  22
ATOM     22  C   UNL     1      -3.648   0.625  24.105  0.00  0.00    +0.099 C 
BRANCH  22  23
ATOM     23  C   UNL     1      -3.703  -0.193  24.188  0.00  0.00    -0.006 A 
ATOM     24  C   UNL     1      -4.034  -0.648  23.584  0.00  0.00    -0.002 A 
ATOM     25  C   UNL     1      -4.089  -1.467  23.667  0.00  0.00    +0.014 A 
ATOM     26  C   UNL     1      -3.813  -1.831  24.354  0.00  0.00    +0.048 A 
ATOM     27  C   UNL     1      -3.482  -1.377  24.958  0.00  0.00    +0.014 A 
ATOM     28  C   UNL     1      -3.427  -0.558  24.875  0.00  0.00    -0.002 A 
BRANCH  26  29
ATOM     29  N   UNL     1      -3.868  -2.651  24.437  0.00  0.00    -0.304 N 
ATOM     30  C   UNL     1      -3.442  -3.034  25.030  0.00  0.00    +0.112 C 
ATOM     31  C   UNL     1      -4.349  -3.086  23.926  0.00  0.00    +0.112 C 
ENDBRANCH  26  29
ENDBRANCH  22  23
ENDBRANCH  21  22
ENDBRANCH  15  17
TORSDOF 9
ENDMDL
MODEL 6
REMARK VINA RESULT:      -6.9      1.672      2.877
REMARK  Name = 
REMARK  9 active torsions:
REMARK  status: ('A' for Active; 'I' for Inactive)
REMARK    1  A    between atoms: O_2  and  C_3
REMARK    2  A    between atoms: C_3  and  C_4
REMARK    3  A    between atoms: C_4  and  O_5
REMARK    4  A    between atoms: O_5  and  C_6
REMARK    5  A    between atoms: C_9  and  C_12
REMARK    6  A    between atoms: C_15  and  C_17
REMARK    7  A    between atoms: N_21  and  C_22
REMARK    8  A    between atoms: C_22  and  C_23
REMARK    9  A    between atoms: C_26  and  N_29
REMARK                            x       y       z     vdW  Elec       q    Type
REMARK                         _______ _______ _______ _____ _____    ______ ____
ROOT
ATOM     12  C   UNL     1       0.004   1.273  24.024  0.00  0.00    +0.205 A 
ATOM     13  N   UNL     1      -0.092   1.634  24.760  0.00  0.00    -0.056 NA
ATOM     14  O   UNL     1      -0.900   1.754  24.881  0.00  0.00    -0.336 OA
ATOM     15  C   UNL     1      -1.302   1.467  24.220  0.00  0.00    +0.251 A 
ATOM     16  N   UNL     1      -0.744   1.170  23.691  0.00  0.00    -0.190 NA
ENDROOT
BRANCH  12   9
ATOM      6  C   UNL     1       2.158   0.614  22.998  0.00  0.00    +0.225 A 
ATOM      7  C   UNL     1       1.508   0.108  22.955  0.00  0.00    +0.058 A 
ATOM      8  C   UNL     1       0.790   0.327  23.297  0.00  0.00    +0.010 A 
ATOM      9  C   UNL     1       0.722   1.053  23.682  0.00  0.00    +0.058 A 
ATOM     10  C   UNL     1       1.371   1.560  23.726  0.00  0.00    +0.105 A 
ATOM     11  N   UNL     1       2.089   1.340  23.384  0.00  0.00    -0.210 NA
BRANCH   6   5
ATOM      5  O   UNL     1       2.876   0.394  22.656  0.00  0.00    -0.457 OA
BRANCH   5   4
ATOM      4  C   UNL     1       3.586   0.612  23.014  0.00  0.00    +0.239 C 
BRANCH   4   3
ATOM      3  C   UNL     1       4.293   0.262  22.774  0.00  0.00    +0.189 C 
BRANCH   3   2
ATOM      1  C   UNL     1       5.505  -0.023  23.475  0.00  0.00    +0.174 C 
ATOM      2  O   UNL     1       5.010   0.515  23.094  0.00  0.00    -0.347 OA
ENDBRANCH   3   2
ENDBRANCH   4   3
ENDBRANCH   5   4
ENDBRANCH   6   5
ENDBRANCH  12   9
BRANCH  15  17
ATOM     17  C   UNL     1      -2.119   1.477  24.108  0.00  0.00    +0.138 C 
ATOM     18  C   UNL     1      -2.540   2.017  23.647  0.00  0.00    +0.027 C 
ATOM     19  C   UNL     1      -3.340   1.822  23.691  0.00  0.00    +0.019 C 
ATOM     20  C   UNL     1      -3.415   1.161  24.180  0.00  0.00    +0.073 C 
ATOM     21  N   UNL     1      -2.660   0.947  24.438  0.00  0.00    -0.263 NA
BRANCH  21  22
ATOM     22  C   UNL     1      -2.479   0.316  24.937  0.00  0.00    +0.099 C 
BRANCH  22  23
ATOM     23  C   UNL     1      -2.820  -0.423  24.808  0.00  0.00    -0.006 A 
ATOM     24  C   UNL     1      -3.607  -0.556  25.015  0.00  0.00    -0.002 A 
ATOM     25  C   UNL     1      -3.949  -1.296  24.885  0.00  0.00    +0.014 A 
ATOM     26  C   UNL     1      -3.502  -1.903  24.549  0.00  0.00    +0.048 A 
ATOM     27  C   UNL     1      -2.715  -1.770  24.342  0.00  0.00    +0.014 A 
ATOM     28  C   UNL     1      -2.374  -1.030  24.471  0.00  0.00    -0.002 A 
BRANCH  26  29
ATOM     29  N   UNL     1      -3.844  -2.643  24.420  0.00  0.00    -0.304 N 
ATOM     30  C   UNL     1      -3.620  -3.287  24.884  0.00  0.00    +0.112 C 
ATOM     31  C   UNL     1      -4.410  -2.739  23.826  0.00  0.00    +0.112 C 
ENDBRANCH  26  29
ENDBRANCH  22  23
ENDBRANCH  21  22
ENDBRANCH  15  17
TORSDOF 9
ENDMDL
MODEL 7
REMARK VINA RESULT:      -6.6      2.472      5.545
REMARK  Name = 
REMARK  9 active torsions:
REMARK  status: ('A' for Active; 'I' for Inactive)
REMARK    1  A    between atoms: O_2  and  C_3
REMARK    2  A    between atoms: C_3  and  C_4
REMARK    3  A    between atoms: C_4  and  O_5
REMARK    4  A    between atoms: O_5  and  C_6
REMARK    5  A    between atoms: C_9  and  C_12
REMARK    6  A    between atoms: C_15  and  C_17
REMARK    7  A    between atoms: N_21  and  C_22
REMARK    8  A    between atoms: C_22  and  C_23
REMARK    9  A    between atoms: C_26  and  N_29
REMARK                            x       y       z     vdW  Elec       q    Type
REMARK                         _______ _______ _______ _____ _____    ______ ____
ROOT
ATOM     12  C   UNL     1      -0.972   2.371  24.805  0.00  0.00    +0.205 A 
ATOM     13  N   UNL     1      -0.197   2.527  25.043  0.00  0.00    -0.056 NA
ATOM     14  O   UNL     1       0.282   1.912  24.772  0.00  0.00    -0.336 OA
ATOM     15  C   UNL     1      -0.197   1.376  24.367  0.00  0.00    +0.251 A 
ATOM     16  N   UNL     1      -0.972   1.660  24.387  0.00  0.00    -0.190 NA
ENDROOT
BRANCH  12   9
ATOM      6  C   UNL     1      -2.948   3.789  25.263  0.00  0.00    +0.225 A 
ATOM      7  C   UNL     1      -2.373   3.682  25.845  0.00  0.00    +0.058 A 
ATOM      8  C   UNL     1      -1.714   3.209  25.692  0.00  0.00    +0.010 A 
ATOM      9  C   UNL     1      -1.631   2.844  24.958  0.00  0.00    +0.058 A 
ATOM     10  C   UNL     1      -2.206   2.950  24.375  0.00  0.00    +0.105 A 
ATOM     11  N   UNL     1      -2.865   3.422  24.528  0.00  0.00    -0.210 NA
BRANCH   6   5
ATOM      5  O   UNL     1      -3.607   4.261  25.416  0.00  0.00    -0.457 OA
BRANCH   5   4
ATOM      4  C   UNL     1      -4.299   3.921  25.711  0.00  0.00    +0.239 C 
BRANCH   4   3
ATOM      3  C   UNL     1      -5.034   4.196  25.456  0.00  0.00    +0.189 C 
BRANCH   3   2
ATOM      1  C   UNL     1      -6.041   3.207  25.679  0.00  0.00    +0.174 C 
ATOM      2  O   UNL     1      -5.722   3.950  25.840  0.00  0.00    -0.347 OA
ENDBRANCH   3   2
ENDBRANCH   4   3
ENDBRANCH   5   4
ENDBRANCH   6   5
ENDBRANCH  12   9
BRANCH  15  17
ATOM     17  C   UNL     1       0.055   0.679  24.005  0.00  0.00    +0.138 C 
ATOM     18  C   UNL     1       0.553   0.625  23.350  0.00  0.00    +0.027 C 
ATOM     19  C   UNL     1       0.658  -0.174  23.174  0.00  0.00    +0.019 C 
ATOM     20  C   UNL     1       0.225  -0.615  23.721  0.00  0.00    +0.073 C 
ATOM     21  N   UNL     1      -0.148  -0.087  24.235  0.00  0.00    -0.263 NA
BRANCH  21  22
ATOM     22  C   UNL     1      -0.637  -0.291  24.867  0.00  0.00    +0.099 C 
BRANCH  22  23
ATOM     23  C   UNL     1      -1.186  -0.900  24.784  0.00  0.00    -0.006 A 
ATOM     24  C   UNL     1      -0.956  -1.683  24.908  0.00  0.00    -0.002 A 
ATOM     25  C   UNL     1      -1.506  -2.293  24.825  0.00  0.00    +0.014 A 
ATOM     26  C   UNL     1      -2.286  -2.120  24.618  0.00  0.00    +0.048 A 
ATOM     27  C   UNL     1      -2.516  -1.338  24.494  0.00  0.00    +0.014 A 
ATOM     28  C   UNL     1      -1.967  -0.728  24.577  0.00  0.00    -0.002 A 
BRANCH  26  29
ATOM     29  N   UNL     1      -2.835  -2.730  24.535  0.00  0.00    -0.304 N 
ATOM     30  C   UNL     1      -3.495  -2.761  25.030  0.00  0.00    +0.112 C 
ATOM     31  C   UNL     1      -2.724  -3.309  23.957  0.00  0.00    +0.112 C 
ENDBRANCH  26  29
ENDBRANCH  22  23
ENDBRANCH  21  22
ENDBRANCH  15  17
TORSDOF 9
ENDMDL
MODEL 8
REMARK VINA RESULT:      -6.4      1.839      6.281
REMARK  Name = 
REMARK  9 active torsions:
REMARK  status: ('A' for Active; 'I' for Inactive)
REMARK    1  A    between atoms: O_2  and  C_3
REMARK    2  A    between atoms: C_3  and  C_4
REMARK    3  A    between atoms: C_4  and  O_5
REMARK    4  A    between atoms: O_5  and  C_6
REMARK    5  A    between atoms: C_9  and  C_12
REMARK    6  A    between atoms: C_15  and  C_17
REMARK    7  A    between atoms: N_21  and  C_22
REMARK    8  A    between atoms: C_22  and  C_23
REMARK    9  A    between atoms: C_26  and  N_29
REMARK                            x       y       z     vdW  Elec       q    Type
REMARK                         _______ _______ _______ _____ _____    ______ ____
ROOT
ATOM     12  C   UNL     1      -3.322   0.005  24.466  0.00  0.00    +0.205 A 
ATOM     13  N   UNL     1      -3.383  -0.629  23.940  0.00  0.00    -0.056 NA
ATOM     14  O   UNL     1      -2.692  -1.076  23.998  0.00  0.00    -0.336 OA
ATOM     15  C   UNL     1      -2.204  -0.719  24.559  0.00  0.00    +0.251 A 
ATOM     16  N   UNL     1      -2.593  -0.051  24.848  0.00  0.00    -0.190 NA
ENDROOT
BRANCH  12   9
ATOM      6  C   UNL     1      -5.027   1.761  24.832  0.00  0.00    +0.225 A 
ATOM      7  C   UNL     1      -5.088   1.038  25.224  0.00  0.00    +0.058 A 
ATOM      8  C   UNL     1      -4.520   0.453  25.102  0.00  0.00    +0.010 A 
ATOM      9  C   UNL     1      -3.890   0.590  24.588  0.00  0.00    +0.058 A 
ATOM     10  C   UNL     1      -3.828   1.313  24.195  0.00  0.00    +0.105 A 
ATOM     11  N   UNL     1      -4.396   1.899  24.317  0.00  0.00    -0.210 NA
BRANCH   6   5
ATOM      5  O   UNL     1      -5.595   2.347  24.953  0.00  0.00    -0.457 OA
BRANCH   5   4
ATOM      4  C   UNL     1      -5.394   3.039  25.355  0.00  0.00    +0.239 C 
BRANCH   4   3
ATOM      3  C   UNL     1      -5.981   3.580  25.563  0.00  0.00    +0.189 C 
BRANCH   3   2
ATOM      1  C   UNL     1      -5.936   5.007  25.512  0.00  0.00    +0.174 C 
ATOM      2  O   UNL     1      -5.775   4.301  25.907  0.00  0.00    -0.347 OA
ENDBRANCH   3   2
ENDBRANCH   4   3
ENDBRANCH   5   4
ENDBRANCH   6   5
ENDBRANCH  12   9
BRANCH  15  17
ATOM     17  C   UNL     1      -1.457  -0.982  24.791  0.00  0.00    +0.138 C 
ATOM     18  C   UNL     1      -1.301  -1.555  25.364  0.00  0.00    +0.027 C 
ATOM     19  C   UNL     1      -0.484  -1.646  25.418  0.00  0.00    +0.019 C 
ATOM     20  C   UNL     1      -0.133  -1.131  24.877  0.00  0.00    +0.073 C 
ATOM     21  N   UNL     1      -0.735  -0.720  24.489  0.00  0.00    -0.263 NA
BRANCH  21  22
ATOM     22  C   UNL     1      -0.633  -0.148  23.904  0.00  0.00    +0.099 C 
BRANCH  22  23
ATOM     23  C   UNL     1       0.118  -0.005  23.594  0.00  0.00    -0.006 A 
ATOM     24  C   UNL     1       0.408  -0.475  22.981  0.00  0.00    -0.002 A 
ATOM     25  C   UNL     1       1.159  -0.331  22.671  0.00  0.00    +0.014 A 
ATOM     26  C   UNL     1       1.620   0.282  22.974  0.00  0.00    +0.048 A 
ATOM     27  C   UNL     1       1.330   0.752  23.587  0.00  0.00    +0.014 A 
ATOM     28  C   UNL     1       0.579   0.609  23.897  0.00  0.00    -0.002 A 
BRANCH  26  29
ATOM     29  N   UNL     1       2.371   0.426  22.663  0.00  0.00    -0.304 N 
ATOM     30  C   UNL     1       2.836   1.033  22.974  0.00  0.00    +0.112 C 
ATOM     31  C   UNL     1       2.657  -0.038  22.043  0.00  0.00    +0.112 C 
ENDBRANCH  26  29
ENDBRANCH  22  23
ENDBRANCH  21  22
ENDBRANCH  15  17
TORSDOF 9
ENDMDL
