MODEL 1
REMARK VINA RESULT:     -12.3      0.000      0.000
REMARK  Name = 
REMARK  5 active torsions:
REMARK  status: ('A' for Active; 'I' for Inactive)
REMARK    1  A    between atoms: C_4  and  C_15
REMARK    2  A    between atoms: N_5  and  C_6
REMARK    3  A    between atoms: C_6  and  C_7
REMARK    4  A    between atoms: C_17  and  C_18
REMARK    5  A    between atoms: C_18  and  C_19
REMARK                            x       y       z     vdW  Elec       q    Type
REMARK                         _______ _______ _______ _____ _____    ______ ____
ROOT
ATOM      1  O   UNL     1      -6.572   1.715  25.160  0.00  0.00    -0.222 OA
ATOM      2  C   UNL     1      -5.762   1.757  25.009  0.00  0.00    +0.170 C 
ATOM      3  C   UNL     1      -5.309   2.447  24.982  0.00  0.00    +0.060 C 
ATOM      4  C   UNL     1      -4.530   2.234  24.815  0.00  0.00    +0.140 C 
ATOM      5  N   UNL     1      -4.501   1.413  24.739  0.00  0.00    -0.260 NA
ATOM     14  C   UNL     1      -5.262   1.119  24.859  0.00  0.00    +0.106 C 
ENDROOT
BRANCH   4  15
ATOM     15  C   UNL     1      -3.892   2.751  24.737  0.00  0.00    +0.251 A 
ATOM     16  N   UNL     1      -3.388   2.994  25.344  0.00  0.00    -0.193 NA
ATOM     17  C   UNL     1      -2.831   3.510  25.020  0.00  0.00    +0.185 A 
ATOM     25  N   UNL     1      -2.990   3.585  24.214  0.00  0.00    -0.060 NA
ATOM     26  O   UNL     1      -3.645   3.116  24.039  0.00  0.00    -0.336 OA
BRANCH  17  18
ATOM     18  C   UNL     1      -2.221   3.884  25.431  0.00  0.00    +0.095 C 
BRANCH  18  19
ATOM     19  C   UNL     1      -1.478   3.529  25.482  0.00  0.00    -0.014 A 
ATOM     20  C   UNL     1      -1.302   3.030  26.114  0.00  0.00    -0.004 A 
ATOM     21  C   UNL     1      -0.559   2.675  26.164  0.00  0.00    -0.000 A 
ATOM     22  C   UNL     1       0.007   2.819  25.582  0.00  0.00    -0.000 A 
ATOM     23  C   UNL     1      -0.170   3.319  24.949  0.00  0.00    -0.000 A 
ATOM     24  C   UNL     1      -0.912   3.673  24.899  0.00  0.00    -0.004 A 
ENDBRANCH  18  19
ENDBRANCH  17  18
ENDBRANCH   4  15
BRANCH   5   6
ATOM      6  C   UNL     1      -3.829   0.965  24.572  0.00  0.00    +0.100 C 
BRANCH   6   7
ATOM      7  C   UNL     1      -3.856   0.142  24.631  0.00  0.00    -0.006 A 
ATOM      8  C   UNL     1      -4.065  -0.313  23.976  0.00  0.00    -0.001 A 
ATOM      9  C   UNL     1      -4.091  -1.135  24.036  0.00  0.00    +0.029 A 
ATOM     10  C   UNL     1      -3.909  -1.503  24.752  0.00  0.00    +0.140 A 
ATOM     11  F   UNL     1      -3.936  -2.325  24.811  0.00  0.00    -0.204 F 
ATOM     12  C   UNL     1      -3.700  -1.048  25.407  0.00  0.00    +0.029 A 
ATOM     13  C   UNL     1      -3.673  -0.225  25.347  0.00  0.00    -0.001 A 
ENDBRANCH   6   7
ENDBRANCH   5   6
TORSDOF 5
ENDMDL
MODEL 2
REMARK VINA RESULT:     -12.1      2.487      5.016
REMARK  Name = 
REMARK  5 active torsions:
REMARK  status: ('A' for Active; 'I' for Inactive)
REMARK    1  A    between atoms: C_4  and  C_15
REMARK    2  A    between atoms: N_5  and  C_6
REMARK    3  A    between atoms: C_6  and  C_7
REMARK    4  A    between atoms: C_17  and  C_18
REMARK    5  A    between atoms: C_18  and  C_19
REMARK                            x       y       z     vdW  Elec       q    Type
REMARK                         _______ _______ _______ _____ _____    ______ ____
ROOT
ATOM      1  O   UNL     1      -2.528   2.434  21.992  0.00  0.00    -0.222 OA
ATOM      2  C   UNL     1      -2.460   2.198  22.780  0.00  0.00    +0.170 C 
ATOM      3  C   UNL     1      -2.567   1.432  23.068  0.00  0.00    +0.060 C 
ATOM      4  C   UNL     1      -2.447   1.448  23.885  0.00  0.00    +0.140 C 
ATOM      5  N   UNL     1      -2.266   2.224  24.101  0.00  0.00    -0.260 NA
ATOM     14  C   UNL     1      -2.274   2.687  23.418  0.00  0.00    +0.106 C 
ENDROOT
BRANCH   4  15
ATOM     15  C   UNL     1      -2.499   0.802  24.395  0.00  0.00    +0.251 A 
ATOM     16  N   UNL     1      -3.178   0.360  24.550  0.00  0.00    -0.193 NA
ATOM     17  C   UNL     1      -2.978  -0.231  25.090  0.00  0.00    +0.185 A 
ATOM     25  N   UNL     1      -2.177  -0.153  25.270  0.00  0.00    -0.060 NA
ATOM     26  O   UNL     1      -1.881   0.485  24.840  0.00  0.00    -0.336 OA
BRANCH  17  18
ATOM     18  C   UNL     1      -3.491  -0.799  25.398  0.00  0.00    +0.095 C 
BRANCH  18  19
ATOM     19  C   UNL     1      -3.612  -1.508  24.994  0.00  0.00    -0.014 A 
ATOM     20  C   UNL     1      -4.157  -1.543  24.377  0.00  0.00    -0.004 A 
ATOM     21  C   UNL     1      -4.278  -2.252  23.972  0.00  0.00    -0.000 A 
ATOM     22  C   UNL     1      -3.853  -2.926  24.186  0.00  0.00    -0.000 A 
ATOM     23  C   UNL     1      -3.307  -2.891  24.804  0.00  0.00    -0.000 A 
ATOM     24  C   UNL     1      -3.187  -2.182  25.207  0.00  0.00    -0.004 A 
ENDBRANCH  18  19
ENDBRANCH  17  18
ENDBRANCH   4  15
BRANCH   5   6
ATOM      6  C   UNL     1      -2.105   2.489  24.865  0.00  0.00    +0.100 C 
BRANCH   6   7
ATOM      7  C   UNL     1      -1.907   3.280  24.994  0.00  0.00    -0.006 A 
ATOM      8  C   UNL     1      -1.127   3.531  24.901  0.00  0.00    -0.001 A 
ATOM      9  C   UNL     1      -0.929   4.321  25.030  0.00  0.00    +0.029 A 
ATOM     10  C   UNL     1      -1.512   4.861  25.253  0.00  0.00    +0.140 A 
ATOM     11  F   UNL     1      -1.314   5.651  25.382  0.00  0.00    -0.204 F 
ATOM     12  C   UNL     1      -2.292   4.610  25.346  0.00  0.00    +0.029 A 
ATOM     13  C   UNL     1      -2.490   3.820  25.217  0.00  0.00    -0.001 A 
ENDBRANCH   6   7
ENDBRANCH   5   6
TORSDOF 5
ENDMDL
MODEL 3
REMARK VINA RESULT:     -11.8      1.892      3.402
REMARK  Name = 
REMARK  5 active torsions:
REMARK  status: ('A' for Active; 'I' for Inactive)
REMARK    1  A    between atoms: C_4  and  C_15
REMARK    2  A    between atoms: N_5  and  C_6
REMARK    3  A    between atoms: C_6  and  C_7
REMARK    4  A    between atoms: C_17  and  C_18
REMARK    5  A    between atoms: C_18  and  C_19
REMARK                            x       y       z     vdW  Elec       q    Type
REMARK                         _______ _______ _______ _____ _____    ______ ____
ROOT
ATOM      1  O   UNL     1       0.000  -0.585  23.892  0.00  0.00    -0.222 OA
ATOM      2  C   UNL     1      -0.695  -0.265  24.199  0.00  0.00    +0.170 C 
ATOM      3  C   UNL     1      -0.864   0.538  24.282  0.00  0.00    +0.060 C 
ATOM      4  C   UNL     1      -1.617   0.608  24.613  0.00  0.00    +0.140 C 
ATOM      5  N   UNL     1      -1.913  -0.152  24.734  0.00  0.00    -0.260 NA
ATOM     14  C   UNL     1      -1.343  -0.692  24.479  0.00  0.00    +0.106 C 
ENDROOT
BRANCH   4  15
ATOM     15  C   UNL     1      -2.005   1.314  24.790  0.00  0.00    +0.251 A 
ATOM     16  N   UNL     1      -2.616   1.655  24.353  0.00  0.00    -0.193 NA
ATOM     17  C   UNL     1      -2.838   2.355  24.730  0.00  0.00    +0.185 A 
ATOM     25  N   UNL     1      -2.366   2.446  25.399  0.00  0.00    -0.060 NA
ATOM     26  O   UNL     1      -1.851   1.802  25.437  0.00  0.00    -0.336 OA
BRANCH  17  18
ATOM     18  C   UNL     1      -3.430   2.873  24.479  0.00  0.00    +0.095 C 
BRANCH  18  19
ATOM     19  C   UNL     1      -4.190   2.813  24.793  0.00  0.00    -0.014 A 
ATOM     20  C   UNL     1      -4.397   3.252  25.460  0.00  0.00    -0.004 A 
ATOM     21  C   UNL     1      -5.157   3.192  25.774  0.00  0.00    -0.000 A 
ATOM     22  C   UNL     1      -5.711   2.693  25.421  0.00  0.00    -0.000 A 
ATOM     23  C   UNL     1      -5.504   2.254  24.753  0.00  0.00    -0.000 A 
ATOM     24  C   UNL     1      -4.744   2.314  24.440  0.00  0.00    -0.004 A 
ENDBRANCH  18  19
ENDBRANCH  17  18
ENDBRANCH   4  15
BRANCH   5   6
ATOM      6  C   UNL     1      -2.650  -0.341  25.054  0.00  0.00    +0.100 C 
BRANCH   6   7
ATOM      7  C   UNL     1      -2.999  -1.070  24.888  0.00  0.00    -0.006 A 
ATOM      8  C   UNL     1      -3.488  -1.153  24.229  0.00  0.00    -0.001 A 
ATOM      9  C   UNL     1      -3.837  -1.881  24.063  0.00  0.00    +0.029 A 
ATOM     10  C   UNL     1      -3.696  -2.528  24.555  0.00  0.00    +0.140 A 
ATOM     11  F   UNL     1      -4.044  -3.257  24.389  0.00  0.00    -0.204 F 
ATOM     12  C   UNL     1      -3.206  -2.446  25.214  0.00  0.00    +0.029 A 
ATOM     13  C   UNL     1      -2.857  -1.716  25.381  0.00  0.00    -0.001 A 
ENDBRANCH   6   7
ENDBRANCH   5   6
TORSDOF 5
ENDMDL
MODEL 4
REMARK VINA RESULT:     -11.7      1.957      4.277
REMARK  Name = 
REMARK  5 active torsions:
REMARK  status: ('A' for Active; 'I' for Inactive)
REMARK    1  A    between atoms: C_4  and  C_15
REMARK    2  A    between atoms: N_5  and  C_6
REMARK    3  A    between atoms: C_6  and  C_7
REMARK    4  A    between atoms: C_17  and  C_18
REMARK    5  A    between atoms: C_18  and  C_19
REMARK                            x       y       z     vdW  Elec       q    Type
REMARK                         _______ _______ _______ _____ _____    ______ ____
ROOT
ATOM      1  O   UNL     1      -5.853   3.575  25.741  0.00  0.00    -0.222 OA
ATOM      2  C   UNL     1      -5.256   3.058  25.503  0.00  0.00    +0.170 C 
ATOM      3  C   UNL     1      -5.345   2.251  25.352  0.00  0.00    +0.060 C 
ATOM      4  C   UNL     1      -4.609   1.951  25.129  0.00  0.00    +0.140 C 
ATOM      5  N   UNL     1      -4.066   2.572  25.142  0.00  0.00    -0.260 NA
ATOM     14  C   UNL     1      -4.466   3.256  25.373  0.00  0.00    +0.106 C 
ENDROOT
BRANCH   4  15
ATOM     15  C   UNL     1      -4.445   1.168  24.928  0.00  0.00    +0.251 A 
ATOM     16  N   UNL     1      -4.333   0.545  25.458  0.00  0.00    -0.193 NA
ATOM     17  C   UNL     1      -4.184  -0.137  25.018  0.00  0.00    +0.185 A 
ATOM     25  N   UNL     1      -4.203   0.064  24.219  0.00  0.00    -0.060 NA
ATOM     26  O   UNL     1      -4.365   0.870  24.163  0.00  0.00    -0.336 OA
BRANCH  17  18
ATOM     18  C   UNL     1      -4.040  -0.889  25.326  0.00  0.00    +0.095 C 
BRANCH  18  19
ATOM     19  C   UNL     1      -3.357  -1.300  25.111  0.00  0.00    -0.014 A 
ATOM     20  C   UNL     1      -2.628  -1.079  25.424  0.00  0.00    -0.004 A 
ATOM     21  C   UNL     1      -1.945  -1.489  25.208  0.00  0.00    -0.000 A 
ATOM     22  C   UNL     1      -1.993  -2.121  24.680  0.00  0.00    -0.000 A 
ATOM     23  C   UNL     1      -2.724  -2.342  24.367  0.00  0.00    -0.000 A 
ATOM     24  C   UNL     1      -3.406  -1.931  24.583  0.00  0.00    -0.004 A 
ENDBRANCH  18  19
ENDBRANCH  17  18
ENDBRANCH   4  15
BRANCH   5   6
ATOM      6  C   UNL     1      -3.264   2.519  24.958  0.00  0.00    +0.100 C 
BRANCH   6   7
ATOM      7  C   UNL     1      -2.767   3.167  25.084  0.00  0.00    -0.006 A 
ATOM      8  C   UNL     1      -2.351   3.236  25.792  0.00  0.00    -0.001 A 
ATOM      9  C   UNL     1      -1.855   3.882  25.918  0.00  0.00    +0.029 A 
ATOM     10  C   UNL     1      -1.774   4.461  25.334  0.00  0.00    +0.140 A 
ATOM     11  F   UNL     1      -1.278   5.107  25.460  0.00  0.00    -0.204 F 
ATOM     12  C   UNL     1      -2.190   4.391  24.626  0.00  0.00    +0.029 A 
ATOM     13  C   UNL     1      -2.687   3.744  24.500  0.00  0.00    -0.001 A 
ENDBRANCH   6   7
ENDBRANCH   5   6
TORSDOF 5
ENDMDL
