MODEL 1
REMARK VINA RESULT:     -11.4      0.000      0.000
REMARK  Name = 
REMARK  3 active torsions:
REMARK  status: ('A' for Active; 'I' for Inactive)
REMARK    1  A    between atoms: N_6  and  C_7
REMARK    2  A    between atoms: C_7  and  C_8
REMARK    3  A    between atoms: C_11  and  C_14
REMARK                            x       y       z     vdW  Elec       q    Type
REMARK                         _______ _______ _______ _____ _____    ______ ____
ROOT
ATOM      1  C   UNL     1      -5.502   3.715  25.700  0.00  0.00    +0.117 C 
ATOM      2  N   UNL     1      -4.965   3.178  25.377  0.00  0.00    -0.261 N 
ATOM      3  C   UNL     1      -5.155   2.517  24.922  0.00  0.00    +0.116 C 
ATOM      4  C   UNL     1      -4.452   2.139  24.717  0.00  0.00    +0.113 C 
ATOM      5  C   UNL     1      -4.299   1.460  24.273  0.00  0.00    +0.094 C 
ATOM      6  N   UNL     1      -3.522   1.209  24.158  0.00  0.00    -0.266 NA
ATOM     18  C   UNL     1      -2.897   1.636  24.486  0.00  0.00    +0.094 C 
ATOM     19  C   UNL     1      -3.049   2.315  24.930  0.00  0.00    +0.112 C 
ATOM     20  N   UNL     1      -3.827   2.566  25.045  0.00  0.00    -0.261 N 
ATOM     21  C   UNL     1      -4.145   3.208  25.453  0.00  0.00    +0.307 C 
ATOM     22  O   UNL     1      -3.716   3.781  25.865  0.00  0.00    -0.252 OA
ENDROOT
BRANCH   6   7
ATOM      7  C   UNL     1      -3.368   0.530  23.714  0.00  0.00    +0.099 C 
BRANCH   7   8
ATOM      8  C   UNL     1      -3.410  -0.213  24.069  0.00  0.00    -0.006 A 
ATOM      9  C   UNL     1      -4.069  -0.694  23.945  0.00  0.00    -0.003 A 
ATOM     10  C   UNL     1      -4.111  -1.437  24.299  0.00  0.00    +0.004 A 
ATOM     11  C   UNL     1      -3.493  -1.700  24.778  0.00  0.00    +0.071 A 
ATOM     12  C   UNL     1      -2.834  -1.221  24.903  0.00  0.00    +0.004 A 
ATOM     13  C   UNL     1      -2.792  -0.476  24.548  0.00  0.00    -0.003 A 
BRANCH  11  14
ATOM     14  C   UNL     1      -3.534  -2.445  25.134  0.00  0.00    +0.419 C 
ATOM     15  F   UNL     1      -3.575  -3.188  25.489  0.00  0.00    -0.166 F 
ATOM     16  F   UNL     1      -3.442  -2.801  24.396  0.00  0.00    -0.166 F 
ATOM     17  F   UNL     1      -3.627  -2.087  25.871  0.00  0.00    -0.166 F 
ENDBRANCH  11  14
ENDBRANCH   7   8
ENDBRANCH   6   7
TORSDOF 3
ENDMDL
MODEL 2
REMARK VINA RESULT:     -11.4      0.545      1.099
REMARK  Name = 
REMARK  3 active torsions:
REMARK  status: ('A' for Active; 'I' for Inactive)
REMARK    1  A    between atoms: N_6  and  C_7
REMARK    2  A    between atoms: C_7  and  C_8
REMARK    3  A    between atoms: C_11  and  C_14
REMARK                            x       y       z     vdW  Elec       q    Type
REMARK                         _______ _______ _______ _____ _____    ______ ____
ROOT
ATOM      1  C   UNL     1      -2.867   4.209  26.041  0.00  0.00    +0.117 C 
ATOM      2  N   UNL     1      -3.135   3.548  25.627  0.00  0.00    -0.261 N 
ATOM      3  C   UNL     1      -2.661   2.996  25.236  0.00  0.00    +0.116 C 
ATOM      4  C   UNL     1      -3.156   2.430  24.898  0.00  0.00    +0.113 C 
ATOM      5  C   UNL     1      -2.999   1.757  24.448  0.00  0.00    +0.094 C 
ATOM      6  N   UNL     1      -3.619   1.285  24.180  0.00  0.00    -0.266 NA
ATOM     18  C   UNL     1      -4.398   1.485  24.362  0.00  0.00    +0.094 C 
ATOM     19  C   UNL     1      -4.557   2.158  24.812  0.00  0.00    +0.112 C 
ATOM     20  N   UNL     1      -3.935   2.631  25.080  0.00  0.00    -0.261 N 
ATOM     21  C   UNL     1      -3.922   3.321  25.530  0.00  0.00    +0.307 C 
ATOM     22  O   UNL     1      -4.581   3.717  25.831  0.00  0.00    -0.252 OA
ENDROOT
BRANCH   6   7
ATOM      7  C   UNL     1      -3.462   0.611  23.730  0.00  0.00    +0.099 C 
BRANCH   7   8
ATOM      8  C   UNL     1      -3.483  -0.134  24.081  0.00  0.00    -0.006 A 
ATOM      9  C   UNL     1      -4.160  -0.603  24.016  0.00  0.00    -0.003 A 
ATOM     10  C   UNL     1      -4.181  -1.348  24.366  0.00  0.00    +0.004 A 
ATOM     11  C   UNL     1      -3.526  -1.627  24.783  0.00  0.00    +0.071 A 
ATOM     12  C   UNL     1      -2.849  -1.160  24.849  0.00  0.00    +0.004 A 
ATOM     13  C   UNL     1      -2.828  -0.413  24.497  0.00  0.00    -0.003 A 
BRANCH  11  14
ATOM     14  C   UNL     1      -3.547  -2.374  25.135  0.00  0.00    +0.419 C 
ATOM     15  F   UNL     1      -3.568  -3.119  25.486  0.00  0.00    -0.166 F 
ATOM     16  F   UNL     1      -3.514  -2.725  24.389  0.00  0.00    -0.166 F 
ATOM     17  F   UNL     1      -3.581  -2.021  25.880  0.00  0.00    -0.166 F 
ENDBRANCH  11  14
ENDBRANCH   7   8
ENDBRANCH   6   7
TORSDOF 3
ENDMDL
MODEL 3
REMARK VINA RESULT:     -11.0      2.710      3.139
REMARK  Name = 
REMARK  3 active torsions:
REMARK  status: ('A' for Active; 'I' for Inactive)
REMARK    1  A    between atoms: N_6  and  C_7
REMARK    2  A    between atoms: C_7  and  C_8
REMARK    3  A    between atoms: C_11  and  C_14
REMARK                            x       y       z     vdW  Elec       q    Type
REMARK                         _______ _______ _______ _____ _____    ______ ____
ROOT
ATOM      1  C   UNL     1      -0.382   3.020  24.869  0.00  0.00    +0.117 C 
ATOM      2  N   UNL     1      -0.530   2.211  24.935  0.00  0.00    -0.261 N 
ATOM      3  C   UNL     1      -1.128   1.862  25.384  0.00  0.00    +0.116 C 
ATOM      4  C   UNL     1      -1.073   1.045  25.290  0.00  0.00    +0.113 C 
ATOM      5  C   UNL     1      -1.516   0.422  25.601  0.00  0.00    +0.094 C 
ATOM      6  N   UNL     1      -1.329  -0.356  25.404  0.00  0.00    -0.266 NA
ATOM     18  C   UNL     1      -0.698  -0.513  24.896  0.00  0.00    +0.094 C 
ATOM     19  C   UNL     1      -0.254   0.109  24.585  0.00  0.00    +0.112 C 
ATOM     20  N   UNL     1      -0.442   0.888  24.782  0.00  0.00    -0.261 N 
ATOM     21  C   UNL     1      -0.107   1.609  24.563  0.00  0.00    +0.307 C 
ATOM     22  O   UNL     1       0.539   1.710  24.059  0.00  0.00    -0.252 OA
ENDROOT
BRANCH   6   7
ATOM      7  C   UNL     1      -1.772  -0.979  25.714  0.00  0.00    +0.099 C 
BRANCH   7   8
ATOM      8  C   UNL     1      -2.369  -1.326  25.264  0.00  0.00    -0.006 A 
ATOM      9  C   UNL     1      -2.199  -1.974  24.782  0.00  0.00    -0.003 A 
ATOM     10  C   UNL     1      -2.796  -2.321  24.331  0.00  0.00    +0.004 A 
ATOM     11  C   UNL     1      -3.564  -2.021  24.362  0.00  0.00    +0.071 A 
ATOM     12  C   UNL     1      -3.735  -1.373  24.844  0.00  0.00    +0.004 A 
ATOM     13  C   UNL     1      -3.137  -1.026  25.295  0.00  0.00    -0.003 A 
BRANCH  11  14
ATOM     14  C   UNL     1      -4.162  -2.368  23.911  0.00  0.00    +0.419 C 
ATOM     15  F   UNL     1      -4.759  -2.715  23.461  0.00  0.00    -0.166 F 
ATOM     16  F   UNL     1      -4.066  -3.074  24.328  0.00  0.00    -0.166 F 
ATOM     17  F   UNL     1      -4.257  -1.662  23.495  0.00  0.00    -0.166 F 
ENDBRANCH  11  14
ENDBRANCH   7   8
ENDBRANCH   6   7
TORSDOF 3
ENDMDL
