MODEL 1
REMARK VINA RESULT:     -10.3      0.000      0.000
REMARK  Name = 
REMARK  7 active torsions:
REMARK  status: ('A' for Active; 'I' for Inactive)
REMARK    1  A    between atoms: O_2  and  C_3
REMARK    2  A    between atoms: C_6  and  C_7
REMARK    3  A    between atoms: C_7  and  N_8
REMARK    4  A    between atoms: N_8  and  C_9
REMARK    5  A    between atoms: C_12  and  C_13
REMARK    6  A    between atoms: C_13  and  N_14
REMARK    7  A    between atoms: C_15  and  C_17
REMARK                            x       y       z     vdW  Elec       q    Type
REMARK                         _______ _______ _______ _____ _____    ______ ____
ROOT
ATOM      9  C   UNL     1      -3.909   1.286  24.510  0.00  0.00    +0.135 C 
ATOM     10  C   UNL     1      -4.590   1.731  24.653  0.00  0.00    +0.162 C 
ATOM     11  O   UNL     1      -4.355   2.481  24.905  0.00  0.00    -0.350 OA
ATOM     12  C   UNL     1      -3.530   2.500  24.917  0.00  0.00    +0.169 C 
ATOM     23  C   UNL     1      -3.255   1.761  24.673  0.00  0.00    +0.199 C 
ATOM     24  O   UNL     1      -2.464   1.536  24.604  0.00  0.00    -0.219 OA
ENDROOT
BRANCH   9   8
ATOM      8  N   UNL     1      -3.888   0.504  24.249  0.00  0.00    -0.209 NA
BRANCH   8   7
ATOM      7  C   UNL     1      -4.342  -0.070  24.631  0.00  0.00    +0.115 C 
BRANCH   7   6
ATOM      3  C   UNL     1      -3.749  -2.463  24.410  0.00  0.00    +0.139 A 
ATOM      4  C   UNL     1      -3.554  -2.052  25.098  0.00  0.00    +0.037 A 
ATOM      5  C   UNL     1      -3.752  -1.254  25.171  0.00  0.00    +0.000 A 
ATOM      6  C   UNL     1      -4.144  -0.868  24.557  0.00  0.00    -0.005 A 
ATOM     25  C   UNL     1      -4.339  -1.280  23.869  0.00  0.00    +0.000 A 
ATOM     26  C   UNL     1      -4.141  -2.077  23.795  0.00  0.00    +0.037 A 
BRANCH   3   2
ATOM      1  C   UNL     1      -2.767  -3.481  24.204  0.00  0.00    +0.252 C 
ATOM      2  O   UNL     1      -3.551  -3.260  24.337  0.00  0.00    -0.471 OA
ENDBRANCH   3   2
ENDBRANCH   7   6
ENDBRANCH   8   7
ENDBRANCH   9   8
BRANCH  12  13
ATOM     13  C   UNL     1      -3.062   3.143  25.135  0.00  0.00    +0.148 C 
BRANCH  13  14
ATOM     14  N   UNL     1      -3.280   3.614  25.777  0.00  0.00    -0.199 NA
ATOM     15  C   UNL     1      -2.795   4.236  26.015  0.00  0.00    +0.265 C 
ATOM     16  O   UNL     1      -3.013   4.707  26.657  0.00  0.00    -0.268 OA
BRANCH  15  17
ATOM     17  C   UNL     1      -2.091   4.389  25.612  0.00  0.00    +0.055 A 
ATOM     18  C   UNL     1      -2.066   4.980  25.036  0.00  0.00    +0.005 A 
ATOM     19  C   UNL     1      -1.363   5.133  24.633  0.00  0.00    +0.000 A 
ATOM     20  C   UNL     1      -0.685   4.696  24.806  0.00  0.00    +0.000 A 
ATOM     21  C   UNL     1      -0.710   4.106  25.381  0.00  0.00    +0.000 A 
ATOM     22  C   UNL     1      -1.414   3.952  25.785  0.00  0.00    +0.005 A 
ENDBRANCH  15  17
ENDBRANCH  13  14
ENDBRANCH  12  13
TORSDOF 7
ENDMDL
MODEL 2
REMARK VINA RESULT:      -9.5      1.025      5.791
REMARK  Name = 
REMARK  7 active torsions:
REMARK  status: ('A' for Active; 'I' for Inactive)
REMARK    1  A    between atoms: O_2  and  C_3
REMARK    2  A    between atoms: C_6  and  C_7
REMARK    3  A    between atoms: C_7  and  N_8
REMARK    4  A    between atoms: N_8  and  C_9
REMARK    5  A    between atoms: C_12  and  C_13
REMARK    6  A    between atoms: C_13  and  N_14
REMARK    7  A    between atoms: C_15  and  C_17
REMARK                            x       y       z     vdW  Elec       q    Type
REMARK                         _______ _______ _______ _____ _____    ______ ____
ROOT
ATOM      9  C   UNL     1      -3.908   1.565  24.555  0.00  0.00    +0.135 C 
ATOM     10  C   UNL     1      -4.655   1.357  24.839  0.00  0.00    +0.162 C 
ATOM     11  O   UNL     1      -4.715   0.534  24.821  0.00  0.00    -0.350 OA
ATOM     12  C   UNL     1      -4.006   0.234  24.526  0.00  0.00    +0.169 C 
ATOM     23  C   UNL     1      -3.507   0.871  24.362  0.00  0.00    +0.199 C 
ATOM     24  O   UNL     1      -2.742   0.822  24.057  0.00  0.00    -0.219 OA
ENDROOT
BRANCH   9   8
ATOM      8  N   UNL     1      -3.615   2.332  24.478  0.00  0.00    -0.209 NA
BRANCH   8   7
ATOM      7  C   UNL     1      -3.649   2.852  25.118  0.00  0.00    +0.115 C 
BRANCH   7   6
ATOM      3  C   UNL     1      -2.045   4.730  25.271  0.00  0.00    +0.139 A 
ATOM      4  C   UNL     1      -2.091   4.178  25.880  0.00  0.00    +0.037 A 
ATOM      5  C   UNL     1      -2.626   3.552  25.829  0.00  0.00    +0.000 A 
ATOM      6  C   UNL     1      -3.115   3.478  25.169  0.00  0.00    -0.005 A 
ATOM     25  C   UNL     1      -3.068   4.032  24.558  0.00  0.00    +0.000 A 
ATOM     26  C   UNL     1      -2.533   4.658  24.609  0.00  0.00    +0.037 A 
BRANCH   3   2
ATOM      1  C   UNL     1      -0.814   5.342  24.877  0.00  0.00    +0.252 C 
ATOM      2  O   UNL     1      -1.510   5.356  25.322  0.00  0.00    -0.471 OA
ENDBRANCH   3   2
ENDBRANCH   7   6
ENDBRANCH   8   7
ENDBRANCH   9   8
BRANCH  12  13
ATOM     13  C   UNL     1      -3.826  -0.564  24.415  0.00  0.00    +0.148 C 
BRANCH  13  14
ATOM     14  N   UNL     1      -4.364  -1.059  24.032  0.00  0.00    -0.199 NA
ATOM     15  C   UNL     1      -4.229  -1.871  24.005  0.00  0.00    +0.265 C 
ATOM     16  O   UNL     1      -4.767  -2.367  23.623  0.00  0.00    -0.268 OA
BRANCH  15  17
ATOM     17  C   UNL     1      -3.555  -2.190  24.359  0.00  0.00    +0.055 A 
ATOM     18  C   UNL     1      -2.872  -2.309  23.913  0.00  0.00    +0.005 A 
ATOM     19  C   UNL     1      -2.198  -2.628  24.267  0.00  0.00    +0.000 A 
ATOM     20  C   UNL     1      -2.209  -2.828  25.067  0.00  0.00    +0.000 A 
ATOM     21  C   UNL     1      -2.892  -2.709  25.513  0.00  0.00    +0.000 A 
ATOM     22  C   UNL     1      -3.566  -2.390  25.160  0.00  0.00    +0.005 A 
ENDBRANCH  15  17
ENDBRANCH  13  14
ENDBRANCH  12  13
TORSDOF 7
ENDMDL
MODEL 3
REMARK VINA RESULT:      -9.4      1.558      6.054
REMARK  Name = 
REMARK  7 active torsions:
REMARK  status: ('A' for Active; 'I' for Inactive)
REMARK    1  A    between atoms: O_2  and  C_3
REMARK    2  A    between atoms: C_6  and  C_7
REMARK    3  A    between atoms: C_7  and  N_8
REMARK    4  A    between atoms: N_8  and  C_9
REMARK    5  A    between atoms: C_12  and  C_13
REMARK    6  A    between atoms: C_13  and  N_14
REMARK    7  A    between atoms: C_15  and  C_17
REMARK                            x       y       z     vdW  Elec       q    Type
REMARK                         _______ _______ _______ _____ _____    ______ ____
ROOT
ATOM      9  C   UNL     1      -1.342   1.211  24.978  0.00  0.00    +0.135 C 
ATOM     10  C   UNL     1      -0.819   0.715  25.381  0.00  0.00    +0.162 C 
ATOM     11  O   UNL     1      -1.188  -0.016  25.481  0.00  0.00    -0.350 OA
ATOM     12  C   UNL     1      -1.938   0.027  25.141  0.00  0.00    +0.169 C 
ATOM     23  C   UNL     1      -2.033   0.786  24.830  0.00  0.00    +0.199 C 
ATOM     24  O   UNL     1      -2.702   1.070  24.439  0.00  0.00    -0.219 OA
ENDROOT
BRANCH   9   8
ATOM      8  N   UNL     1      -1.198   1.994  24.761  0.00  0.00    -0.209 NA
BRANCH   8   7
ATOM      7  C   UNL     1      -0.834   2.508  25.294  0.00  0.00    +0.115 C 
BRANCH   7   6
ATOM      3  C   UNL     1      -1.109   4.954  25.033  0.00  0.00    +0.139 A 
ATOM      4  C   UNL     1      -1.613   4.534  25.532  0.00  0.00    +0.037 A 
ATOM      5  C   UNL     1      -1.522   3.719  25.619  0.00  0.00    +0.000 A 
ATOM      6  C   UNL     1      -0.926   3.324  25.207  0.00  0.00    -0.005 A 
ATOM     25  C   UNL     1      -0.421   3.745  24.708  0.00  0.00    +0.000 A 
ATOM     26  C   UNL     1      -0.512   4.560  24.621  0.00  0.00    +0.037 A 
BRANCH   3   2
ATOM      1  C   UNL     1      -1.954   6.106  24.977  0.00  0.00    +0.252 C 
ATOM      2  O   UNL     1      -1.200   5.770  24.946  0.00  0.00    -0.471 OA
ENDBRANCH   3   2
ENDBRANCH   7   6
ENDBRANCH   8   7
ENDBRANCH   9   8
BRANCH  12  13
ATOM     13  C   UNL     1      -2.495  -0.580  25.116  0.00  0.00    +0.148 C 
BRANCH  13  14
ATOM     14  N   UNL     1      -2.799  -0.892  25.817  0.00  0.00    -0.199 NA
ATOM     15  C   UNL     1      -3.321  -1.529  25.793  0.00  0.00    +0.265 C 
ATOM     16  O   UNL     1      -3.624  -1.841  26.494  0.00  0.00    -0.268 OA
BRANCH  15  17
ATOM     17  C   UNL     1      -3.540  -1.856  25.068  0.00  0.00    +0.055 A 
ATOM     18  C   UNL     1      -4.151  -1.515  24.630  0.00  0.00    +0.005 A 
ATOM     19  C   UNL     1      -4.370  -1.842  23.905  0.00  0.00    +0.000 A 
ATOM     20  C   UNL     1      -3.980  -2.509  23.619  0.00  0.00    +0.000 A 
ATOM     21  C   UNL     1      -3.371  -2.851  24.056  0.00  0.00    +0.000 A 
ATOM     22  C   UNL     1      -3.150  -2.524  24.781  0.00  0.00    +0.005 A 
ENDBRANCH  15  17
ENDBRANCH  13  14
ENDBRANCH  12  13
TORSDOF 7
ENDMDL
MODEL 4
REMARK VINA RESULT:      -9.3      3.865      6.061
REMARK  Name = 
REMARK  7 active torsions:
REMARK  status: ('A' for Active; 'I' for Inactive)
REMARK    1  A    between atoms: O_2  and  C_3
REMARK    2  A    between atoms: C_6  and  C_7
REMARK    3  A    between atoms: C_7  and  N_8
REMARK    4  A    between atoms: N_8  and  C_9
REMARK    5  A    between atoms: C_12  and  C_13
REMARK    6  A    between atoms: C_13  and  N_14
REMARK    7  A    between atoms: C_15  and  C_17
REMARK                            x       y       z     vdW  Elec       q    Type
REMARK                         _______ _______ _______ _____ _____    ______ ____
ROOT
ATOM      9  C   UNL     1      -0.219   0.154  23.904  0.00  0.00    +0.135 C 
ATOM     10  C   UNL     1      -0.671   0.843  23.854  0.00  0.00    +0.162 C 
ATOM     11  O   UNL     1      -1.436   0.665  24.107  0.00  0.00    -0.350 OA
ATOM     12  C   UNL     1      -1.456  -0.134  24.314  0.00  0.00    +0.169 C 
ATOM     23  C   UNL     1      -0.704  -0.449  24.188  0.00  0.00    +0.199 C 
ATOM     24  O   UNL     1      -0.477  -1.231  24.323  0.00  0.00    -0.219 OA
ENDROOT
BRANCH   9   8
ATOM      8  N   UNL     1       0.579   0.082  23.705  0.00  0.00    -0.209 NA
BRANCH   8   7
ATOM      7  C   UNL     1       0.895   0.544  23.098  0.00  0.00    +0.115 C 
BRANCH   7   6
ATOM      3  C   UNL     1       3.327   0.485  22.641  0.00  0.00    +0.139 A 
ATOM      4  C   UNL     1       3.015   1.062  23.141  0.00  0.00    +0.037 A 
ATOM      5  C   UNL     1       2.205   1.081  23.293  0.00  0.00    +0.000 A 
ATOM      6  C   UNL     1       1.706   0.524  22.946  0.00  0.00    -0.005 A 
ATOM     25  C   UNL     1       2.018  -0.054  22.445  0.00  0.00    +0.000 A 
ATOM     26  C   UNL     1       2.828  -0.073  22.293  0.00  0.00    +0.037 A 
BRANCH   3   2
ATOM      1  C   UNL     1       4.674   0.416  23.114  0.00  0.00    +0.252 C 
ATOM      2  O   UNL     1       4.137   0.465  22.489  0.00  0.00    -0.471 OA
ENDBRANCH   3   2
ENDBRANCH   7   6
ENDBRANCH   8   7
ENDBRANCH   9   8
BRANCH  12  13
ATOM     13  C   UNL     1      -2.113  -0.545  24.596  0.00  0.00    +0.148 C 
BRANCH  13  14
ATOM     14  N   UNL     1      -2.684  -0.153  25.046  0.00  0.00    -0.199 NA
ATOM     15  C   UNL     1      -3.414  -0.509  25.184  0.00  0.00    +0.265 C 
ATOM     16  O   UNL     1      -3.986  -0.117  25.634  0.00  0.00    -0.268 OA
BRANCH  15  17
ATOM     17  C   UNL     1      -3.576  -1.256  24.874  0.00  0.00    +0.055 A 
ATOM     18  C   UNL     1      -3.961  -1.326  24.147  0.00  0.00    +0.005 A 
ATOM     19  C   UNL     1      -4.122  -2.074  23.837  0.00  0.00    +0.000 A 
ATOM     20  C   UNL     1      -3.899  -2.750  24.253  0.00  0.00    +0.000 A 
ATOM     21  C   UNL     1      -3.515  -2.680  24.979  0.00  0.00    +0.000 A 
ATOM     22  C   UNL     1      -3.353  -1.932  25.290  0.00  0.00    +0.005 A 
ENDBRANCH  15  17
ENDBRANCH  13  14
ENDBRANCH  12  13
TORSDOF 7
ENDMDL
MODEL 5
REMARK VINA RESULT:      -8.4      1.621      2.210
REMARK  Name = 
REMARK  7 active torsions:
REMARK  status: ('A' for Active; 'I' for Inactive)
REMARK    1  A    between atoms: O_2  and  C_3
REMARK    2  A    between atoms: C_6  and  C_7
REMARK    3  A    between atoms: C_7  and  N_8
REMARK    4  A    between atoms: N_8  and  C_9
REMARK    5  A    between atoms: C_12  and  C_13
REMARK    6  A    between atoms: C_13  and  N_14
REMARK    7  A    between atoms: C_15  and  C_17
REMARK                            x       y       z     vdW  Elec       q    Type
REMARK                         _______ _______ _______ _____ _____    ______ ____
ROOT
ATOM      9  C   UNL     1      -1.261   0.427  24.921  0.00  0.00    +0.135 C 
ATOM     10  C   UNL     1      -0.612   0.616  25.395  0.00  0.00    +0.162 C 
ATOM     11  O   UNL     1      -0.623   1.431  25.528  0.00  0.00    -0.350 OA
ATOM     12  C   UNL     1      -1.278   1.744  25.137  0.00  0.00    +0.169 C 
ATOM     23  C   UNL     1      -1.672   1.124  24.762  0.00  0.00    +0.199 C 
ATOM     24  O   UNL     1      -2.358   1.190  24.307  0.00  0.00    -0.219 OA
ENDROOT
BRANCH   9   8
ATOM      8  N   UNL     1      -1.462  -0.327  24.653  0.00  0.00    -0.209 NA
BRANCH   8   7
ATOM      7  C   UNL     1      -1.624  -0.927  25.196  0.00  0.00    +0.115 C 
BRANCH   7   6
ATOM      3  C   UNL     1      -3.190  -2.747  24.596  0.00  0.00    +0.139 A 
ATOM      4  C   UNL     1      -2.429  -2.738  24.280  0.00  0.00    +0.037 A 
ATOM      5  C   UNL     1      -1.907  -2.131  24.480  0.00  0.00    +0.000 A 
ATOM      6  C   UNL     1      -2.146  -1.534  24.996  0.00  0.00    -0.005 A 
ATOM     25  C   UNL     1      -2.909  -1.543  25.312  0.00  0.00    +0.000 A 
ATOM     26  C   UNL     1      -3.431  -2.150  25.112  0.00  0.00    +0.037 A 
BRANCH   3   2
ATOM      1  C   UNL     1      -4.279  -3.234  23.807  0.00  0.00    +0.252 C 
ATOM      2  O   UNL     1      -3.713  -3.353  24.396  0.00  0.00    -0.471 OA
ENDBRANCH   3   2
ENDBRANCH   7   6
ENDBRANCH   8   7
ENDBRANCH   9   8
BRANCH  12  13
ATOM     13  C   UNL     1      -1.500   2.539  25.124  0.00  0.00    +0.148 C 
BRANCH  13  14
ATOM     14  N   UNL     1      -0.923   3.129  25.110  0.00  0.00    -0.199 NA
ATOM     15  C   UNL     1      -1.135   3.915  25.237  0.00  0.00    +0.265 C 
ATOM     16  O   UNL     1      -0.558   4.505  25.223  0.00  0.00    -0.268 OA
BRANCH  15  17
ATOM     17  C   UNL     1      -1.924   4.113  25.378  0.00  0.00    +0.055 A 
ATOM     18  C   UNL     1      -2.415   4.322  24.748  0.00  0.00    +0.005 A 
ATOM     19  C   UNL     1      -3.203   4.520  24.889  0.00  0.00    +0.000 A 
ATOM     20  C   UNL     1      -3.500   4.509  25.659  0.00  0.00    +0.000 A 
ATOM     21  C   UNL     1      -3.009   4.300  26.287  0.00  0.00    +0.000 A 
ATOM     22  C   UNL     1      -2.220   4.102  26.147  0.00  0.00    +0.005 A 
ENDBRANCH  15  17
ENDBRANCH  13  14
ENDBRANCH  12  13
TORSDOF 7
ENDMDL
MODEL 6
REMARK VINA RESULT:      -8.3      2.912      4.294
REMARK  Name = 
REMARK  7 active torsions:
REMARK  status: ('A' for Active; 'I' for Inactive)
REMARK    1  A    between atoms: O_2  and  C_3
REMARK    2  A    between atoms: C_6  and  C_7
REMARK    3  A    between atoms: C_7  and  N_8
REMARK    4  A    between atoms: N_8  and  C_9
REMARK    5  A    between atoms: C_12  and  C_13
REMARK    6  A    between atoms: C_13  and  N_14
REMARK    7  A    between atoms: C_15  and  C_17
REMARK                            x       y       z     vdW  Elec       q    Type
REMARK                         _______ _______ _______ _____ _____    ______ ____
ROOT
ATOM      9  C   UNL     1      -1.702   1.787  24.489  0.00  0.00    +0.135 C 
ATOM     10  C   UNL     1      -1.546   2.273  25.138  0.00  0.00    +0.162 C 
ATOM     11  O   UNL     1      -2.263   2.595  25.392  0.00  0.00    -0.350 OA
ATOM     12  C   UNL     1      -2.860   2.308  24.901  0.00  0.00    +0.169 C 
ATOM     23  C   UNL     1      -2.513   1.809  24.343  0.00  0.00    +0.199 C 
ATOM     24  O   UNL     1      -2.909   1.402  23.744  0.00  0.00    -0.219 OA
ENDROOT
BRANCH   9   8
ATOM      8  N   UNL     1      -1.143   1.356  24.062  0.00  0.00    -0.209 NA
BRANCH   8   7
ATOM      7  C   UNL     1      -0.404   1.196  24.394  0.00  0.00    +0.115 C 
BRANCH   7   6
ATOM      3  C   UNL     1       1.374   0.168  23.013  0.00  0.00    +0.139 A 
ATOM      4  C   UNL     1       1.486   0.917  23.339  0.00  0.00    +0.037 A 
ATOM      5  C   UNL     1       0.894   1.259  23.799  0.00  0.00    +0.000 A 
ATOM      6  C   UNL     1       0.188   0.853  23.933  0.00  0.00    -0.005 A 
ATOM     25  C   UNL     1       0.076   0.104  23.607  0.00  0.00    +0.000 A 
ATOM     26  C   UNL     1       0.669  -0.239  23.146  0.00  0.00    +0.037 A 
BRANCH   3   2
ATOM      1  C   UNL     1       2.703   0.194  22.486  0.00  0.00    +0.252 C 
ATOM      2  O   UNL     1       1.967  -0.174  22.553  0.00  0.00    -0.471 OA
ENDBRANCH   3   2
ENDBRANCH   7   6
ENDBRANCH   8   7
ENDBRANCH   9   8
BRANCH  12  13
ATOM     13  C   UNL     1      -3.663   2.488  24.958  0.00  0.00    +0.148 C 
BRANCH  13  14
ATOM     14  N   UNL     1      -3.906   3.273  25.033  0.00  0.00    -0.199 NA
ATOM     15  C   UNL     1      -4.692   3.446  25.211  0.00  0.00    +0.265 C 
ATOM     16  O   UNL     1      -4.935   4.231  25.286  0.00  0.00    -0.268 OA
BRANCH  15  17
ATOM     17  C   UNL     1      -5.236   2.835  25.313  0.00  0.00    +0.055 A 
ATOM     18  C   UNL     1      -5.594   2.487  24.656  0.00  0.00    +0.005 A 
ATOM     19  C   UNL     1      -6.139   1.876  24.759  0.00  0.00    +0.000 A 
ATOM     20  C   UNL     1      -6.325   1.613  25.518  0.00  0.00    +0.000 A 
ATOM     21  C   UNL     1      -5.968   1.960  26.174  0.00  0.00    +0.000 A 
ATOM     22  C   UNL     1      -5.423   2.572  26.072  0.00  0.00    +0.005 A 
ENDBRANCH  15  17
ENDBRANCH  13  14
ENDBRANCH  12  13
TORSDOF 7
ENDMDL
MODEL 7
REMARK VINA RESULT:      -8.2      3.527      4.812
REMARK  Name = 
REMARK  7 active torsions:
REMARK  status: ('A' for Active; 'I' for Inactive)
REMARK    1  A    between atoms: O_2  and  C_3
REMARK    2  A    between atoms: C_6  and  C_7
REMARK    3  A    between atoms: C_7  and  N_8
REMARK    4  A    between atoms: N_8  and  C_9
REMARK    5  A    between atoms: C_12  and  C_13
REMARK    6  A    between atoms: C_13  and  N_14
REMARK    7  A    between atoms: C_15  and  C_17
REMARK                            x       y       z     vdW  Elec       q    Type
REMARK                         _______ _______ _______ _____ _____    ______ ____
ROOT
ATOM      9  C   UNL     1      -0.810   0.707  23.936  0.00  0.00    +0.135 C 
ATOM     10  C   UNL     1      -1.110   0.024  24.290  0.00  0.00    +0.162 C 
ATOM     11  O   UNL     1      -1.890   0.175  24.513  0.00  0.00    -0.350 OA
ATOM     12  C   UNL     1      -2.071   0.950  24.297  0.00  0.00    +0.169 C 
ATOM     23  C   UNL     1      -1.403   1.279  23.941  0.00  0.00    +0.199 C 
ATOM     24  O   UNL     1      -1.341   2.045  23.641  0.00  0.00    -0.219 OA
ENDROOT
BRANCH   9   8
ATOM      8  N   UNL     1      -0.049   0.800  23.631  0.00  0.00    -0.209 NA
BRANCH   8   7
ATOM      7  C   UNL     1       0.427   0.138  23.500  0.00  0.00    +0.115 C 
BRANCH   7   6
ATOM      3  C   UNL     1       2.698   0.415  22.558  0.00  0.00    +0.139 A 
ATOM      4  C   UNL     1       2.180  -0.134  22.228  0.00  0.00    +0.037 A 
ATOM      5  C   UNL     1       1.422  -0.226  22.542  0.00  0.00    +0.000 A 
ATOM      6  C   UNL     1       1.184   0.230  23.186  0.00  0.00    -0.005 A 
ATOM     25  C   UNL     1       1.704   0.780  23.516  0.00  0.00    +0.000 A 
ATOM     26  C   UNL     1       2.461   0.873  23.202  0.00  0.00    +0.037 A 
BRANCH   3   2
ATOM      1  C   UNL     1       4.104   0.594  22.747  0.00  0.00    +0.252 C 
ATOM      2  O   UNL     1       3.456   0.508  22.244  0.00  0.00    -0.471 OA
ENDBRANCH   3   2
ENDBRANCH   7   6
ENDBRANCH   8   7
ENDBRANCH   9   8
BRANCH  12  13
ATOM     13  C   UNL     1      -2.793   1.331  24.417  0.00  0.00    +0.148 C 
BRANCH  13  14
ATOM     14  N   UNL     1      -3.476   0.888  24.553  0.00  0.00    -0.199 NA
ATOM     15  C   UNL     1      -4.186   1.268  24.728  0.00  0.00    +0.265 C 
ATOM     16  O   UNL     1      -4.869   0.825  24.864  0.00  0.00    -0.268 OA
BRANCH  15  17
ATOM     17  C   UNL     1      -4.215   2.092  24.769  0.00  0.00    +0.055 A 
ATOM     18  C   UNL     1      -4.087   2.474  25.490  0.00  0.00    +0.005 A 
ATOM     19  C   UNL     1      -4.115   3.297  25.530  0.00  0.00    +0.000 A 
ATOM     20  C   UNL     1      -4.271   3.739  24.851  0.00  0.00    +0.000 A 
ATOM     21  C   UNL     1      -4.399   3.357  24.131  0.00  0.00    +0.000 A 
ATOM     22  C   UNL     1      -4.370   2.533  24.090  0.00  0.00    +0.005 A 
ENDBRANCH  15  17
ENDBRANCH  13  14
ENDBRANCH  12  13
TORSDOF 7
ENDMDL
MODEL 8
REMARK VINA RESULT:      -7.0      1.989      5.739
REMARK  Name = 
REMARK  7 active torsions:
REMARK  status: ('A' for Active; 'I' for Inactive)
REMARK    1  A    between atoms: O_2  and  C_3
REMARK    2  A    between atoms: C_6  and  C_7
REMARK    3  A    between atoms: C_7  and  N_8
REMARK    4  A    between atoms: N_8  and  C_9
REMARK    5  A    between atoms: C_12  and  C_13
REMARK    6  A    between atoms: C_13  and  N_14
REMARK    7  A    between atoms: C_15  and  C_17
REMARK                            x       y       z     vdW  Elec       q    Type
REMARK                         _______ _______ _______ _____ _____    ______ ____
ROOT
ATOM      9  C   UNL     1      -2.658   1.448  24.729  0.00  0.00    +0.135 C 
ATOM     10  C   UNL     1      -2.081   1.421  24.139  0.00  0.00    +0.162 C 
ATOM     11  O   UNL     1      -1.878   0.630  24.018  0.00  0.00    -0.350 OA
ATOM     12  C   UNL     1      -2.329   0.169  24.532  0.00  0.00    +0.169 C 
ATOM     23  C   UNL     1      -2.811   0.675  24.972  0.00  0.00    +0.199 C 
ATOM     24  O   UNL     1      -3.351   0.446  25.553  0.00  0.00    -0.219 OA
ENDROOT
BRANCH   9   8
ATOM      8  N   UNL     1      -3.018   2.129  25.023  0.00  0.00    -0.209 NA
BRANCH   8   7
ATOM      7  C   UNL     1      -3.503   2.583  24.534  0.00  0.00    +0.115 C 
BRANCH   7   6
ATOM      3  C   UNL     1      -5.345   3.916  25.512  0.00  0.00    +0.139 A 
ATOM      4  C   UNL     1      -5.513   3.225  25.095  0.00  0.00    +0.037 A 
ATOM      5  C   UNL     1      -4.899   2.781  24.769  0.00  0.00    +0.000 A 
ATOM      6  C   UNL     1      -4.117   3.028  24.860  0.00  0.00    -0.005 A 
ATOM     25  C   UNL     1      -3.949   3.719  25.278  0.00  0.00    +0.000 A 
ATOM     26  C   UNL     1      -4.563   4.164  25.604  0.00  0.00    +0.037 A 
BRANCH   3   2
ATOM      1  C   UNL     1      -6.138   5.106  25.531  0.00  0.00    +0.252 C 
ATOM      2  O   UNL     1      -5.959   4.360  25.838  0.00  0.00    -0.471 OA
ENDBRANCH   3   2
ENDBRANCH   7   6
ENDBRANCH   8   7
ENDBRANCH   9   8
BRANCH  12  13
ATOM     13  C   UNL     1      -2.302  -0.653  24.597  0.00  0.00    +0.148 C 
BRANCH  13  14
ATOM     14  N   UNL     1      -1.575  -1.042  24.625  0.00  0.00    -0.199 NA
ATOM     15  C   UNL     1      -1.549  -1.865  24.656  0.00  0.00    +0.265 C 
ATOM     16  O   UNL     1      -0.822  -2.254  24.685  0.00  0.00    -0.268 OA
BRANCH  15  17
ATOM     17  C   UNL     1      -2.250  -2.301  24.660  0.00  0.00    +0.055 A 
ATOM     18  C   UNL     1      -2.594  -2.534  23.946  0.00  0.00    +0.005 A 
ATOM     19  C   UNL     1      -3.294  -2.969  23.950  0.00  0.00    +0.000 A 
ATOM     20  C   UNL     1      -3.650  -3.172  24.665  0.00  0.00    +0.000 A 
ATOM     21  C   UNL     1      -3.307  -2.940  25.378  0.00  0.00    +0.000 A 
ATOM     22  C   UNL     1      -2.606  -2.504  25.375  0.00  0.00    +0.005 A 
ENDBRANCH  15  17
ENDBRANCH  13  14
ENDBRANCH  12  13
TORSDOF 7
ENDMDL
MODEL 9
REMARK VINA RESULT:      -6.7     14.191     16.764
REMARK  Name = 
REMARK  7 active torsions:
REMARK  status: ('A' for Active; 'I' for Inactive)
REMARK    1  A    between atoms: O_2  and  C_3
REMARK    2  A    between atoms: C_6  and  C_7
REMARK    3  A    between atoms: C_7  and  N_8
REMARK    4  A    between atoms: N_8  and  C_9
REMARK    5  A    between atoms: C_12  and  C_13
REMARK    6  A    between atoms: C_13  and  N_14
REMARK    7  A    between atoms: C_15  and  C_17
REMARK                            x       y       z     vdW  Elec       q    Type
REMARK                         _______ _______ _______ _____ _____    ______ ____
ROOT
ATOM      9  C   UNL     1      -5.491 -10.277  14.134  0.00  0.00    +0.135 C 
ATOM     10  C   UNL     1      -6.216 -10.022  13.833  0.00  0.00    +0.162 C 
ATOM     11  O   UNL     1      -6.139  -9.941  13.015  0.00  0.00    -0.350 OA
ATOM     12  C   UNL     1      -5.366 -10.146  12.811  0.00  0.00    +0.169 C 
ATOM     23  C   UNL     1      -4.966 -10.353  13.502  0.00  0.00    +0.199 C 
ATOM     24  O   UNL     1      -4.178 -10.595  13.553  0.00  0.00    -0.219 OA
ENDROOT
BRANCH   9   8
ATOM      8  N   UNL     1      -5.321 -10.428  14.927  0.00  0.00    -0.209 NA
BRANCH   8   7
ATOM      7  C   UNL     1      -5.730 -10.025  15.520  0.00  0.00    +0.115 C 
BRANCH   7   6
ATOM      3  C   UNL     1      -5.336 -10.592  17.896  0.00  0.00    +0.139 A 
ATOM      4  C   UNL     1      -6.058 -10.775  17.543  0.00  0.00    +0.037 A 
ATOM      5  C   UNL     1      -6.189 -10.586  16.751  0.00  0.00    +0.000 A 
ATOM      6  C   UNL     1      -5.599 -10.214  16.312  0.00  0.00    -0.005 A 
ATOM     25  C   UNL     1      -4.875 -10.031  16.665  0.00  0.00    +0.000 A 
ATOM     26  C   UNL     1      -4.744 -10.220  17.458  0.00  0.00    +0.037 A 
BRANCH   3   2
ATOM      1  C   UNL     1      -5.806 -10.673  19.244  0.00  0.00    +0.252 C 
ATOM      2  O   UNL     1      -5.204 -10.781  18.688  0.00  0.00    -0.471 OA
ENDBRANCH   3   2
ENDBRANCH   7   6
ENDBRANCH   8   7
ENDBRANCH   9   8
BRANCH  12  13
ATOM     13  C   UNL     1      -5.049 -10.144  12.049  0.00  0.00    +0.148 C 
BRANCH  13  14
ATOM     14  N   UNL     1      -5.538 -10.280  11.398  0.00  0.00    -0.199 NA
ATOM     15  C   UNL     1      -5.253 -10.148  10.636  0.00  0.00    +0.265 C 
ATOM     16  O   UNL     1      -5.742 -10.284   9.984  0.00  0.00    -0.268 OA
BRANCH  15  17
ATOM     17  C   UNL     1      -4.481  -9.881  10.522  0.00  0.00    +0.055 A 
ATOM     18  C   UNL     1      -3.859 -10.422  10.486  0.00  0.00    +0.005 A 
ATOM     19  C   UNL     1      -3.087 -10.155  10.373  0.00  0.00    +0.000 A 
ATOM     20  C   UNL     1      -2.937  -9.348  10.296  0.00  0.00    +0.000 A 
ATOM     21  C   UNL     1      -3.558  -8.807  10.332  0.00  0.00    +0.000 A 
ATOM     22  C   UNL     1      -4.331  -9.074  10.445  0.00  0.00    +0.005 A 
ENDBRANCH  15  17
ENDBRANCH  13  14
ENDBRANCH  12  13
TORSDOF 7
ENDMDL
