REMARK  Name = 
REMARK  7 active torsions:
REMARK  status: ('A' for Active; 'I' for Inactive)
REMARK    1  A    between atoms: N_2  and  C_3
REMARK    2  A    between atoms: N_2  and  C_23
REMARK    3  A    between atoms: C_3  and  C_4
REMARK    4  A    between atoms: C_11  and  C_12
REMARK    5  A    between atoms: C_12  and  N_13
REMARK    6  A    between atoms: N_13  and  S_14
REMARK    7  A    between atoms: S_14  and  C_17
REMARK                            x       y       z     vdW  Elec       q    Type
REMARK                         _______ _______ _______ _____ _____    ______ ____
ROOT
ATOM      4  C   UNL     1       1.661  -1.343   0.000  0.00  0.00    +0.036 C 
ATOM      5  C   UNL     1       1.814  -2.106   0.000  0.00  0.00    +0.074 C 
ATOM      6  N   UNL     1       1.065  -1.759   0.000  0.00  0.00    -0.272 NA
ATOM      7  C   UNL     1       1.205  -0.720   0.000  0.00  0.00    +0.072 C 
ATOM      8  C   UNL     1       0.961  -0.114   0.000  0.00  0.00    +0.017 C 
ATOM      9  C   UNL     1       0.923  -1.010   0.000  0.00  0.00    +0.006 C 
ATOM     10  C   UNL     1       0.119  -1.362   0.000  0.00  0.00    +0.018 C 
ATOM     11  C   UNL     1       0.226  -2.118   0.000  0.00  0.00    +0.077 C 
ENDROOT
BRANCH   4   3
ATOM      3  C   UNL     1       2.307  -0.828   0.000  0.00  0.00    +0.092 C 
BRANCH   3   2
ATOM      1  C   UNL     1       1.416   0.289   0.000  0.00  0.00    +0.112 C 
ATOM      2  N   UNL     1       2.184  -0.013   0.000  0.00  0.00    -0.306 N 
BRANCH   2  23
ATOM     23  C   UNL     1       2.829   0.501   0.000  0.00  0.00    +0.048 A 
ATOM     24  C   UNL     1       2.707   1.317   0.000  0.00  0.00    +0.015 A 
ATOM     25  C   UNL     1       3.352   1.831   0.000  0.00  0.00    +0.001 A 
ATOM     26  C   UNL     1       4.120   1.530   0.000  0.00  0.00    +0.000 A 
ATOM     27  C   UNL     1       4.242   0.714   0.000  0.00  0.00    +0.001 A 
ATOM     28  C   UNL     1       3.597   0.200   0.000  0.00  0.00    +0.015 A 
ENDBRANCH   2  23
ENDBRANCH   3   2
ENDBRANCH   4   3
BRANCH  11  12
ATOM     12  C   UNL     1      -0.179  -2.836   0.000  0.00  0.00    +0.131 C 
BRANCH  12  13
ATOM     13  N   UNL     1      -1.004  -2.845   0.000  0.00  0.00    -0.076 NA
BRANCH  13  14
ATOM     14  S   UNL     1      -1.408  -3.564   0.000  0.00  0.00    +0.077 S 
ATOM     15  O   UNL     1      -0.690  -3.969   0.000  0.00  0.00    -0.152 OA
ATOM     16  O   UNL     1      -2.127  -3.159   0.000  0.00  0.00    -0.152 OA
BRANCH  14  17
ATOM     17  C   UNL     1      -1.813  -4.283   0.000  0.00  0.00    +0.124 A 
ATOM     18  C   UNL     1      -1.393  -4.993   0.000  0.00  0.00    +0.020 A 
ATOM     19  C   UNL     1      -1.798  -5.712   0.000  0.00  0.00    +0.001 A 
ATOM     20  C   UNL     1      -2.623  -5.721   0.000  0.00  0.00    +0.000 A 
ATOM     21  C   UNL     1      -3.043  -5.011   0.000  0.00  0.00    +0.001 A 
ATOM     22  C   UNL     1      -2.638  -4.292   0.000  0.00  0.00    +0.020 A 
ENDBRANCH  14  17
ENDBRANCH  13  14
ENDBRANCH  12  13
ENDBRANCH  11  12
TORSDOF 7
