MODEL 1
REMARK VINA RESULT:     -12.2      0.000      0.000
REMARK  Name = 
REMARK  6 active torsions:
REMARK  status: ('A' for Active; 'I' for Inactive)
REMARK    1  A    between atoms: C_2  and  N_4
REMARK    2  A    between atoms: N_7  and  C_8
REMARK    3  A    between atoms: C_8  and  C_9
REMARK    4  A    between atoms: C_11  and  C_12
REMARK    5  A    between atoms: C_12  and  C_13
REMARK    6  A    between atoms: C_16  and  C_18
REMARK                            x       y       z     vdW  Elec       q    Type
REMARK                         _______ _______ _______ _____ _____    ______ ____
ROOT
ATOM      9  C   UNL     1      -4.577   2.959  25.412  0.00  0.00    +0.167 C 
ATOM     10  O   UNL     1      -4.413   2.279  24.974  0.00  0.00    -0.354 OA
ATOM     11  C   UNL     1      -5.018   1.747  24.796  0.00  0.00    +0.121 C 
ATOM     25  C   UNL     1      -5.787   1.895  25.056  0.00  0.00    +0.033 C 
ATOM     26  C   UNL     1      -5.950   2.574  25.494  0.00  0.00    +0.038 C 
ATOM     27  C   UNL     1      -5.346   3.106  25.672  0.00  0.00    +0.181 C 
ATOM     28  O   UNL     1      -5.509   3.785  26.110  0.00  0.00    -0.220 OA
ENDROOT
BRANCH   9   8
ATOM      8  C   UNL     1      -3.971   3.490  25.590  0.00  0.00    +0.149 C 
BRANCH   8   7
ATOM      4  N   UNL     1      -2.009   4.035  24.802  0.00  0.00    -0.189 NA
ATOM      5  C   UNL     1      -2.641   3.940  25.325  0.00  0.00    +0.339 C 
ATOM      6  O   UNL     1      -2.574   4.201  26.105  0.00  0.00    -0.249 OA
ATOM      7  N   UNL     1      -3.339   3.585  25.067  0.00  0.00    -0.185 NA
BRANCH   4   2
ATOM      1  C   UNL     1      -0.689   3.923  25.336  0.00  0.00    +0.023 C 
ATOM      2  C   UNL     1      -1.311   4.390  25.060  0.00  0.00    +0.097 C 
ATOM      3  C   UNL     1      -1.234   5.212  25.041  0.00  0.00    +0.023 C 
ENDBRANCH   4   2
ENDBRANCH   8   7
ENDBRANCH   9   8
BRANCH  11  12
ATOM     12  C   UNL     1      -4.854   1.067  24.357  0.00  0.00    +0.079 C 
BRANCH  12  13
ATOM     13  C   UNL     1      -4.483   0.423  24.717  0.00  0.00    +0.103 A 
ATOM     14  N   UNL     1      -4.634   0.140  25.478  0.00  0.00    -0.081 NA
ATOM     15  O   UNL     1      -4.142  -0.508  25.610  0.00  0.00    -0.354 OA
ATOM     16  C   UNL     1      -3.687  -0.625  24.932  0.00  0.00    +0.177 A 
ATOM     17  C   UNL     1      -3.898  -0.050  24.380  0.00  0.00    +0.058 A 
BRANCH  16  18
ATOM     18  C   UNL     1      -3.120  -1.215  24.824  0.00  0.00    +0.037 A 
ATOM     19  C   UNL     1      -2.317  -1.030  24.871  0.00  0.00    +0.005 A 
ATOM     20  C   UNL     1      -1.751  -1.619  24.764  0.00  0.00    +0.030 A 
ATOM     21  C   UNL     1      -1.986  -2.395  24.609  0.00  0.00    +0.140 A 
ATOM     22  F   UNL     1      -1.420  -2.985  24.502  0.00  0.00    -0.204 F 
ATOM     23  C   UNL     1      -2.789  -2.580  24.563  0.00  0.00    +0.030 A 
ATOM     24  C   UNL     1      -3.355  -1.990  24.670  0.00  0.00    +0.005 A 
ENDBRANCH  16  18
ENDBRANCH  12  13
ENDBRANCH  11  12
TORSDOF 6
ENDMDL
MODEL 2
REMARK VINA RESULT:     -11.7      1.175      1.650
REMARK  Name = 
REMARK  6 active torsions:
REMARK  status: ('A' for Active; 'I' for Inactive)
REMARK    1  A    between atoms: C_2  and  N_4
REMARK    2  A    between atoms: N_7  and  C_8
REMARK    3  A    between atoms: C_8  and  C_9
REMARK    4  A    between atoms: C_11  and  C_12
REMARK    5  A    between atoms: C_12  and  C_13
REMARK    6  A    between atoms: C_16  and  C_18
REMARK                            x       y       z     vdW  Elec       q    Type
REMARK                         _______ _______ _______ _____ _____    ______ ____
ROOT
ATOM      9  C   UNL     1      -3.383   3.300  25.350  0.00  0.00    +0.167 C 
ATOM     10  O   UNL     1      -3.642   2.652  24.908  0.00  0.00    -0.354 OA
ATOM     11  C   UNL     1      -4.450   2.520  24.806  0.00  0.00    +0.121 C 
ATOM     25  C   UNL     1      -4.999   3.034  25.146  0.00  0.00    +0.033 C 
ATOM     26  C   UNL     1      -4.740   3.680  25.587  0.00  0.00    +0.038 C 
ATOM     27  C   UNL     1      -3.932   3.814  25.689  0.00  0.00    +0.181 C 
ATOM     28  O   UNL     1      -3.673   4.461  26.130  0.00  0.00    -0.220 OA
ENDROOT
BRANCH   9   8
ATOM      8  C   UNL     1      -2.575   3.432  25.452  0.00  0.00    +0.149 C 
BRANCH   8   7
ATOM      4  N   UNL     1      -0.768   2.268  25.833  0.00  0.00    -0.189 NA
ATOM      5  C   UNL     1      -1.262   2.890  25.609  0.00  0.00    +0.339 C 
ATOM      6  O   UNL     1      -0.938   3.590  25.318  0.00  0.00    -0.249 OA
ATOM      7  N   UNL     1      -2.081   2.810  25.676  0.00  0.00    -0.185 NA
BRANCH   4   2
ATOM      1  C   UNL     1       0.426   2.156  25.056  0.00  0.00    +0.023 C 
ATOM      2  C   UNL     1       0.050   2.347  25.766  0.00  0.00    +0.097 C 
ATOM      3  C   UNL     1       0.493   2.618  26.407  0.00  0.00    +0.023 C 
ENDBRANCH   4   2
ENDBRANCH   8   7
ENDBRANCH   9   8
BRANCH  11  12
ATOM     12  C   UNL     1      -4.709   1.872  24.365  0.00  0.00    +0.079 C 
BRANCH  12  13
ATOM     13  C   UNL     1      -4.663   1.111  24.682  0.00  0.00    +0.103 A 
ATOM     14  N   UNL     1      -4.999   0.861  25.392  0.00  0.00    -0.081 NA
ATOM     15  O   UNL     1      -4.817   0.063  25.493  0.00  0.00    -0.354 OA
ATOM     16  C   UNL     1      -4.368  -0.179  24.845  0.00  0.00    +0.177 A 
ATOM     17  C   UNL     1      -4.273   0.468  24.344  0.00  0.00    +0.058 A 
BRANCH  16  18
ATOM     18  C   UNL     1      -4.066  -0.938  24.721  0.00  0.00    +0.037 A 
ATOM     19  C   UNL     1      -4.302  -1.372  24.060  0.00  0.00    +0.005 A 
ATOM     20  C   UNL     1      -4.001  -2.130  23.936  0.00  0.00    +0.030 A 
ATOM     21  C   UNL     1      -3.464  -2.454  24.472  0.00  0.00    +0.140 A 
ATOM     22  F   UNL     1      -3.162  -3.211  24.348  0.00  0.00    -0.204 F 
ATOM     23  C   UNL     1      -3.228  -2.019  25.133  0.00  0.00    +0.030 A 
ATOM     24  C   UNL     1      -3.530  -1.261  25.256  0.00  0.00    +0.005 A 
ENDBRANCH  16  18
ENDBRANCH  12  13
ENDBRANCH  11  12
TORSDOF 6
ENDMDL
MODEL 3
REMARK VINA RESULT:     -11.5      1.722      3.319
REMARK  Name = 
REMARK  6 active torsions:
REMARK  status: ('A' for Active; 'I' for Inactive)
REMARK    1  A    between atoms: C_2  and  N_4
REMARK    2  A    between atoms: N_7  and  C_8
REMARK    3  A    between atoms: C_8  and  C_9
REMARK    4  A    between atoms: C_11  and  C_12
REMARK    5  A    between atoms: C_12  and  C_13
REMARK    6  A    between atoms: C_16  and  C_18
REMARK                            x       y       z     vdW  Elec       q    Type
REMARK                         _______ _______ _______ _____ _____    ______ ____
ROOT
ATOM      9  C   UNL     1      -1.644   2.626  25.058  0.00  0.00    +0.167 C 
ATOM     10  O   UNL     1      -1.675   1.851  25.342  0.00  0.00    -0.354 OA
ATOM     11  C   UNL     1      -0.976   1.432  25.473  0.00  0.00    +0.121 C 
ATOM     25  C   UNL     1      -0.247   1.787  25.321  0.00  0.00    +0.033 C 
ATOM     26  C   UNL     1      -0.216   2.561  25.038  0.00  0.00    +0.038 C 
ATOM     27  C   UNL     1      -0.914   2.981  24.906  0.00  0.00    +0.181 C 
ATOM     28  O   UNL     1      -0.884   3.754  24.623  0.00  0.00    -0.220 OA
ENDROOT
BRANCH   9   8
ATOM      8  C   UNL     1      -2.342   3.045  24.927  0.00  0.00    +0.149 C 
BRANCH   8   7
ATOM      4  N   UNL     1      -4.375   3.029  25.724  0.00  0.00    -0.189 NA
ATOM      5  C   UNL     1      -3.744   3.104  25.196  0.00  0.00    +0.339 C 
ATOM      6  O   UNL     1      -3.886   3.313  24.411  0.00  0.00    -0.249 OA
ATOM      7  N   UNL     1      -2.973   2.970  25.455  0.00  0.00    -0.185 NA
BRANCH   4   2
ATOM      1  C   UNL     1      -5.464   3.925  25.494  0.00  0.00    +0.023 C 
ATOM      2  C   UNL     1      -5.146   3.163  25.465  0.00  0.00    +0.097 C 
ATOM      3  C   UNL     1      -5.600   2.538  25.177  0.00  0.00    +0.023 C 
ENDBRANCH   4   2
ENDBRANCH   8   7
ENDBRANCH   9   8
BRANCH  11  12
ATOM     12  C   UNL     1      -1.007   0.657  25.756  0.00  0.00    +0.079 C 
BRANCH  12  13
ATOM     13  C   UNL     1      -1.271   0.049  25.266  0.00  0.00    +0.103 A 
ATOM     14  N   UNL     1      -0.835  -0.316  24.668  0.00  0.00    -0.081 NA
ATOM     15  O   UNL     1      -1.311  -0.892  24.320  0.00  0.00    -0.354 OA
ATOM     16  C   UNL     1      -2.042  -0.883  24.702  0.00  0.00    +0.177 A 
ATOM     17  C   UNL     1      -2.017  -0.302  25.286  0.00  0.00    +0.058 A 
BRANCH  16  18
ATOM     18  C   UNL     1      -2.686  -1.371  24.530  0.00  0.00    +0.037 A 
ATOM     19  C   UNL     1      -3.370  -1.049  24.198  0.00  0.00    +0.005 A 
ATOM     20  C   UNL     1      -4.012  -1.537  24.026  0.00  0.00    +0.030 A 
ATOM     21  C   UNL     1      -3.972  -2.346  24.185  0.00  0.00    +0.140 A 
ATOM     22  F   UNL     1      -4.614  -2.834  24.013  0.00  0.00    -0.204 F 
ATOM     23  C   UNL     1      -3.287  -2.666  24.517  0.00  0.00    +0.030 A 
ATOM     24  C   UNL     1      -2.645  -2.179  24.689  0.00  0.00    +0.005 A 
ENDBRANCH  16  18
ENDBRANCH  12  13
ENDBRANCH  11  12
TORSDOF 6
ENDMDL
MODEL 4
REMARK VINA RESULT:     -11.4      2.298      4.352
REMARK  Name = 
REMARK  6 active torsions:
REMARK  status: ('A' for Active; 'I' for Inactive)
REMARK    1  A    between atoms: C_2  and  N_4
REMARK    2  A    between atoms: N_7  and  C_8
REMARK    3  A    between atoms: C_8  and  C_9
REMARK    4  A    between atoms: C_11  and  C_12
REMARK    5  A    between atoms: C_12  and  C_13
REMARK    6  A    between atoms: C_16  and  C_18
REMARK                            x       y       z     vdW  Elec       q    Type
REMARK                         _______ _______ _______ _____ _____    ______ ____
ROOT
ATOM      9  C   UNL     1      -1.409  -0.817  24.963  0.00  0.00    +0.167 C 
ATOM     10  O   UNL     1      -2.190  -0.709  25.208  0.00  0.00    -0.354 OA
ATOM     11  C   UNL     1      -2.734  -1.324  25.132  0.00  0.00    +0.121 C 
ATOM     25  C   UNL     1      -2.498  -2.047  24.812  0.00  0.00    +0.033 C 
ATOM     26  C   UNL     1      -1.718  -2.155  24.568  0.00  0.00    +0.038 C 
ATOM     27  C   UNL     1      -1.173  -1.540  24.643  0.00  0.00    +0.181 C 
ATOM     28  O   UNL     1      -0.393  -1.648  24.400  0.00  0.00    -0.220 OA
ENDROOT
BRANCH   9   8
ATOM      8  C   UNL     1      -0.865  -0.202  25.039  0.00  0.00    +0.149 C 
BRANCH   8   7
ATOM      4  N   UNL     1      -0.803   1.777  25.960  0.00  0.00    -0.189 NA
ATOM      5  C   UNL     1      -0.649   1.152  25.443  0.00  0.00    +0.339 C 
ATOM      6  O   UNL     1      -0.124   1.256  24.815  0.00  0.00    -0.249 OA
ATOM      7  N   UNL     1      -1.019   0.424  25.556  0.00  0.00    -0.185 NA
BRANCH   4   2
ATOM      1  C   UNL     1       0.286   2.664  26.222  0.00  0.00    +0.023 C 
ATOM      2  C   UNL     1      -0.432   2.505  25.847  0.00  0.00    +0.097 C 
ATOM      3  C   UNL     1      -0.779   3.075  25.361  0.00  0.00    +0.023 C 
ENDBRANCH   4   2
ENDBRANCH   8   7
ENDBRANCH   9   8
BRANCH  11  12
ATOM     12  C   UNL     1      -3.516  -1.216  25.376  0.00  0.00    +0.079 C 
BRANCH  12  13
ATOM     13  C   UNL     1      -3.969  -0.607  25.052  0.00  0.00    +0.103 A 
ATOM     14  N   UNL     1      -4.337  -0.618  24.313  0.00  0.00    -0.081 NA
ATOM     15  O   UNL     1      -4.729   0.101  24.214  0.00  0.00    -0.354 OA
ATOM     16  C   UNL     1      -4.603   0.555  24.891  0.00  0.00    +0.177 A 
ATOM     17  C   UNL     1      -4.134   0.118  25.408  0.00  0.00    +0.058 A 
BRANCH  16  18
ATOM     18  C   UNL     1      -4.897   1.315  25.026  0.00  0.00    +0.037 A 
ATOM     19  C   UNL     1      -4.460   1.974  24.789  0.00  0.00    +0.005 A 
ATOM     20  C   UNL     1      -4.754   2.733  24.924  0.00  0.00    +0.030 A 
ATOM     21  C   UNL     1      -5.483   2.833  25.297  0.00  0.00    +0.140 A 
ATOM     22  F   UNL     1      -5.777   3.592  25.432  0.00  0.00    -0.204 F 
ATOM     23  C   UNL     1      -5.919   2.174  25.534  0.00  0.00    +0.030 A 
ATOM     24  C   UNL     1      -5.626   1.415  25.398  0.00  0.00    +0.005 A 
ENDBRANCH  16  18
ENDBRANCH  12  13
ENDBRANCH  11  12
TORSDOF 6
ENDMDL
MODEL 5
REMARK VINA RESULT:     -11.2      2.178      5.033
REMARK  Name = 
REMARK  6 active torsions:
REMARK  status: ('A' for Active; 'I' for Inactive)
REMARK    1  A    between atoms: C_2  and  N_4
REMARK    2  A    between atoms: N_7  and  C_8
REMARK    3  A    between atoms: C_8  and  C_9
REMARK    4  A    between atoms: C_11  and  C_12
REMARK    5  A    between atoms: C_12  and  C_13
REMARK    6  A    between atoms: C_16  and  C_18
REMARK                            x       y       z     vdW  Elec       q    Type
REMARK                         _______ _______ _______ _____ _____    ______ ____
ROOT
ATOM      9  C   UNL     1      -3.091  -0.330  25.021  0.00  0.00    +0.167 C 
ATOM     10  O   UNL     1      -2.526   0.212  24.758  0.00  0.00    -0.354 OA
ATOM     11  C   UNL     1      -1.738  -0.019  24.683  0.00  0.00    +0.121 C 
ATOM     25  C   UNL     1      -1.514  -0.791  24.870  0.00  0.00    +0.033 C 
ATOM     26  C   UNL     1      -2.078  -1.331  25.133  0.00  0.00    +0.038 C 
ATOM     27  C   UNL     1      -2.867  -1.102  25.209  0.00  0.00    +0.181 C 
ATOM     28  O   UNL     1      -3.431  -1.642  25.471  0.00  0.00    -0.220 OA
ENDROOT
BRANCH   9   8
ATOM      8  C   UNL     1      -3.879  -0.099  25.097  0.00  0.00    +0.149 C 
BRANCH   8   7
ATOM      4  N   UNL     1      -5.043   1.701  24.680  0.00  0.00    -0.189 NA
ATOM      5  C   UNL     1      -4.779   1.011  25.048  0.00  0.00    +0.339 C 
ATOM      6  O   UNL     1      -5.150   0.740  25.733  0.00  0.00    -0.249 OA
ATOM      7  N   UNL     1      -4.144   0.592  24.729  0.00  0.00    -0.185 NA
BRANCH   4   2
ATOM      1  C   UNL     1      -6.450   1.851  24.880  0.00  0.00    +0.023 C 
ATOM      2  C   UNL     1      -5.678   2.120  24.998  0.00  0.00    +0.097 C 
ATOM      3  C   UNL     1      -5.543   2.807  25.434  0.00  0.00    +0.023 C 
ENDBRANCH   4   2
ENDBRANCH   8   7
ENDBRANCH   9   8
BRANCH  11  12
ATOM     12  C   UNL     1      -1.173   0.523  24.420  0.00  0.00    +0.079 C 
BRANCH  12  13
ATOM     13  C   UNL     1      -1.039   1.217  24.844  0.00  0.00    +0.103 A 
ATOM     14  N   UNL     1      -0.634   1.277  25.561  0.00  0.00    -0.081 NA
ATOM     15  O   UNL     1      -0.631   2.070  25.785  0.00  0.00    -0.354 OA
ATOM     16  C   UNL     1      -1.033   2.501  25.208  0.00  0.00    +0.177 A 
ATOM     17  C   UNL     1      -1.285   1.974  24.626  0.00  0.00    +0.058 A 
BRANCH  16  18
ATOM     18  C   UNL     1      -1.160   3.316  25.212  0.00  0.00    +0.037 A 
ATOM     19  C   UNL     1      -1.862   3.623  25.520  0.00  0.00    +0.005 A 
ATOM     20  C   UNL     1      -1.989   4.438  25.523  0.00  0.00    +0.030 A 
ATOM     21  C   UNL     1      -1.414   4.947  25.219  0.00  0.00    +0.140 A 
ATOM     22  F   UNL     1      -1.541   5.762  25.223  0.00  0.00    -0.204 F 
ATOM     23  C   UNL     1      -0.713   4.640  24.911  0.00  0.00    +0.030 A 
ATOM     24  C   UNL     1      -0.586   3.825  24.908  0.00  0.00    +0.005 A 
ENDBRANCH  16  18
ENDBRANCH  12  13
ENDBRANCH  11  12
TORSDOF 6
ENDMDL
MODEL 6
REMARK VINA RESULT:     -11.2      2.216      5.091
REMARK  Name = 
REMARK  6 active torsions:
REMARK  status: ('A' for Active; 'I' for Inactive)
REMARK    1  A    between atoms: C_2  and  N_4
REMARK    2  A    between atoms: N_7  and  C_8
REMARK    3  A    between atoms: C_8  and  C_9
REMARK    4  A    between atoms: C_11  and  C_12
REMARK    5  A    between atoms: C_12  and  C_13
REMARK    6  A    between atoms: C_16  and  C_18
REMARK                            x       y       z     vdW  Elec       q    Type
REMARK                         _______ _______ _______ _____ _____    ______ ____
ROOT
ATOM      9  C   UNL     1      -0.592   1.691  25.018  0.00  0.00    +0.167 C 
ATOM     10  O   UNL     1      -1.178   2.154  25.372  0.00  0.00    -0.354 OA
ATOM     11  C   UNL     1      -1.136   2.976  25.326  0.00  0.00    +0.121 C 
ATOM     25  C   UNL     1      -0.509   3.336  24.928  0.00  0.00    +0.033 C 
ATOM     26  C   UNL     1       0.075   2.874  24.576  0.00  0.00    +0.038 C 
ATOM     27  C   UNL     1       0.034   2.051  24.620  0.00  0.00    +0.181 C 
ATOM     28  O   UNL     1       0.618   1.589  24.267  0.00  0.00    -0.220 OA
ENDROOT
BRANCH   9   8
ATOM      8  C   UNL     1      -0.634   0.868  25.063  0.00  0.00    +0.149 C 
BRANCH   8   7
ATOM      4  N   UNL     1      -2.119  -0.670  24.621  0.00  0.00    -0.189 NA
ATOM      5  C   UNL     1      -1.497  -0.268  24.985  0.00  0.00    +0.339 C 
ATOM      6  O   UNL     1      -1.115  -0.602  25.636  0.00  0.00    -0.249 OA
ATOM      7  N   UNL     1      -1.257   0.467  24.699  0.00  0.00    -0.185 NA
BRANCH   4   2
ATOM      1  C   UNL     1      -2.976  -1.453  25.455  0.00  0.00    +0.023 C 
ATOM      2  C   UNL     1      -2.359  -1.405  24.908  0.00  0.00    +0.097 C 
ATOM      3  C   UNL     1      -1.984  -2.092  24.648  0.00  0.00    +0.023 C 
ENDBRANCH   4   2
ENDBRANCH   8   7
ENDBRANCH   9   8
BRANCH  11  12
ATOM     12  C   UNL     1      -1.721   3.439  25.680  0.00  0.00    +0.079 C 
BRANCH  12  13
ATOM     13  C   UNL     1      -2.480   3.462  25.357  0.00  0.00    +0.103 A 
ATOM     14  N   UNL     1      -2.741   3.977  24.767  0.00  0.00    -0.081 NA
ATOM     15  O   UNL     1      -3.533   3.807  24.613  0.00  0.00    -0.354 OA
ATOM     16  C   UNL     1      -3.762   3.187  25.106  0.00  0.00    +0.177 A 
ATOM     17  C   UNL     1      -3.111   2.973  25.566  0.00  0.00    +0.058 A 
BRANCH  16  18
ATOM     18  C   UNL     1      -4.510   2.841  25.135  0.00  0.00    +0.037 A 
ATOM     19  C   UNL     1      -4.651   2.128  24.743  0.00  0.00    +0.005 A 
ATOM     20  C   UNL     1      -5.399   1.782  24.772  0.00  0.00    +0.030 A 
ATOM     21  C   UNL     1      -6.008   2.149  25.192  0.00  0.00    +0.140 A 
ATOM     22  F   UNL     1      -6.756   1.804  25.221  0.00  0.00    -0.204 F 
ATOM     23  C   UNL     1      -5.866   2.862  25.584  0.00  0.00    +0.030 A 
ATOM     24  C   UNL     1      -5.118   3.207  25.555  0.00  0.00    +0.005 A 
ENDBRANCH  16  18
ENDBRANCH  12  13
ENDBRANCH  11  12
TORSDOF 6
ENDMDL
