MODEL 1
REMARK VINA RESULT:     -12.0      0.000      0.000
REMARK  Name = 
REMARK  6 active torsions:
REMARK  status: ('A' for Active; 'I' for Inactive)
REMARK    1  A    between atoms: O_2  and  C_3
REMARK    2  A    between atoms: C_8  and  N_9
REMARK    3  A    between atoms: N_12  and  C_15
REMARK    4  A    between atoms: C_21  and  N_22
REMARK    5  A    between atoms: N_22  and  C_23
REMARK    6  A    between atoms: C_23  and  C_24
REMARK                            x       y       z     vdW  Elec       q    Type
REMARK                         _______ _______ _______ _____ _____    ______ ____
ROOT
ATOM     15  C   UNL     1      -3.417   1.882  24.594  0.00  0.00    +0.147 C 
ATOM     16  C   UNL     1      -4.343   1.601  24.676  0.00  0.00    +0.253 C 
ATOM     17  O   UNL     1      -4.641   0.772  24.629  0.00  0.00    -0.327 OA
ATOM     18  C   UNL     1      -4.154   1.310  24.625  0.00  0.00    +0.176 C 
ATOM     19  C   UNL     1      -4.046   2.078  24.688  0.00  0.00    +0.166 C 
ATOM     20  O   UNL     1      -4.702   2.335  24.791  0.00  0.00    -0.328 OA
ATOM     21  C   UNL     1      -3.164   2.361  24.612  0.00  0.00    +0.135 C 
ATOM     30  C   UNL     1      -2.806   1.622  24.497  0.00  0.00    +0.190 C 
ATOM     31  O   UNL     1      -2.215   1.060  24.371  0.00  0.00    -0.220 OA
ENDROOT
BRANCH  15  12
ATOM      9  N   UNL     1      -3.572  -0.578  24.370  0.00  0.00    -0.302 N 
ATOM     10  C   UNL     1      -3.500  -0.107  23.697  0.00  0.00    +0.108 C 
ATOM     11  C   UNL     1      -3.449   0.713  23.772  0.00  0.00    +0.094 C 
ATOM     12  N   UNL     1      -3.469   1.062  24.519  0.00  0.00    -0.265 NA
ATOM     13  C   UNL     1      -3.541   0.589  25.192  0.00  0.00    +0.094 C 
ATOM     14  C   UNL     1      -3.593  -0.230  25.118  0.00  0.00    +0.108 C 
BRANCH   9   8
ATOM      3  C   UNL     1      -2.982  -1.873  24.502  0.00  0.00    +0.152 A 
ATOM      4  C   UNL     1      -3.033  -2.693  24.427  0.00  0.00    +0.038 A 
ATOM      5  C   UNL     1      -3.726  -3.038  24.143  0.00  0.00    +0.003 A 
ATOM      6  C   UNL     1      -4.368  -2.563  23.934  0.00  0.00    +0.001 A 
ATOM      7  C   UNL     1      -4.317  -1.745  24.010  0.00  0.00    +0.018 A 
ATOM      8  C   UNL     1      -3.624  -1.398  24.294  0.00  0.00    +0.082 A 
BRANCH   3   2
ATOM      1  C   UNL     1      -1.619  -1.991  24.915  0.00  0.00    +0.253 C 
ATOM      2  O   UNL     1      -2.288  -1.527  24.787  0.00  0.00    -0.470 OA
ENDBRANCH   3   2
ENDBRANCH   9   8
ENDBRANCH  15  12
BRANCH  21  22
ATOM     22  N   UNL     1      -2.837   3.118  24.648  0.00  0.00    -0.208 NA
BRANCH  22  23
ATOM     23  C   UNL     1      -2.217   3.275  25.170  0.00  0.00    +0.134 C 
BRANCH  23  24
ATOM     24  C   UNL     1      -1.786   3.973  25.099  0.00  0.00    +0.077 A 
ATOM     25  N   UNL     1      -1.002   3.950  24.841  0.00  0.00    -0.247 NA
ATOM     26  C   UNL     1      -0.569   4.648  24.770  0.00  0.00    +0.098 A 
ATOM     27  C   UNL     1      -0.921   5.371  24.957  0.00  0.00    +0.021 A 
ATOM     28  C   UNL     1      -1.704   5.395  25.215  0.00  0.00    +0.003 A 
ATOM     29  C   UNL     1      -2.136   4.696  25.286  0.00  0.00    +0.016 A 
ENDBRANCH  23  24
ENDBRANCH  22  23
ENDBRANCH  21  22
TORSDOF 6
ENDMDL
MODEL 2
REMARK VINA RESULT:     -11.8      0.874      5.083
REMARK  Name = 
REMARK  6 active torsions:
REMARK  status: ('A' for Active; 'I' for Inactive)
REMARK    1  A    between atoms: O_2  and  C_3
REMARK    2  A    between atoms: C_8  and  N_9
REMARK    3  A    between atoms: N_12  and  C_15
REMARK    4  A    between atoms: C_21  and  N_22
REMARK    5  A    between atoms: N_22  and  C_23
REMARK    6  A    between atoms: C_23  and  C_24
REMARK                            x       y       z     vdW  Elec       q    Type
REMARK                         _______ _______ _______ _____ _____    ______ ____
ROOT
ATOM     15  C   UNL     1      -3.812   1.228  24.531  0.00  0.00    +0.147 C 
ATOM     16  C   UNL     1      -4.379   1.987  24.744  0.00  0.00    +0.253 C 
ATOM     17  O   UNL     1      -4.109   2.815  24.885  0.00  0.00    -0.327 OA
ATOM     18  C   UNL     1      -4.050   2.108  24.735  0.00  0.00    +0.176 C 
ATOM     19  C   UNL     1      -4.435   1.438  24.638  0.00  0.00    +0.166 C 
ATOM     20  O   UNL     1      -5.116   1.616  24.744  0.00  0.00    -0.328 OA
ATOM     21  C   UNL     1      -3.904   0.703  24.434  0.00  0.00    +0.135 C 
ATOM     30  C   UNL     1      -3.165   1.079  24.435  0.00  0.00    +0.190 C 
ATOM     31  O   UNL     1      -2.349   1.180  24.372  0.00  0.00    -0.220 OA
ENDROOT
BRANCH  15  12
ATOM      9  N   UNL     1      -2.428   3.262  24.803  0.00  0.00    -0.302 N 
ATOM     10  C   UNL     1      -2.743   3.074  24.065  0.00  0.00    +0.108 C 
ATOM     11  C   UNL     1      -3.204   2.396  23.974  0.00  0.00    +0.094 C 
ATOM     12  N   UNL     1      -3.351   1.906  24.622  0.00  0.00    -0.265 NA
ATOM     13  C   UNL     1      -3.035   2.095  25.361  0.00  0.00    +0.094 C 
ATOM     14  C   UNL     1      -2.574   2.773  25.452  0.00  0.00    +0.108 C 
BRANCH   9   8
ATOM      3  C   UNL     1      -1.155   3.909  24.747  0.00  0.00    +0.152 A 
ATOM      4  C   UNL     1      -0.693   4.586  24.836  0.00  0.00    +0.038 A 
ATOM      5  C   UNL     1      -1.042   5.295  25.072  0.00  0.00    +0.003 A 
ATOM      6  C   UNL     1      -1.854   5.326  25.219  0.00  0.00    +0.001 A 
ATOM      7  C   UNL     1      -2.315   4.649  25.130  0.00  0.00    +0.018 A 
ATOM      8  C   UNL     1      -1.966   3.940  24.893  0.00  0.00    +0.082 A 
BRANCH   3   2
ATOM      1  C   UNL     1       0.007   3.166  24.373  0.00  0.00    +0.253 C 
ATOM      2  O   UNL     1      -0.805   3.199  24.510  0.00  0.00    -0.470 OA
ENDBRANCH   3   2
ENDBRANCH   9   8
ENDBRANCH  15  12
BRANCH  21  22
ATOM     22  N   UNL     1      -4.107  -0.085  24.294  0.00  0.00    -0.208 NA
BRANCH  22  23
ATOM     23  C   UNL     1      -3.902  -0.667  24.842  0.00  0.00    +0.134 C 
BRANCH  23  24
ATOM     24  C   UNL     1      -3.890  -1.460  24.617  0.00  0.00    +0.077 A 
ATOM     25  N   UNL     1      -4.285  -1.700  23.933  0.00  0.00    -0.247 NA
ATOM     26  C   UNL     1      -4.273  -2.493  23.707  0.00  0.00    +0.098 A 
ATOM     27  C   UNL     1      -3.867  -3.046  24.165  0.00  0.00    +0.021 A 
ATOM     28  C   UNL     1      -3.472  -2.806  24.849  0.00  0.00    +0.003 A 
ATOM     29  C   UNL     1      -3.484  -2.013  25.074  0.00  0.00    +0.016 A 
ENDBRANCH  23  24
ENDBRANCH  22  23
ENDBRANCH  21  22
TORSDOF 6
ENDMDL
MODEL 3
REMARK VINA RESULT:     -11.6      1.428      5.473
REMARK  Name = 
REMARK  6 active torsions:
REMARK  status: ('A' for Active; 'I' for Inactive)
REMARK    1  A    between atoms: O_2  and  C_3
REMARK    2  A    between atoms: C_8  and  N_9
REMARK    3  A    between atoms: N_12  and  C_15
REMARK    4  A    between atoms: C_21  and  N_22
REMARK    5  A    between atoms: N_22  and  C_23
REMARK    6  A    between atoms: C_23  and  C_24
REMARK                            x       y       z     vdW  Elec       q    Type
REMARK                         _______ _______ _______ _____ _____    ______ ____
ROOT
ATOM     15  C   UNL     1      -1.549   0.487  24.645  0.00  0.00    +0.147 C 
ATOM     16  C   UNL     1      -0.639   0.767  24.455  0.00  0.00    +0.253 C 
ATOM     17  O   UNL     1      -0.337   1.596  24.471  0.00  0.00    -0.327 OA
ATOM     18  C   UNL     1      -0.820   1.058  24.530  0.00  0.00    +0.176 C 
ATOM     19  C   UNL     1      -0.936   0.291  24.476  0.00  0.00    +0.166 C 
ATOM     20  O   UNL     1      -0.297   0.034  24.295  0.00  0.00    -0.328 OA
ATOM     21  C   UNL     1      -1.803   0.008  24.655  0.00  0.00    +0.135 C 
ATOM     30  C   UNL     1      -2.144   0.746  24.816  0.00  0.00    +0.190 C 
ATOM     31  O   UNL     1      -2.716   1.307  25.014  0.00  0.00    -0.220 OA
ENDROOT
BRANCH  15  12
ATOM      9  N   UNL     1      -1.366   2.945  24.862  0.00  0.00    -0.302 N 
ATOM     10  C   UNL     1      -1.637   2.613  24.158  0.00  0.00    +0.108 C 
ATOM     11  C   UNL     1      -1.698   1.794  24.086  0.00  0.00    +0.094 C 
ATOM     12  N   UNL     1      -1.488   1.306  24.717  0.00  0.00    -0.265 NA
ATOM     13  C   UNL     1      -1.217   1.640  25.422  0.00  0.00    +0.094 C 
ATOM     14  C   UNL     1      -1.156   2.459  25.494  0.00  0.00    +0.108 C 
BRANCH   9   8
ATOM      3  C   UNL     1      -1.893   4.189  25.328  0.00  0.00    +0.152 A 
ATOM      4  C   UNL     1      -1.833   5.009  25.400  0.00  0.00    +0.038 A 
ATOM      5  C   UNL     1      -1.185   5.405  25.078  0.00  0.00    +0.003 A 
ATOM      6  C   UNL     1      -0.597   4.981  24.683  0.00  0.00    +0.001 A 
ATOM      7  C   UNL     1      -0.657   4.162  24.611  0.00  0.00    +0.018 A 
ATOM      8  C   UNL     1      -1.305   3.765  24.934  0.00  0.00    +0.082 A 
BRANCH   3   2
ATOM      1  C   UNL     1      -3.116   4.214  26.066  0.00  0.00    +0.253 C 
ATOM      2  O   UNL     1      -2.542   3.793  25.651  0.00  0.00    -0.470 OA
ENDBRANCH   3   2
ENDBRANCH   9   8
ENDBRANCH  15  12
BRANCH  21  22
ATOM     22  N   UNL     1      -2.133  -0.749  24.654  0.00  0.00    -0.208 NA
BRANCH  22  23
ATOM     23  C   UNL     1      -2.952  -0.841  24.611  0.00  0.00    +0.134 C 
BRANCH  23  24
ATOM     24  C   UNL     1      -3.276  -1.591  24.500  0.00  0.00    +0.077 A 
ATOM     25  N   UNL     1      -2.981  -2.235  24.923  0.00  0.00    -0.247 NA
ATOM     26  C   UNL     1      -3.305  -2.986  24.812  0.00  0.00    +0.098 A 
ATOM     27  C   UNL     1      -3.926  -3.091  24.278  0.00  0.00    +0.021 A 
ATOM     28  C   UNL     1      -4.221  -2.447  23.856  0.00  0.00    +0.003 A 
ATOM     29  C   UNL     1      -3.896  -1.697  23.967  0.00  0.00    +0.016 A 
ENDBRANCH  23  24
ENDBRANCH  22  23
ENDBRANCH  21  22
TORSDOF 6
ENDMDL
MODEL 4
REMARK VINA RESULT:     -10.5      1.401      2.128
REMARK  Name = 
REMARK  6 active torsions:
REMARK  status: ('A' for Active; 'I' for Inactive)
REMARK    1  A    between atoms: O_2  and  C_3
REMARK    2  A    between atoms: C_8  and  N_9
REMARK    3  A    between atoms: N_12  and  C_15
REMARK    4  A    between atoms: C_21  and  N_22
REMARK    5  A    between atoms: N_22  and  C_23
REMARK    6  A    between atoms: C_23  and  C_24
REMARK                            x       y       z     vdW  Elec       q    Type
REMARK                         _______ _______ _______ _____ _____    ______ ____
ROOT
ATOM     15  C   UNL     1      -1.245   1.263  25.066  0.00  0.00    +0.147 C 
ATOM     16  C   UNL     1      -0.569   0.576  24.951  0.00  0.00    +0.253 C 
ATOM     17  O   UNL     1      -0.718  -0.284  24.819  0.00  0.00    -0.327 OA
ATOM     18  C   UNL     1      -0.879   0.415  24.930  0.00  0.00    +0.176 C 
ATOM     19  C   UNL     1      -0.593   1.131  25.037  0.00  0.00    +0.166 C 
ATOM     20  O   UNL     1       0.112   1.038  25.013  0.00  0.00    -0.328 OA
ATOM     21  C   UNL     1      -1.230   1.798  25.149  0.00  0.00    +0.135 C 
ATOM     30  C   UNL     1      -1.912   1.332  25.087  0.00  0.00    +0.190 C 
ATOM     31  O   UNL     1      -2.712   1.130  25.066  0.00  0.00    -0.220 OA
ENDROOT
BRANCH  15  12
ATOM      9  N   UNL     1      -2.330  -0.937  24.740  0.00  0.00    -0.302 N 
ATOM     10  C   UNL     1      -2.104  -0.488  24.087  0.00  0.00    +0.108 C 
ATOM     11  C   UNL     1      -1.742   0.245  24.195  0.00  0.00    +0.094 C 
ATOM     12  N   UNL     1      -1.607   0.530  24.958  0.00  0.00    -0.265 NA
ATOM     13  C   UNL     1      -1.833   0.080  25.612  0.00  0.00    +0.094 C 
ATOM     14  C   UNL     1      -2.194  -0.654  25.503  0.00  0.00    +0.108 C 
BRANCH   9   8
ATOM      3  C   UNL     1      -3.490  -1.710  24.424  0.00  0.00    +0.152 A 
ATOM      4  C   UNL     1      -3.852  -2.443  24.314  0.00  0.00    +0.038 A 
ATOM      5  C   UNL     1      -3.416  -3.137  24.411  0.00  0.00    +0.003 A 
ATOM      6  C   UNL     1      -2.618  -3.098  24.617  0.00  0.00    +0.001 A 
ATOM      7  C   UNL     1      -2.256  -2.365  24.727  0.00  0.00    +0.018 A 
ATOM      8  C   UNL     1      -2.691  -1.671  24.631  0.00  0.00    +0.082 A 
BRANCH   3   2
ATOM      1  C   UNL     1      -4.716  -1.054  24.096  0.00  0.00    +0.253 C 
ATOM      2  O   UNL     1      -3.926  -1.016  24.328  0.00  0.00    -0.470 OA
ENDBRANCH   3   2
ENDBRANCH   9   8
ENDBRANCH  15  12
BRANCH  21  22
ATOM     22  N   UNL     1      -1.142   2.610  25.274  0.00  0.00    -0.208 NA
BRANCH  22  23
ATOM     23  C   UNL     1      -1.593   3.145  24.837  0.00  0.00    +0.134 C 
BRANCH  23  24
ATOM     24  C   UNL     1      -1.459   3.955  24.913  0.00  0.00    +0.077 A 
ATOM     25  N   UNL     1      -0.748   4.282  24.650  0.00  0.00    -0.247 NA
ATOM     26  C   UNL     1      -0.614   5.093  24.726  0.00  0.00    +0.098 A 
ATOM     27  C   UNL     1      -1.190   5.576  25.065  0.00  0.00    +0.021 A 
ATOM     28  C   UNL     1      -1.901   5.249  25.328  0.00  0.00    +0.003 A 
ATOM     29  C   UNL     1      -2.035   4.439  25.252  0.00  0.00    +0.016 A 
ENDBRANCH  23  24
ENDBRANCH  22  23
ENDBRANCH  21  22
TORSDOF 6
ENDMDL
MODEL 5
REMARK VINA RESULT:      -9.5      2.703      4.228
REMARK  Name = 
REMARK  6 active torsions:
REMARK  status: ('A' for Active; 'I' for Inactive)
REMARK    1  A    between atoms: O_2  and  C_3
REMARK    2  A    between atoms: C_8  and  N_9
REMARK    3  A    between atoms: N_12  and  C_15
REMARK    4  A    between atoms: C_21  and  N_22
REMARK    5  A    between atoms: N_22  and  C_23
REMARK    6  A    between atoms: C_23  and  C_24
REMARK                            x       y       z     vdW  Elec       q    Type
REMARK                         _______ _______ _______ _____ _____    ______ ____
ROOT
ATOM     15  C   UNL     1      -0.880   0.548  24.393  0.00  0.00    +0.147 C 
ATOM     16  C   UNL     1      -1.309   0.019  25.086  0.00  0.00    +0.253 C 
ATOM     17  O   UNL     1      -2.146   0.095  25.354  0.00  0.00    -0.327 OA
ATOM     18  C   UNL     1      -1.551   0.243  24.966  0.00  0.00    +0.176 C 
ATOM     19  C   UNL     1      -0.806   0.060  24.840  0.00  0.00    +0.166 C 
ATOM     20  O   UNL     1      -0.678  -0.467  25.302  0.00  0.00    -0.328 OA
ATOM     21  C   UNL     1      -0.383   0.558  24.179  0.00  0.00    +0.135 C 
ATOM     30  C   UNL     1      -1.018   1.045  23.964  0.00  0.00    +0.190 C 
ATOM     31  O   UNL     1      -1.445   1.629  23.567  0.00  0.00    -0.220 OA
ENDROOT
BRANCH  15  12
ATOM      9  N   UNL     1      -3.235   1.263  24.658  0.00  0.00    -0.302 N 
ATOM     10  C   UNL     1      -3.032   0.723  24.069  0.00  0.00    +0.108 C 
ATOM     11  C   UNL     1      -2.247   0.484  23.980  0.00  0.00    +0.094 C 
ATOM     12  N   UNL     1      -1.665   0.786  24.481  0.00  0.00    -0.265 NA
ATOM     13  C   UNL     1      -1.869   1.326  25.071  0.00  0.00    +0.094 C 
ATOM     14  C   UNL     1      -2.653   1.565  25.159  0.00  0.00    +0.108 C 
BRANCH   9   8
ATOM      3  C   UNL     1      -4.237   2.278  24.572  0.00  0.00    +0.152 A 
ATOM      4  C   UNL     1      -5.022   2.516  24.659  0.00  0.00    +0.038 A 
ATOM      5  C   UNL     1      -5.590   1.978  24.920  0.00  0.00    +0.003 A 
ATOM      6  C   UNL     1      -5.373   1.201  25.094  0.00  0.00    +0.001 A 
ATOM      7  C   UNL     1      -4.589   0.963  25.007  0.00  0.00    +0.018 A 
ATOM      8  C   UNL     1      -4.020   1.501  24.746  0.00  0.00    +0.082 A 
BRANCH   3   2
ATOM      1  C   UNL     1      -3.887   3.590  24.128  0.00  0.00    +0.253 C 
ATOM      2  O   UNL     1      -3.669   2.817  24.311  0.00  0.00    -0.470 OA
ENDBRANCH   3   2
ENDBRANCH   9   8
ENDBRANCH  15  12
BRANCH  21  22
ATOM     22  N   UNL     1       0.392   0.526  23.894  0.00  0.00    -0.208 NA
BRANCH  22  23
ATOM     23  C   UNL     1       0.553   0.143  23.181  0.00  0.00    +0.134 C 
BRANCH  23  24
ATOM     24  C   UNL     1       1.316   0.154  22.870  0.00  0.00    +0.077 A 
ATOM     25  N   UNL     1       1.911   0.580  23.253  0.00  0.00    -0.247 NA
ATOM     26  C   UNL     1       2.675   0.591  22.943  0.00  0.00    +0.098 A 
ATOM     27  C   UNL     1       2.845   0.177  22.250  0.00  0.00    +0.021 A 
ATOM     28  C   UNL     1       2.250  -0.248  21.867  0.00  0.00    +0.003 A 
ATOM     29  C   UNL     1       1.486  -0.260  22.177  0.00  0.00    +0.016 A 
ENDBRANCH  23  24
ENDBRANCH  22  23
ENDBRANCH  21  22
TORSDOF 6
ENDMDL
