REMARK  Name = 
REMARK  7 active torsions:
REMARK  status: ('A' for Active; 'I' for Inactive)
REMARK    1  A    between atoms: O_2  and  C_3
REMARK    2  A    between atoms: C_8  and  O_9
REMARK    3  A    between atoms: C_11  and  C_12
REMARK    4  A    between atoms: C_12  and  C_13
REMARK    5  A    between atoms: C_18  and  C_19
REMARK    6  A    between atoms: C_19  and  C_20
REMARK    7  A    between atoms: C_23  and  C_25
REMARK                            x       y       z     vdW  Elec       q    Type
REMARK                         _______ _______ _______ _____ _____    ______ ____
ROOT
ATOM     13  C   UNL     1       2.143   1.238   0.000  0.00  0.00    +0.026 C 
ATOM     14  C   UNL     1       2.143   2.062   0.000  0.00  0.00    +0.094 C 
ATOM     15  N   UNL     1       2.858   2.475   0.000  0.00  0.00    -0.276 N 
ATOM     16  C   UNL     1       3.572   2.062   0.000  0.00  0.00    +0.094 C 
ATOM     17  C   UNL     1       3.572   1.238   0.000  0.00  0.00    +0.022 C 
ATOM     18  C   UNL     1       2.858   0.825   0.000  0.00  0.00    +0.015 C 
ATOM     23  C   UNL     1       2.858   3.300   0.000  0.00  0.00    +0.255 C 
ATOM     24  O   UNL     1       2.143   3.712   0.000  0.00  0.00    -0.269 OA
ENDROOT
BRANCH  23  25
ATOM     25  C   UNL     1       3.572   3.712   0.000  0.00  0.00    +0.083 A 
ATOM     26  C   UNL     1       3.659   4.533   0.000  0.00  0.00    +0.012 A 
ATOM     27  C   UNL     1       4.466   4.705   0.000  0.00  0.00    +0.008 A 
ATOM     28  C   UNL     1       4.878   3.990   0.000  0.00  0.00    +0.036 A 
ATOM     29  S   UNL     1       4.326   3.377   0.000  0.00  0.00    -0.082 S 
ENDBRANCH  23  25
BRANCH  13  12
ATOM     12  C   UNL     1       1.429   0.825   0.000  0.00  0.00    +0.047 C 
BRANCH  12  11
ATOM      3  C   UNL     1      -0.715  -1.238   0.000  0.00  0.00    +0.172 A 
ATOM      4  C   UNL     1       0.000  -1.650   0.000  0.00  0.00    +0.036 A 
ATOM      5  C   UNL     1       0.715  -1.238   0.000  0.00  0.00    -0.016 A 
ATOM      6  C   UNL     1       0.715  -0.412   0.000  0.00  0.00    +0.012 A 
ATOM      7  C   UNL     1       0.000   0.000   0.000  0.00  0.00    +0.041 A 
ATOM      8  C   UNL     1      -0.715  -0.412   0.000  0.00  0.00    +0.172 A 
ATOM     11  C   UNL     1       1.429   0.000   0.000  0.00  0.00    +0.054 C 
ATOM     30  N   UNL     1       2.143  -0.412   0.000  0.00  0.00    -0.274 NA
ATOM     31  C   UNL     1       2.143  -1.238   0.000  0.00  0.00    +0.130 C 
ATOM     32  C   UNL     1       1.429  -1.650   0.000  0.00  0.00    +0.053 C 
BRANCH   3   2
ATOM      1  C   UNL     1      -2.143  -1.238   0.000  0.00  0.00    +0.253 C 
ATOM      2  O   UNL     1      -1.429  -1.650   0.000  0.00  0.00    -0.468 OA
ENDBRANCH   3   2
BRANCH   8   9
ATOM      9  O   UNL     1      -1.429   0.000   0.000  0.00  0.00    -0.468 OA
ATOM     10  C   UNL     1      -2.143  -0.412   0.000  0.00  0.00    +0.253 C 
ENDBRANCH   8   9
ENDBRANCH  12  11
ENDBRANCH  13  12
BRANCH  18  19
ATOM     19  C   UNL     1       2.858   0.000   0.000  0.00  0.00    +0.114 C 
BRANCH  19  20
ATOM     20  C   UNL     1       3.572  -0.412   0.000  0.00  0.00    +0.365 C 
ATOM     21  O   UNL     1       4.287   0.000   0.000  0.00  0.00    -0.246 OA
ATOM     22  O   UNL     1       3.572  -1.238   0.000  0.00  0.00    -0.246 OA
ENDBRANCH  19  20
ENDBRANCH  18  19
TORSDOF 7
