MODEL 1
REMARK VINA RESULT:     -14.7      0.000      0.000
REMARK  Name = 
REMARK  3 active torsions:
REMARK  status: ('A' for Active; 'I' for Inactive)
REMARK    1  A    between atoms: S_2  and  C_3
REMARK    2  A    between atoms: C_6  and  C_9
REMARK    3  A    between atoms: N_21  and  C_22
REMARK                            x       y       z     vdW  Elec       q    Type
REMARK                         _______ _______ _______ _____ _____    ______ ____
ROOT
ATOM      9  C   UNL     1      -4.386   0.710  24.973  0.00  0.00    +0.056 A 
ATOM     10  C   UNL     1      -5.182   0.869  25.125  0.00  0.00    +0.006 A 
ATOM     11  C   UNL     1      -5.434   1.646  25.236  0.00  0.00    +0.013 A 
ATOM     12  C   UNL     1      -4.890   2.265  25.195  0.00  0.00    +0.041 A 
ATOM     13  C   UNL     1      -4.845   3.181  25.265  0.00  0.00    +0.058 C 
ATOM     14  C   UNL     1      -5.246   3.744  25.384  0.00  0.00    +0.011 C 
ATOM     15  C   UNL     1      -4.461   3.584  25.233  0.00  0.00    +0.043 C 
ATOM     16  C   UNL     1      -3.488   3.595  25.064  0.00  0.00    +0.097 C 
ATOM     17  N   UNL     1      -3.353   2.776  24.970  0.00  0.00    -0.262 N 
ATOM     18  C   UNL     1      -3.904   3.207  25.104  0.00  0.00    +0.101 C 
ATOM     19  C   UNL     1      -2.940   2.074  24.838  0.00  0.00    +0.323 C 
ATOM     20  O   UNL     1      -3.339   1.352  24.845  0.00  0.00    -0.251 OA
ATOM     21  N   UNL     1      -2.127   2.095  24.698  0.00  0.00    -0.190 NA
ATOM     25  C   UNL     1      -4.499   2.628  25.158  0.00  0.00    +0.110 C 
ATOM     26  N   UNL     1      -4.095   2.107  25.042  0.00  0.00    -0.299 N 
ATOM     27  C   UNL     1      -3.843   1.329  24.931  0.00  0.00    +0.261 A 
ATOM     28  O   UNL     1      -3.139   0.930  24.774  0.00  0.00    -0.267 OA
ENDROOT
BRANCH   9   6
ATOM      3  C   UNL     1      -3.633  -1.623  24.639  0.00  0.00    +0.025 A 
ATOM      4  C   UNL     1      -3.618  -1.290  25.393  0.00  0.00    +0.006 A 
ATOM      5  C   UNL     1      -3.870  -0.511  25.505  0.00  0.00    +0.001 A 
ATOM      6  C   UNL     1      -4.135  -0.067  24.862  0.00  0.00    +0.005 A 
ATOM      7  C   UNL     1      -4.149  -0.402  24.108  0.00  0.00    +0.001 A 
ATOM      8  C   UNL     1      -3.898  -1.179  23.996  0.00  0.00    +0.006 A 
BRANCH   3   2
ATOM      1  C   UNL     1      -2.577  -2.568  24.457  0.00  0.00    +0.074 C 
ATOM      2  S   UNL     1      -3.381  -2.402  24.527  0.00  0.00    -0.113 S 
ENDBRANCH   3   2
ENDBRANCH   9   6
BRANCH  21  22
ATOM     22  C   UNL     1      -1.713   1.393  24.565  0.00  0.00    +0.097 C 
ATOM     23  C   UNL     1      -1.385   0.981  25.201  0.00  0.00    +0.023 C 
ATOM     24  C   UNL     1      -1.628   1.103  23.797  0.00  0.00    +0.023 C 
ENDBRANCH  21  22
TORSDOF 3
ENDMDL
MODEL 2
REMARK VINA RESULT:     -14.4      1.858      3.970
REMARK  Name = 
REMARK  3 active torsions:
REMARK  status: ('A' for Active; 'I' for Inactive)
REMARK    1  A    between atoms: S_2  and  C_3
REMARK    2  A    between atoms: C_6  and  C_9
REMARK    3  A    between atoms: N_21  and  C_22
REMARK                            x       y       z     vdW  Elec       q    Type
REMARK                         _______ _______ _______ _____ _____    ______ ____
ROOT
ATOM      9  C   UNL     1      -3.670   0.141  24.315  0.00  0.00    +0.056 A 
ATOM     10  C   UNL     1      -4.370  -0.271  24.173  0.00  0.00    +0.006 A 
ATOM     11  C   UNL     1      -4.374  -1.096  24.188  0.00  0.00    +0.013 A 
ATOM     12  C   UNL     1      -3.677  -1.508  24.346  0.00  0.00    +0.041 A 
ATOM     13  C   UNL     1      -3.359  -2.366  24.431  0.00  0.00    +0.058 C 
ATOM     14  C   UNL     1      -3.567  -3.036  24.399  0.00  0.00    +0.011 C 
ATOM     15  C   UNL     1      -2.877  -2.625  24.539  0.00  0.00    +0.043 C 
ATOM     16  C   UNL     1      -1.959  -2.315  24.730  0.00  0.00    +0.097 C 
ATOM     17  N   UNL     1      -2.078  -1.490  24.688  0.00  0.00    -0.262 N 
ATOM     18  C   UNL     1      -2.466  -2.082  24.617  0.00  0.00    +0.101 C 
ATOM     19  C   UNL     1      -1.900  -0.684  24.711  0.00  0.00    +0.323 C 
ATOM     20  O   UNL     1      -2.493  -0.126  24.573  0.00  0.00    -0.251 OA
ATOM     21  N   UNL     1      -1.130  -0.436  24.871  0.00  0.00    -0.190 NA
ATOM     25  C   UNL     1      -3.200  -1.725  24.452  0.00  0.00    +0.110 C 
ATOM     26  N   UNL     1      -2.977  -1.096  24.488  0.00  0.00    -0.299 N 
ATOM     27  C   UNL     1      -2.973  -0.271  24.472  0.00  0.00    +0.261 A 
ATOM     28  O   UNL     1      -2.431   0.342  24.577  0.00  0.00    -0.267 OA
ENDROOT
BRANCH   9   6
ATOM      3  C   UNL     1      -3.663   2.615  24.270  0.00  0.00    +0.025 A 
ATOM      4  C   UNL     1      -3.475   2.191  23.588  0.00  0.00    +0.006 A 
ATOM      5  C   UNL     1      -3.477   1.365  23.603  0.00  0.00    +0.001 A 
ATOM      6  C   UNL     1      -3.667   0.966  24.299  0.00  0.00    +0.005 A 
ATOM      7  C   UNL     1      -3.855   1.391  24.981  0.00  0.00    +0.001 A 
ATOM      8  C   UNL     1      -3.853   2.216  24.966  0.00  0.00    +0.006 A 
BRANCH   3   2
ATOM      1  C   UNL     1      -3.139   3.860  24.736  0.00  0.00    +0.074 C 
ATOM      2  S   UNL     1      -3.660   3.441  24.255  0.00  0.00    -0.113 S 
ENDBRANCH   3   2
ENDBRANCH   9   6
BRANCH  21  22
ATOM     22  C   UNL     1      -0.952   0.369  24.893  0.00  0.00    +0.097 C 
ATOM     23  C   UNL     1      -0.709   0.757  24.207  0.00  0.00    +0.023 C 
ATOM     24  C   UNL     1      -1.017   0.787  25.603  0.00  0.00    +0.023 C 
ENDBRANCH  21  22
TORSDOF 3
ENDMDL
MODEL 3
REMARK VINA RESULT:     -13.6      1.134      2.494
REMARK  Name = 
REMARK  3 active torsions:
REMARK  status: ('A' for Active; 'I' for Inactive)
REMARK    1  A    between atoms: S_2  and  C_3
REMARK    2  A    between atoms: C_6  and  C_9
REMARK    3  A    between atoms: N_21  and  C_22
REMARK                            x       y       z     vdW  Elec       q    Type
REMARK                         _______ _______ _______ _____ _____    ______ ____
ROOT
ATOM      9  C   UNL     1      -2.853   2.141  24.759  0.00  0.00    +0.056 A 
ATOM     10  C   UNL     1      -2.828   2.962  24.841  0.00  0.00    +0.006 A 
ATOM     11  C   UNL     1      -3.511   3.378  25.041  0.00  0.00    +0.013 A 
ATOM     12  C   UNL     1      -4.220   2.973  25.159  0.00  0.00    +0.041 A 
ATOM     13  C   UNL     1      -5.101   3.124  25.375  0.00  0.00    +0.058 C 
ATOM     14  C   UNL     1      -5.548   3.642  25.532  0.00  0.00    +0.011 C 
ATOM     15  C   UNL     1      -5.569   2.831  25.450  0.00  0.00    +0.043 C 
ATOM     16  C   UNL     1      -5.795   1.871  25.399  0.00  0.00    +0.097 C 
ATOM     17  N   UNL     1      -5.046   1.562  25.195  0.00  0.00    -0.262 N 
ATOM     18  C   UNL     1      -5.334   2.199  25.329  0.00  0.00    +0.101 C 
ATOM     19  C   UNL     1      -4.470   1.003  25.004  0.00  0.00    +0.323 C 
ATOM     20  O   UNL     1      -3.694   1.243  24.854  0.00  0.00    -0.251 OA
ATOM     21  N   UNL     1      -4.669   0.203  24.964  0.00  0.00    -0.190 NA
ATOM     25  C   UNL     1      -4.652   2.664  25.224  0.00  0.00    +0.110 C 
ATOM     26  N   UNL     1      -4.246   2.153  25.077  0.00  0.00    -0.299 N 
ATOM     27  C   UNL     1      -3.562   1.737  24.877  0.00  0.00    +0.261 A 
ATOM     28  O   UNL     1      -3.338   0.955  24.742  0.00  0.00    -0.267 OA
ENDROOT
BRANCH   9   6
ATOM      3  C   UNL     1      -0.801   0.896  24.157  0.00  0.00    +0.025 A 
ATOM      4  C   UNL     1      -0.985   1.027  24.950  0.00  0.00    +0.006 A 
ATOM      5  C   UNL     1      -1.670   1.443  25.151  0.00  0.00    +0.001 A 
ATOM      6  C   UNL     1      -2.169   1.726  24.559  0.00  0.00    +0.005 A 
ATOM      7  C   UNL     1      -1.984   1.595  23.766  0.00  0.00    +0.001 A 
ATOM      8  C   UNL     1      -1.300   1.180  23.565  0.00  0.00    +0.006 A 
BRANCH   3   2
ATOM      1  C   UNL     1      -0.121  -0.343  23.955  0.00  0.00    +0.074 C 
ATOM      2  S   UNL     1      -0.116   0.481  23.956  0.00  0.00    -0.113 S 
ENDBRANCH   3   2
ENDBRANCH   9   6
BRANCH  21  22
ATOM     22  C   UNL     1      -4.093  -0.356  24.773  0.00  0.00    +0.097 C 
ATOM     23  C   UNL     1      -3.649  -0.712  25.371  0.00  0.00    +0.023 C 
ATOM     24  C   UNL     1      -3.961  -0.560  23.984  0.00  0.00    +0.023 C 
ENDBRANCH  21  22
TORSDOF 3
ENDMDL
MODEL 4
REMARK VINA RESULT:     -13.5      1.828      4.198
REMARK  Name = 
REMARK  3 active torsions:
REMARK  status: ('A' for Active; 'I' for Inactive)
REMARK    1  A    between atoms: S_2  and  C_3
REMARK    2  A    between atoms: C_6  and  C_9
REMARK    3  A    between atoms: N_21  and  C_22
REMARK                            x       y       z     vdW  Elec       q    Type
REMARK                         _______ _______ _______ _____ _____    ______ ____
ROOT
ATOM      9  C   UNL     1      -1.662  -0.421  24.869  0.00  0.00    +0.056 A 
ATOM     10  C   UNL     1      -1.322  -1.156  25.027  0.00  0.00    +0.006 A 
ATOM     11  C   UNL     1      -1.764  -1.845  24.928  0.00  0.00    +0.013 A 
ATOM     12  C   UNL     1      -2.547  -1.799  24.671  0.00  0.00    +0.041 A 
ATOM     13  C   UNL     1      -3.265  -2.337  24.472  0.00  0.00    +0.058 C 
ATOM     14  C   UNL     1      -3.459  -3.011  24.452  0.00  0.00    +0.011 C 
ATOM     15  C   UNL     1      -3.792  -2.283  24.298  0.00  0.00    +0.043 C 
ATOM     16  C   UNL     1      -4.363  -1.512  24.063  0.00  0.00    +0.097 C 
ATOM     17  N   UNL     1      -3.821  -0.890  24.199  0.00  0.00    -0.262 N 
ATOM     18  C   UNL     1      -3.829  -1.601  24.242  0.00  0.00    +0.101 C 
ATOM     19  C   UNL     1      -3.530  -0.120  24.244  0.00  0.00    +0.323 C 
ATOM     20  O   UNL     1      -2.753   0.014  24.488  0.00  0.00    -0.251 OA
ATOM     21  N   UNL     1      -4.015   0.517  24.046  0.00  0.00    -0.190 NA
ATOM     25  C   UNL     1      -3.047  -1.714  24.503  0.00  0.00    +0.110 C 
ATOM     26  N   UNL     1      -2.887  -1.064  24.513  0.00  0.00    -0.299 N 
ATOM     27  C   UNL     1      -2.444  -0.375  24.613  0.00  0.00    +0.261 A 
ATOM     28  O   UNL     1      -2.550   0.439  24.526  0.00  0.00    -0.267 OA
ENDROOT
BRANCH   9   6
ATOM      3  C   UNL     1      -0.334   1.645  25.170  0.00  0.00    +0.025 A 
ATOM      4  C   UNL     1      -0.333   1.257  24.442  0.00  0.00    +0.006 A 
ATOM      5  C   UNL     1      -0.776   0.568  24.342  0.00  0.00    +0.001 A 
ATOM      6  C   UNL     1      -1.219   0.268  24.969  0.00  0.00    +0.005 A 
ATOM      7  C   UNL     1      -1.220   0.656  25.697  0.00  0.00    +0.001 A 
ATOM      8  C   UNL     1      -0.777   1.345  25.797  0.00  0.00    +0.006 A 
BRANCH   3   2
ATOM      1  C   UNL     1      -0.268   3.042  25.460  0.00  0.00    +0.074 C 
ATOM      2  S   UNL     1       0.109   2.335  25.270  0.00  0.00    -0.113 S 
ENDBRANCH   3   2
ENDBRANCH   9   6
BRANCH  21  22
ATOM     22  C   UNL     1      -3.724   1.288  24.091  0.00  0.00    +0.097 C 
ATOM     23  C   UNL     1      -3.810   1.721  24.788  0.00  0.00    +0.023 C 
ATOM     24  C   UNL     1      -3.346   1.625  23.439  0.00  0.00    +0.023 C 
ENDBRANCH  21  22
TORSDOF 3
ENDMDL
MODEL 5
REMARK VINA RESULT:     -13.4      1.588      2.597
REMARK  Name = 
REMARK  3 active torsions:
REMARK  status: ('A' for Active; 'I' for Inactive)
REMARK    1  A    between atoms: S_2  and  C_3
REMARK    2  A    between atoms: C_6  and  C_9
REMARK    3  A    between atoms: N_21  and  C_22
REMARK                            x       y       z     vdW  Elec       q    Type
REMARK                         _______ _______ _______ _____ _____    ______ ____
ROOT
ATOM      9  C   UNL     1      -3.263   1.343  24.625  0.00  0.00    +0.056 A 
ATOM     10  C   UNL     1      -3.768   0.711  24.461  0.00  0.00    +0.006 A 
ATOM     11  C   UNL     1      -4.578   0.785  24.596  0.00  0.00    +0.013 A 
ATOM     12  C   UNL     1      -4.884   1.491  24.895  0.00  0.00    +0.041 A 
ATOM     13  C   UNL     1      -5.681   1.875  25.141  0.00  0.00    +0.058 C 
ATOM     14  C   UNL     1      -6.368   1.739  25.183  0.00  0.00    +0.011 C 
ATOM     15  C   UNL     1      -5.867   2.360  25.343  0.00  0.00    +0.043 C 
ATOM     16  C   UNL     1      -5.432   3.211  25.596  0.00  0.00    +0.097 C 
ATOM     17  N   UNL     1      -4.638   3.019  25.421  0.00  0.00    -0.262 N 
ATOM     18  C   UNL     1      -5.275   2.703  25.390  0.00  0.00    +0.101 C 
ATOM     19  C   UNL     1      -3.821   3.115  25.347  0.00  0.00    +0.323 C 
ATOM     20  O   UNL     1      -3.358   2.495  25.059  0.00  0.00    -0.251 OA
ATOM     21  N   UNL     1      -3.469   3.829  25.561  0.00  0.00    -0.190 NA
ATOM     25  C   UNL     1      -5.029   1.967  25.088  0.00  0.00    +0.110 C 
ATOM     26  N   UNL     1      -4.379   2.122  25.058  0.00  0.00    -0.299 N 
ATOM     27  C   UNL     1      -3.568   2.049  24.924  0.00  0.00    +0.261 A 
ATOM     28  O   UNL     1      -2.890   2.511  25.002  0.00  0.00    -0.267 OA
ENDROOT
BRANCH   9   6
ATOM      3  C   UNL     1      -0.832   1.119  24.222  0.00  0.00    +0.025 A 
ATOM      4  C   UNL     1      -1.324   1.404  23.624  0.00  0.00    +0.006 A 
ATOM      5  C   UNL     1      -2.135   1.479  23.759  0.00  0.00    +0.001 A 
ATOM      6  C   UNL     1      -2.453   1.269  24.490  0.00  0.00    +0.005 A 
ATOM      7  C   UNL     1      -1.960   0.983  25.087  0.00  0.00    +0.001 A 
ATOM      8  C   UNL     1      -1.150   0.908  24.953  0.00  0.00    +0.006 A 
BRANCH   3   2
ATOM      1  C   UNL     1       0.484   1.675  24.251  0.00  0.00    +0.074 C 
ATOM      2  S   UNL     1      -0.020   1.044  24.087  0.00  0.00    -0.113 S 
ENDBRANCH   3   2
ENDBRANCH   9   6
BRANCH  21  22
ATOM     22  C   UNL     1      -2.652   3.924  25.487  0.00  0.00    +0.097 C 
ATOM     23  C   UNL     1      -2.333   4.220  24.785  0.00  0.00    +0.023 C 
ATOM     24  C   UNL     1      -2.155   3.723  26.115  0.00  0.00    +0.023 C 
ENDBRANCH  21  22
TORSDOF 3
ENDMDL
MODEL 6
REMARK VINA RESULT:     -13.4      0.920      2.366
REMARK  Name = 
REMARK  3 active torsions:
REMARK  status: ('A' for Active; 'I' for Inactive)
REMARK    1  A    between atoms: S_2  and  C_3
REMARK    2  A    between atoms: C_6  and  C_9
REMARK    3  A    between atoms: N_21  and  C_22
REMARK                            x       y       z     vdW  Elec       q    Type
REMARK                         _______ _______ _______ _____ _____    ______ ____
ROOT
ATOM      9  C   UNL     1      -2.922   1.371  24.794  0.00  0.00    +0.056 A 
ATOM     10  C   UNL     1      -2.107   1.479  24.723  0.00  0.00    +0.006 A 
ATOM     11  C   UNL     1      -1.772   2.213  24.892  0.00  0.00    +0.013 A 
ATOM     12  C   UNL     1      -2.251   2.840  25.133  0.00  0.00    +0.041 A 
ATOM     13  C   UNL     1      -2.200   3.724  25.380  0.00  0.00    +0.058 C 
ATOM     14  C   UNL     1      -1.738   4.244  25.472  0.00  0.00    +0.011 C 
ATOM     15  C   UNL     1      -2.542   4.134  25.541  0.00  0.00    +0.043 C 
ATOM     16  C   UNL     1      -3.518   4.199  25.682  0.00  0.00    +0.097 C 
ATOM     17  N   UNL     1      -3.740   3.418  25.485  0.00  0.00    -0.262 N 
ATOM     18  C   UNL     1      -3.141   3.802  25.521  0.00  0.00    +0.101 C 
ATOM     19  C   UNL     1      -4.230   2.766  25.359  0.00  0.00    +0.323 C 
ATOM     20  O   UNL     1      -3.905   2.048  25.112  0.00  0.00    -0.251 OA
ATOM     21  N   UNL     1      -5.043   2.831  25.479  0.00  0.00    -0.190 NA
ATOM     25  C   UNL     1      -2.605   3.211  25.284  0.00  0.00    +0.110 C 
ATOM     26  N   UNL     1      -3.066   2.732  25.204  0.00  0.00    -0.299 N 
ATOM     27  C   UNL     1      -3.402   1.998  25.034  0.00  0.00    +0.261 A 
ATOM     28  O   UNL     1      -4.151   1.653  25.029  0.00  0.00    -0.267 OA
ENDROOT
BRANCH   9   6
ATOM      3  C   UNL     1      -3.926  -0.833  24.288  0.00  0.00    +0.025 A 
ATOM      4  C   UNL     1      -3.848  -0.269  23.691  0.00  0.00    +0.006 A 
ATOM      5  C   UNL     1      -3.513   0.466  23.860  0.00  0.00    +0.001 A 
ATOM      6  C   UNL     1      -3.257   0.637  24.625  0.00  0.00    +0.005 A 
ATOM      7  C   UNL     1      -3.336   0.073  25.222  0.00  0.00    +0.001 A 
ATOM      8  C   UNL     1      -3.671  -0.662  25.053  0.00  0.00    +0.006 A 
BRANCH   3   2
ATOM      1  C   UNL     1      -3.798  -2.249  24.151  0.00  0.00    +0.074 C 
ATOM      2  S   UNL     1      -4.262  -1.569  24.119  0.00  0.00    -0.113 S 
ENDBRANCH   3   2
ENDBRANCH   9   6
BRANCH  21  22
ATOM     22  C   UNL     1      -5.532   2.179  25.353  0.00  0.00    +0.097 C 
ATOM     23  C   UNL     1      -5.845   2.037  24.602  0.00  0.00    +0.023 C 
ATOM     24  C   UNL     1      -5.710   1.669  25.978  0.00  0.00    +0.023 C 
ENDBRANCH  21  22
TORSDOF 3
ENDMDL
MODEL 7
REMARK VINA RESULT:     -13.1      1.468      2.809
REMARK  Name = 
REMARK  3 active torsions:
REMARK  status: ('A' for Active; 'I' for Inactive)
REMARK    1  A    between atoms: S_2  and  C_3
REMARK    2  A    between atoms: C_6  and  C_9
REMARK    3  A    between atoms: N_21  and  C_22
REMARK                            x       y       z     vdW  Elec       q    Type
REMARK                         _______ _______ _______ _____ _____    ______ ____
ROOT
ATOM      9  C   UNL     1      -1.101   1.690  25.231  0.00  0.00    +0.056 A 
ATOM     10  C   UNL     1      -0.460   2.145  25.483  0.00  0.00    +0.006 A 
ATOM     11  C   UNL     1      -0.532   2.965  25.539  0.00  0.00    +0.013 A 
ATOM     12  C   UNL     1      -1.245   3.330  25.343  0.00  0.00    +0.041 A 
ATOM     13  C   UNL     1      -1.632   4.162  25.298  0.00  0.00    +0.058 C 
ATOM     14  C   UNL     1      -1.492   4.841  25.409  0.00  0.00    +0.011 C 
ATOM     15  C   UNL     1      -2.123   4.389  25.160  0.00  0.00    +0.043 C 
ATOM     16  C   UNL     1      -2.984   4.022  24.845  0.00  0.00    +0.097 C 
ATOM     17  N   UNL     1      -2.793   3.209  24.829  0.00  0.00    -0.262 N 
ATOM     18  C   UNL     1      -2.471   3.823  24.993  0.00  0.00    +0.101 C 
ATOM     19  C   UNL     1      -2.892   2.397  24.718  0.00  0.00    +0.323 C 
ATOM     20  O   UNL     1      -2.266   1.881  24.871  0.00  0.00    -0.251 OA
ATOM     21  N   UNL     1      -3.615   2.102  24.455  0.00  0.00    -0.190 NA
ATOM     25  C   UNL     1      -1.727   3.515  25.204  0.00  0.00    +0.110 C 
ATOM     26  N   UNL     1      -1.886   2.875  25.091  0.00  0.00    -0.299 N 
ATOM     27  C   UNL     1      -1.814   2.055  25.035  0.00  0.00    +0.261 A 
ATOM     28  O   UNL     1      -2.283   1.412  24.821  0.00  0.00    -0.267 OA
ENDROOT
BRANCH   9   6
ATOM      3  C   UNL     1      -0.881  -0.769  25.063  0.00  0.00    +0.025 A 
ATOM      4  C   UNL     1      -1.156  -0.427  25.761  0.00  0.00    +0.006 A 
ATOM      5  C   UNL     1      -1.230   0.394  25.817  0.00  0.00    +0.001 A 
ATOM      6  C   UNL     1      -1.028   0.871  25.176  0.00  0.00    +0.005 A 
ATOM      7  C   UNL     1      -0.752   0.528  24.477  0.00  0.00    +0.001 A 
ATOM      8  C   UNL     1      -0.678  -0.292  24.421  0.00  0.00    +0.006 A 
BRANCH   3   2
ATOM      1  C   UNL     1      -1.425  -2.038  24.697  0.00  0.00    +0.074 C 
ATOM      2  S   UNL     1      -0.807  -1.590  25.007  0.00  0.00    -0.113 S 
ENDBRANCH   3   2
ENDBRANCH   9   6
BRANCH  21  22
ATOM     22  C   UNL     1      -3.714   1.290  24.345  0.00  0.00    +0.097 C 
ATOM     23  C   UNL     1      -3.525   0.947  23.618  0.00  0.00    +0.023 C 
ATOM     24  C   UNL     1      -4.002   0.822  24.961  0.00  0.00    +0.023 C 
ENDBRANCH  21  22
TORSDOF 3
ENDMDL
