MODEL 1
REMARK VINA RESULT:     -13.1      0.000      0.000
REMARK  Name = 
REMARK  5 active torsions:
REMARK  status: ('A' for Active; 'I' for Inactive)
REMARK    1  A    between atoms: C_4  and  N_18
REMARK    2  A    between atoms: C_6  and  C_7
REMARK    3  A    between atoms: C_9  and  C_12
REMARK    4  A    between atoms: N_18  and  S_19
REMARK    5  A    between atoms: S_19  and  C_22
REMARK                            x       y       z     vdW  Elec       q    Type
REMARK                         _______ _______ _______ _____ _____    ______ ____
ROOT
ATOM      1  C   UNL     1      -5.387   3.049  25.653  0.00  0.00    +0.090 C 
ATOM      2  N   UNL     1      -4.925   2.472  25.287  0.00  0.00    -0.264 NA
ATOM      3  C   UNL     1      -5.199   1.760  24.972  0.00  0.00    +0.092 C 
ATOM      4  C   UNL     1      -4.552   1.353  24.661  0.00  0.00    +0.115 C 
ATOM      5  C   UNL     1      -3.879   1.813  24.784  0.00  0.00    +0.046 C 
ATOM      6  C   UNL     1      -4.110   2.505  25.170  0.00  0.00    +0.139 C 
ENDROOT
BRANCH   6   7
ATOM      7  C   UNL     1      -3.612   3.122  25.400  0.00  0.00    +0.251 A 
ATOM      8  N   UNL     1      -2.921   3.356  25.015  0.00  0.00    -0.190 NA
ATOM      9  C   UNL     1      -2.600   3.991  25.432  0.00  0.00    +0.203 A 
ATOM     10  N   UNL     1      -3.092   4.149  26.074  0.00  0.00    -0.056 NA
ATOM     11  O   UNL     1      -3.718   3.612  26.055  0.00  0.00    -0.336 OA
BRANCH   9  12
ATOM     12  C   UNL     1      -1.908   4.397  25.240  0.00  0.00    +0.042 A 
ATOM     13  C   UNL     1      -1.925   5.214  25.131  0.00  0.00    +0.024 A 
ATOM     14  C   UNL     1      -1.233   5.620  24.939  0.00  0.00    +0.099 A 
ATOM     15  N   UNL     1      -0.523   5.208  24.856  0.00  0.00    -0.242 NA
ATOM     16  C   UNL     1      -0.505   4.390  24.965  0.00  0.00    +0.099 A 
ATOM     17  C   UNL     1      -1.197   3.985  25.157  0.00  0.00    +0.024 A 
ENDBRANCH   9  12
ENDBRANCH   6   7
BRANCH   4  18
ATOM     18  N   UNL     1      -4.575   0.615  24.293  0.00  0.00    -0.078 NA
BRANCH  18  19
ATOM     19  S   UNL     1      -4.187  -0.028  24.635  0.00  0.00    +0.078 S 
ATOM     20  O   UNL     1      -3.536   0.105  24.146  0.00  0.00    -0.152 OA
ATOM     21  O   UNL     1      -4.839  -0.161  25.123  0.00  0.00    -0.152 OA
BRANCH  19  22
ATOM     22  C   UNL     1      -3.800  -0.672  24.976  0.00  0.00    +0.141 A 
ATOM     23  C   UNL     1      -3.359  -0.568  25.666  0.00  0.00    +0.022 A 
ATOM     24  C   UNL     1      -2.971  -1.212  26.008  0.00  0.00    +0.001 A 
ATOM     25  C   UNL     1      -3.025  -1.958  25.660  0.00  0.00    +0.002 A 
ATOM     26  C   UNL     1      -3.466  -2.062  24.970  0.00  0.00    +0.019 A 
ATOM     27  C   UNL     1      -3.854  -1.418  24.628  0.00  0.00    +0.100 A 
ATOM     28  N   UNL     1      -4.295  -1.521  23.939  0.00  0.00    -0.242 NA
ATOM     29  C   UNL     1      -4.349  -2.266  23.591  0.00  0.00    +0.099 A 
ATOM     30  C   UNL     1      -3.961  -2.910  23.933  0.00  0.00    +0.021 A 
ATOM     31  C   UNL     1      -3.520  -2.807  24.622  0.00  0.00    +0.003 A 
ENDBRANCH  19  22
ENDBRANCH  18  19
ENDBRANCH   4  18
TORSDOF 5
ENDMDL
MODEL 2
REMARK VINA RESULT:     -12.7      2.010      2.796
REMARK  Name = 
REMARK  5 active torsions:
REMARK  status: ('A' for Active; 'I' for Inactive)
REMARK    1  A    between atoms: C_4  and  N_18
REMARK    2  A    between atoms: C_6  and  C_7
REMARK    3  A    between atoms: C_9  and  C_12
REMARK    4  A    between atoms: N_18  and  S_19
REMARK    5  A    between atoms: S_19  and  C_22
REMARK                            x       y       z     vdW  Elec       q    Type
REMARK                         _______ _______ _______ _____ _____    ______ ____
ROOT
ATOM      1  C   UNL     1       0.489   1.160  24.069  0.00  0.00    +0.090 C 
ATOM      2  N   UNL     1      -0.104   0.812  24.526  0.00  0.00    -0.264 NA
ATOM      3  C   UNL     1      -0.346   0.025  24.486  0.00  0.00    +0.092 C 
ATOM      4  C   UNL     1      -0.950  -0.084  25.038  0.00  0.00    +0.115 C 
ATOM      5  C   UNL     1      -1.080   0.636  25.418  0.00  0.00    +0.046 C 
ATOM      6  C   UNL     1      -0.557   1.190  25.101  0.00  0.00    +0.139 C 
ENDROOT
BRANCH   6   7
ATOM      7  C   UNL     1      -0.498   1.983  25.322  0.00  0.00    +0.251 A 
ATOM      8  N   UNL     1      -0.991   2.594  25.069  0.00  0.00    -0.190 NA
ATOM      9  C   UNL     1      -0.733   3.293  25.424  0.00  0.00    +0.203 A 
ATOM     10  N   UNL     1      -0.081   3.113  25.896  0.00  0.00    -0.056 NA
ATOM     11  O   UNL     1       0.065   2.304  25.833  0.00  0.00    -0.336 OA
BRANCH   9  12
ATOM     12  C   UNL     1      -1.069   4.040  25.325  0.00  0.00    +0.042 A 
ATOM     13  C   UNL     1      -1.826   4.194  25.614  0.00  0.00    +0.024 A 
ATOM     14  C   UNL     1      -2.161   4.941  25.514  0.00  0.00    +0.099 A 
ATOM     15  N   UNL     1      -1.740   5.534  25.126  0.00  0.00    -0.242 NA
ATOM     16  C   UNL     1      -0.982   5.380  24.837  0.00  0.00    +0.099 A 
ATOM     17  C   UNL     1      -0.647   4.633  24.937  0.00  0.00    +0.024 A 
ENDBRANCH   9  12
ENDBRANCH   6   7
BRANCH   4  18
ATOM     18  N   UNL     1      -1.352  -0.789  25.184  0.00  0.00    -0.078 NA
BRANCH  18  19
ATOM     19  S   UNL     1      -2.120  -0.892  24.899  0.00  0.00    +0.078 S 
ATOM     20  O   UNL     1      -2.418  -0.768  25.658  0.00  0.00    -0.152 OA
ATOM     21  O   UNL     1      -1.822  -1.016  24.140  0.00  0.00    -0.152 OA
BRANCH  19  22
ATOM     22  C   UNL     1      -2.887  -0.995  24.614  0.00  0.00    +0.141 A 
ATOM     23  C   UNL     1      -3.356  -0.337  24.447  0.00  0.00    +0.022 A 
ATOM     24  C   UNL     1      -4.124  -0.440  24.162  0.00  0.00    +0.001 A 
ATOM     25  C   UNL     1      -4.422  -1.200  24.045  0.00  0.00    +0.002 A 
ATOM     26  C   UNL     1      -3.953  -1.858  24.213  0.00  0.00    +0.019 A 
ATOM     27  C   UNL     1      -3.185  -1.756  24.498  0.00  0.00    +0.100 A 
ATOM     28  N   UNL     1      -2.716  -2.413  24.665  0.00  0.00    -0.242 NA
ATOM     29  C   UNL     1      -3.014  -3.172  24.548  0.00  0.00    +0.099 A 
ATOM     30  C   UNL     1      -3.782  -3.275  24.263  0.00  0.00    +0.021 A 
ATOM     31  C   UNL     1      -4.251  -2.618  24.096  0.00  0.00    +0.003 A 
ENDBRANCH  19  22
ENDBRANCH  18  19
ENDBRANCH   4  18
TORSDOF 5
ENDMDL
MODEL 3
REMARK VINA RESULT:     -12.1      2.302      6.096
REMARK  Name = 
REMARK  5 active torsions:
REMARK  status: ('A' for Active; 'I' for Inactive)
REMARK    1  A    between atoms: C_4  and  N_18
REMARK    2  A    between atoms: C_6  and  C_7
REMARK    3  A    between atoms: C_9  and  C_12
REMARK    4  A    between atoms: N_18  and  S_19
REMARK    5  A    between atoms: S_19  and  C_22
REMARK                            x       y       z     vdW  Elec       q    Type
REMARK                         _______ _______ _______ _____ _____    ______ ____
ROOT
ATOM      1  C   UNL     1       0.168  -0.146  23.485  0.00  0.00    +0.090 C 
ATOM      2  N   UNL     1      -0.092   0.353  24.088  0.00  0.00    -0.264 NA
ATOM      3  C   UNL     1       0.172   1.122  24.227  0.00  0.00    +0.092 C 
ATOM      4  C   UNL     1      -0.234   1.417  24.882  0.00  0.00    +0.115 C 
ATOM      5  C   UNL     1      -0.748   0.830  25.148  0.00  0.00    +0.046 C 
ATOM      6  C   UNL     1      -0.661   0.173  24.657  0.00  0.00    +0.139 C 
ENDROOT
BRANCH   6   7
ATOM      7  C   UNL     1      -1.070  -0.541  24.723  0.00  0.00    +0.251 A 
ATOM      8  N   UNL     1      -1.844  -0.680  24.471  0.00  0.00    -0.190 NA
ATOM      9  C   UNL     1      -2.030  -1.465  24.646  0.00  0.00    +0.203 A 
ATOM     10  N   UNL     1      -1.372  -1.810  25.004  0.00  0.00    -0.056 NA
ATOM     11  O   UNL     1      -0.779  -1.239  25.052  0.00  0.00    -0.336 OA
BRANCH   9  12
ATOM     12  C   UNL     1      -2.748  -1.839  24.488  0.00  0.00    +0.042 A 
ATOM     13  C   UNL     1      -3.391  -1.401  24.215  0.00  0.00    +0.024 A 
ATOM     14  C   UNL     1      -4.109  -1.775  24.057  0.00  0.00    +0.099 A 
ATOM     15  N   UNL     1      -4.184  -2.588  24.173  0.00  0.00    -0.242 NA
ATOM     16  C   UNL     1      -3.542  -3.027  24.447  0.00  0.00    +0.099 A 
ATOM     17  C   UNL     1      -2.823  -2.653  24.604  0.00  0.00    +0.024 A 
ENDBRANCH   9  12
ENDBRANCH   6   7
BRANCH   4  18
ATOM     18  N   UNL     1      -0.141   2.167  25.213  0.00  0.00    -0.078 NA
BRANCH  18  19
ATOM     19  S   UNL     1      -0.793   2.664  25.296  0.00  0.00    +0.078 S 
ATOM     20  O   UNL     1      -0.849   2.729  24.476  0.00  0.00    -0.152 OA
ATOM     21  O   UNL     1      -0.738   2.600  26.117  0.00  0.00    -0.152 OA
BRANCH  19  22
ATOM     22  C   UNL     1      -1.446   3.162  25.380  0.00  0.00    +0.141 A 
ATOM     23  C   UNL     1      -2.178   2.849  25.599  0.00  0.00    +0.022 A 
ATOM     24  C   UNL     1      -2.831   3.347  25.682  0.00  0.00    +0.001 A 
ATOM     25  C   UNL     1      -2.752   4.157  25.546  0.00  0.00    +0.002 A 
ATOM     26  C   UNL     1      -2.020   4.470  25.327  0.00  0.00    +0.019 A 
ATOM     27  C   UNL     1      -1.367   3.972  25.243  0.00  0.00    +0.100 A 
ATOM     28  N   UNL     1      -0.636   4.284  25.025  0.00  0.00    -0.242 NA
ATOM     29  C   UNL     1      -0.557   5.094  24.889  0.00  0.00    +0.099 A 
ATOM     30  C   UNL     1      -1.211   5.592  24.972  0.00  0.00    +0.021 A 
ATOM     31  C   UNL     1      -1.941   5.280  25.191  0.00  0.00    +0.003 A 
ENDBRANCH  19  22
ENDBRANCH  18  19
ENDBRANCH   4  18
TORSDOF 5
ENDMDL
MODEL 4
REMARK VINA RESULT:     -11.5      1.124      5.406
REMARK  Name = 
REMARK  5 active torsions:
REMARK  status: ('A' for Active; 'I' for Inactive)
REMARK    1  A    between atoms: C_4  and  N_18
REMARK    2  A    between atoms: C_6  and  C_7
REMARK    3  A    between atoms: C_9  and  C_12
REMARK    4  A    between atoms: N_18  and  S_19
REMARK    5  A    between atoms: S_19  and  C_22
REMARK                            x       y       z     vdW  Elec       q    Type
REMARK                         _______ _______ _______ _____ _____    ______ ____
ROOT
ATOM      1  C   UNL     1      -5.823   1.569  25.773  0.00  0.00    +0.090 C 
ATOM      2  N   UNL     1      -5.148   1.893  25.427  0.00  0.00    -0.264 NA
ATOM      3  C   UNL     1      -4.902   2.678  25.490  0.00  0.00    +0.092 C 
ATOM      4  C   UNL     1      -4.203   2.761  25.059  0.00  0.00    +0.115 C 
ATOM      5  C   UNL     1      -4.019   2.028  24.730  0.00  0.00    +0.046 C 
ATOM      6  C   UNL     1      -4.603   1.492  24.957  0.00  0.00    +0.139 C 
ENDROOT
BRANCH   6   7
ATOM      7  C   UNL     1      -4.636   0.693  24.751  0.00  0.00    +0.251 A 
ATOM      8  N   UNL     1      -4.095   0.112  24.976  0.00  0.00    -0.190 NA
ATOM      9  C   UNL     1      -4.341  -0.604  24.648  0.00  0.00    +0.203 A 
ATOM     10  N   UNL     1      -5.032  -0.465  24.220  0.00  0.00    -0.056 NA
ATOM     11  O   UNL     1      -5.215   0.336  24.283  0.00  0.00    -0.336 OA
BRANCH   9  12
ATOM     12  C   UNL     1      -3.961  -1.331  24.732  0.00  0.00    +0.042 A 
ATOM     13  C   UNL     1      -3.580  -1.518  25.440  0.00  0.00    +0.024 A 
ATOM     14  C   UNL     1      -3.200  -2.246  25.524  0.00  0.00    +0.099 A 
ATOM     15  N   UNL     1      -3.201  -2.786  24.902  0.00  0.00    -0.242 NA
ATOM     16  C   UNL     1      -3.582  -2.600  24.194  0.00  0.00    +0.099 A 
ATOM     17  C   UNL     1      -3.962  -1.873  24.109  0.00  0.00    +0.024 A 
ENDBRANCH   9  12
ENDBRANCH   6   7
BRANCH   4  18
ATOM     18  N   UNL     1      -3.766   3.455  24.973  0.00  0.00    -0.078 NA
BRANCH  18  19
ATOM     19  S   UNL     1      -2.950   3.446  25.090  0.00  0.00    +0.078 S 
ATOM     20  O   UNL     1      -2.836   3.283  24.290  0.00  0.00    -0.152 OA
ATOM     21  O   UNL     1      -3.063   3.609  25.891  0.00  0.00    -0.152 OA
BRANCH  19  22
ATOM     22  C   UNL     1      -2.133   3.436  25.208  0.00  0.00    +0.141 A 
ATOM     23  C   UNL     1      -1.758   2.738  25.436  0.00  0.00    +0.022 A 
ATOM     24  C   UNL     1      -0.940   2.728  25.554  0.00  0.00    +0.001 A 
ATOM     25  C   UNL     1      -0.500   3.417  25.443  0.00  0.00    +0.002 A 
ATOM     26  C   UNL     1      -0.875   4.116  25.215  0.00  0.00    +0.019 A 
ATOM     27  C   UNL     1      -1.693   4.125  25.097  0.00  0.00    +0.100 A 
ATOM     28  N   UNL     1      -2.068   4.823  24.869  0.00  0.00    -0.242 NA
ATOM     29  C   UNL     1      -1.628   5.511  24.758  0.00  0.00    +0.099 A 
ATOM     30  C   UNL     1      -0.810   5.502  24.876  0.00  0.00    +0.021 A 
ATOM     31  C   UNL     1      -0.435   4.804  25.104  0.00  0.00    +0.003 A 
ENDBRANCH  19  22
ENDBRANCH  18  19
ENDBRANCH   4  18
TORSDOF 5
ENDMDL
MODEL 5
REMARK VINA RESULT:     -10.2      4.041      5.775
REMARK  Name = 
REMARK  5 active torsions:
REMARK  status: ('A' for Active; 'I' for Inactive)
REMARK    1  A    between atoms: C_4  and  N_18
REMARK    2  A    between atoms: C_6  and  C_7
REMARK    3  A    between atoms: C_9  and  C_12
REMARK    4  A    between atoms: N_18  and  S_19
REMARK    5  A    between atoms: S_19  and  C_22
REMARK                            x       y       z     vdW  Elec       q    Type
REMARK                         _______ _______ _______ _____ _____    ______ ____
ROOT
ATOM      1  C   UNL     1       0.110  -0.956  24.366  0.00  0.00    +0.090 C 
ATOM      2  N   UNL     1      -0.223  -0.256  24.081  0.00  0.00    -0.264 NA
ATOM      3  C   UNL     1      -0.941   0.071  24.322  0.00  0.00    +0.092 C 
ATOM      4  C   UNL     1      -1.057   0.768  23.895  0.00  0.00    +0.115 C 
ATOM      5  C   UNL     1      -0.412   0.871  23.392  0.00  0.00    +0.046 C 
ATOM      6  C   UNL     1       0.104   0.237  23.507  0.00  0.00    +0.139 C 
ENDROOT
BRANCH   6   7
ATOM      7  C   UNL     1       0.821   0.118  23.116  0.00  0.00    +0.251 A 
ATOM      8  N   UNL     1       1.564   0.359  23.383  0.00  0.00    -0.190 NA
ATOM      9  C   UNL     1       2.122   0.128  22.822  0.00  0.00    +0.203 A 
ATOM     10  N   UNL     1       1.725  -0.256  22.210  0.00  0.00    -0.056 NA
ATOM     11  O   UNL     1       0.921  -0.262  22.391  0.00  0.00    -0.336 OA
BRANCH   9  12
ATOM     12  C   UNL     1       2.936   0.257  22.866  0.00  0.00    +0.042 A 
ATOM     13  C   UNL     1       3.437  -0.348  23.117  0.00  0.00    +0.024 A 
ATOM     14  C   UNL     1       4.251  -0.218  23.162  0.00  0.00    +0.099 A 
ATOM     15  N   UNL     1       4.563   0.517  22.955  0.00  0.00    -0.242 NA
ATOM     16  C   UNL     1       4.062   1.122  22.703  0.00  0.00    +0.099 A 
ATOM     17  C   UNL     1       3.249   0.993  22.659  0.00  0.00    +0.024 A 
ENDBRANCH   9  12
ENDBRANCH   6   7
BRANCH   4  18
ATOM     18  N   UNL     1      -1.706   1.274  23.962  0.00  0.00    -0.078 NA
BRANCH  18  19
ATOM     19  S   UNL     1      -1.634   1.985  24.373  0.00  0.00    +0.078 S 
ATOM     20  O   UNL     1      -1.683   1.576  25.088  0.00  0.00    -0.152 OA
ATOM     21  O   UNL     1      -1.586   2.394  23.658  0.00  0.00    -0.152 OA
BRANCH  19  22
ATOM     22  C   UNL     1      -1.562   2.697  24.784  0.00  0.00    +0.141 A 
ATOM     23  C   UNL     1      -0.816   3.027  24.909  0.00  0.00    +0.022 A 
ATOM     24  C   UNL     1      -0.744   3.739  25.321  0.00  0.00    +0.001 A 
ATOM     25  C   UNL     1      -1.418   4.119  25.607  0.00  0.00    +0.002 A 
ATOM     26  C   UNL     1      -2.164   3.789  25.483  0.00  0.00    +0.019 A 
ATOM     27  C   UNL     1      -2.236   3.077  25.071  0.00  0.00    +0.100 A 
ATOM     28  N   UNL     1      -2.981   2.747  24.946  0.00  0.00    -0.242 NA
ATOM     29  C   UNL     1      -3.654   3.127  25.233  0.00  0.00    +0.099 A 
ATOM     30  C   UNL     1      -3.582   3.840  25.644  0.00  0.00    +0.021 A 
ATOM     31  C   UNL     1      -2.837   4.170  25.769  0.00  0.00    +0.003 A 
ENDBRANCH  19  22
ENDBRANCH  18  19
ENDBRANCH   4  18
TORSDOF 5
ENDMDL
MODEL 6
REMARK VINA RESULT:     -10.2      3.278      4.780
REMARK  Name = 
REMARK  5 active torsions:
REMARK  status: ('A' for Active; 'I' for Inactive)
REMARK    1  A    between atoms: C_4  and  N_18
REMARK    2  A    between atoms: C_6  and  C_7
REMARK    3  A    between atoms: C_9  and  C_12
REMARK    4  A    between atoms: N_18  and  S_19
REMARK    5  A    between atoms: S_19  and  C_22
REMARK                            x       y       z     vdW  Elec       q    Type
REMARK                         _______ _______ _______ _____ _____    ______ ____
ROOT
ATOM      1  C   UNL     1       0.061   1.951  25.574  0.00  0.00    +0.090 C 
ATOM      2  N   UNL     1      -0.597   1.992  25.079  0.00  0.00    -0.264 NA
ATOM      3  C   UNL     1      -1.242   2.498  25.172  0.00  0.00    +0.092 C 
ATOM      4  C   UNL     1      -1.770   2.354  24.554  0.00  0.00    +0.115 C 
ATOM      5  C   UNL     1      -1.452   1.760  24.081  0.00  0.00    +0.046 C 
ATOM      6  C   UNL     1      -0.727   1.536  24.405  0.00  0.00    +0.139 C 
ENDROOT
BRANCH   6   7
ATOM      7  C   UNL     1      -0.220   0.957  24.106  0.00  0.00    +0.251 A 
ATOM      8  N   UNL     1       0.411   1.085  23.590  0.00  0.00    -0.190 NA
ATOM      9  C   UNL     1       0.766   0.356  23.437  0.00  0.00    +0.203 A 
ATOM     10  N   UNL     1       0.355  -0.221  23.858  0.00  0.00    -0.056 NA
ATOM     11  O   UNL     1      -0.255   0.149  24.272  0.00  0.00    -0.336 OA
BRANCH   9  12
ATOM     12  C   UNL     1       1.418   0.227  22.948  0.00  0.00    +0.042 A 
ATOM     13  C   UNL     1       2.155   0.538  23.153  0.00  0.00    +0.024 A 
ATOM     14  C   UNL     1       2.807   0.409  22.664  0.00  0.00    +0.099 A 
ATOM     15  N   UNL     1       2.722  -0.029  21.971  0.00  0.00    -0.242 NA
ATOM     16  C   UNL     1       1.986  -0.340  21.766  0.00  0.00    +0.099 A 
ATOM     17  C   UNL     1       1.334  -0.212  22.254  0.00  0.00    +0.024 A 
ENDBRANCH   9  12
ENDBRANCH   6   7
BRANCH   4  18
ATOM     18  N   UNL     1      -2.490   2.738  24.433  0.00  0.00    -0.078 NA
BRANCH  18  19
ATOM     19  S   UNL     1      -3.198   2.353  24.611  0.00  0.00    +0.078 S 
ATOM     20  O   UNL     1      -3.032   2.419  25.416  0.00  0.00    -0.152 OA
ATOM     21  O   UNL     1      -3.364   2.286  23.806  0.00  0.00    -0.152 OA
BRANCH  19  22
ATOM     22  C   UNL     1      -3.905   1.967  24.789  0.00  0.00    +0.141 A 
ATOM     23  C   UNL     1      -3.964   1.149  24.695  0.00  0.00    +0.022 A 
ATOM     24  C   UNL     1      -4.672   0.763  24.873  0.00  0.00    +0.001 A 
ATOM     25  C   UNL     1      -5.320   1.196  25.144  0.00  0.00    +0.002 A 
ATOM     26  C   UNL     1      -5.262   2.014  25.238  0.00  0.00    +0.019 A 
ATOM     27  C   UNL     1      -4.553   2.400  25.060  0.00  0.00    +0.100 A 
ATOM     28  N   UNL     1      -4.495   3.216  25.154  0.00  0.00    -0.242 NA
ATOM     29  C   UNL     1      -5.142   3.648  25.425  0.00  0.00    +0.099 A 
ATOM     30  C   UNL     1      -5.851   3.262  25.603  0.00  0.00    +0.021 A 
ATOM     31  C   UNL     1      -5.909   2.445  25.509  0.00  0.00    +0.003 A 
ENDBRANCH  19  22
ENDBRANCH  18  19
ENDBRANCH   4  18
TORSDOF 5
ENDMDL
