MODEL 1
REMARK VINA RESULT:     -10.6      0.000      0.000
REMARK  Name = 
REMARK  1 active torsions:
REMARK  status: ('A' for Active; 'I' for Inactive)
REMARK    1  A    between atoms: C_3  and  C_11
REMARK                            x       y       z     vdW  Elec       q    Type
REMARK                         _______ _______ _______ _____ _____    ______ ____
ROOT
ATOM      1  C   UNL     1      -2.831  -0.136  25.433  0.00  0.00    +0.132 C 
ATOM      2  N   UNL     1      -3.397  -0.476  24.940  0.00  0.00    -0.313 N 
ATOM      3  C   UNL     1      -4.023  -0.081  24.576  0.00  0.00    +0.122 A 
ATOM      4  N   UNL     1      -4.450  -0.632  24.134  0.00  0.00    -0.231 NA
ATOM      5  C   UNL     1      -4.088  -1.367  24.225  0.00  0.00    +0.098 A 
ATOM      6  C   UNL     1      -3.437  -1.271  24.723  0.00  0.00    +0.079 A 
ATOM      7  C   UNL     1      -2.965  -1.920  24.915  0.00  0.00    +0.019 A 
ATOM      8  C   UNL     1      -3.143  -2.664  24.609  0.00  0.00    +0.002 A 
ATOM      9  C   UNL     1      -3.794  -2.761  24.111  0.00  0.00    +0.002 A 
ATOM     10  C   UNL     1      -4.266  -2.112  23.919  0.00  0.00    +0.021 A 
ENDROOT
BRANCH   3  11
ATOM     11  C   UNL     1      -4.193   0.724  24.642  0.00  0.00    +0.078 C 
ATOM     12  C   UNL     1      -3.831   1.332  24.219  0.00  0.00    +0.031 C 
ATOM     13  C   UNL     1      -4.168   2.046  24.458  0.00  0.00    +0.094 C 
ATOM     14  N   UNL     1      -4.740   1.879  25.030  0.00  0.00    -0.279 N 
ATOM     15  C   UNL     1      -4.755   1.061  25.143  0.00  0.00    +0.101 C 
ATOM     16  C   UNL     1      -5.212   2.431  25.419  0.00  0.00    +0.226 C 
ATOM     17  C   UNL     1      -5.135   3.234  25.247  0.00  0.00    +0.095 C 
ATOM     18  O   UNL     1      -5.762   2.181  25.980  0.00  0.00    -0.275 OA
ENDBRANCH   3  11
TORSDOF 1
ENDMDL
MODEL 2
REMARK VINA RESULT:     -10.6      1.446      3.951
REMARK  Name = 
REMARK  1 active torsions:
REMARK  status: ('A' for Active; 'I' for Inactive)
REMARK    1  A    between atoms: C_3  and  C_11
REMARK                            x       y       z     vdW  Elec       q    Type
REMARK                         _______ _______ _______ _____ _____    ______ ____
ROOT
ATOM      1  C   UNL     1      -3.077   1.071  24.339  0.00  0.00    +0.132 C 
ATOM      2  N   UNL     1      -3.813   1.114  24.707  0.00  0.00    -0.313 N 
ATOM      3  C   UNL     1      -4.240   0.478  25.013  0.00  0.00    +0.122 A 
ATOM      4  N   UNL     1      -4.943   0.771  25.330  0.00  0.00    -0.231 NA
ATOM      5  C   UNL     1      -4.950   1.588  25.220  0.00  0.00    +0.098 A 
ATOM      6  C   UNL     1      -4.252   1.800  24.835  0.00  0.00    +0.079 A 
ATOM      7  C   UNL     1      -4.107   2.591  24.651  0.00  0.00    +0.019 A 
ATOM      8  C   UNL     1      -4.659   3.170  24.851  0.00  0.00    +0.002 A 
ATOM      9  C   UNL     1      -5.357   2.958  25.236  0.00  0.00    +0.002 A 
ATOM     10  C   UNL     1      -5.503   2.167  25.420  0.00  0.00    +0.021 A 
ENDROOT
BRANCH   3  11
ATOM     11  C   UNL     1      -4.005  -0.313  25.004  0.00  0.00    +0.078 C 
ATOM     12  C   UNL     1      -3.537  -0.687  25.570  0.00  0.00    +0.031 C 
ATOM     13  C   UNL     1      -3.440  -1.474  25.342  0.00  0.00    +0.094 C 
ATOM     14  N   UNL     1      -3.848  -1.587  24.635  0.00  0.00    -0.279 N 
ATOM     15  C   UNL     1      -4.198  -0.870  24.425  0.00  0.00    +0.101 C 
ATOM     16  C   UNL     1      -3.899  -2.293  24.211  0.00  0.00    +0.226 C 
ATOM     17  C   UNL     1      -3.518  -2.970  24.491  0.00  0.00    +0.095 C 
ATOM     18  O   UNL     1      -4.330  -2.323  23.509  0.00  0.00    -0.275 OA
ENDBRANCH   3  11
TORSDOF 1
ENDMDL
MODEL 3
REMARK VINA RESULT:      -9.7      2.960      4.415
REMARK  Name = 
REMARK  1 active torsions:
REMARK  status: ('A' for Active; 'I' for Inactive)
REMARK    1  A    between atoms: C_3  and  C_11
REMARK                            x       y       z     vdW  Elec       q    Type
REMARK                         _______ _______ _______ _____ _____    ______ ____
ROOT
ATOM      1  C   UNL     1      -2.214   2.164  24.939  0.00  0.00    +0.132 C 
ATOM      2  N   UNL     1      -2.354   2.976  24.953  0.00  0.00    -0.313 N 
ATOM      3  C   UNL     1      -3.093   3.342  24.928  0.00  0.00    +0.122 A 
ATOM      4  N   UNL     1      -2.975   4.158  24.954  0.00  0.00    -0.231 NA
ATOM      5  C   UNL     1      -2.163   4.296  24.994  0.00  0.00    +0.098 A 
ATOM      6  C   UNL     1      -1.779   3.566  24.994  0.00  0.00    +0.079 A 
ATOM      7  C   UNL     1      -0.956   3.533  25.031  0.00  0.00    +0.019 A 
ATOM      8  C   UNL     1      -0.516   4.230  25.068  0.00  0.00    +0.002 A 
ATOM      9  C   UNL     1      -0.900   4.960  25.068  0.00  0.00    +0.002 A 
ATOM     10  C   UNL     1      -1.723   4.994  25.032  0.00  0.00    +0.021 A 
ENDROOT
BRANCH   3  11
ATOM     11  C   UNL     1      -3.823   2.959  24.885  0.00  0.00    +0.078 C 
ATOM     12  C   UNL     1      -4.112   2.538  24.238  0.00  0.00    +0.031 C 
ATOM     13  C   UNL     1      -4.859   2.248  24.435  0.00  0.00    +0.094 C 
ATOM     14  N   UNL     1      -5.032   2.490  25.205  0.00  0.00    -0.279 N 
ATOM     15  C   UNL     1      -4.391   2.929  25.484  0.00  0.00    +0.101 C 
ATOM     16  C   UNL     1      -5.722   2.322  25.623  0.00  0.00    +0.226 C 
ATOM     17  C   UNL     1      -6.319   1.873  25.270  0.00  0.00    +0.095 C 
ATOM     18  O   UNL     1      -5.818   2.602  26.392  0.00  0.00    -0.275 OA
ENDBRANCH   3  11
TORSDOF 1
ENDMDL
MODEL 4
REMARK VINA RESULT:      -9.7      2.382      4.447
REMARK  Name = 
REMARK  1 active torsions:
REMARK  status: ('A' for Active; 'I' for Inactive)
REMARK    1  A    between atoms: C_3  and  C_11
REMARK                            x       y       z     vdW  Elec       q    Type
REMARK                         _______ _______ _______ _____ _____    ______ ____
ROOT
ATOM      1  C   UNL     1      -3.711   3.052  25.018  0.00  0.00    +0.132 C 
ATOM      2  N   UNL     1      -2.906   2.951  24.868  0.00  0.00    -0.313 N 
ATOM      3  C   UNL     1      -2.547   2.265  24.583  0.00  0.00    +0.122 A 
ATOM      4  N   UNL     1      -1.738   2.409  24.516  0.00  0.00    -0.231 NA
ATOM      5  C   UNL     1      -1.597   3.184  24.759  0.00  0.00    +0.098 A 
ATOM      6  C   UNL     1      -2.318   3.519  24.977  0.00  0.00    +0.079 A 
ATOM      7  C   UNL     1      -2.346   4.299  25.246  0.00  0.00    +0.019 A 
ATOM      8  C   UNL     1      -1.653   4.743  25.297  0.00  0.00    +0.002 A 
ATOM      9  C   UNL     1      -0.932   4.408  25.079  0.00  0.00    +0.002 A 
ATOM     10  C   UNL     1      -0.903   3.629  24.810  0.00  0.00    +0.021 A 
ENDROOT
BRANCH   3  11
ATOM     11  C   UNL     1      -2.931   1.558  24.398  0.00  0.00    +0.078 C 
ATOM     12  C   UNL     1      -3.223   1.344  23.657  0.00  0.00    +0.031 C 
ATOM     13  C   UNL     1      -3.563   0.595  23.723  0.00  0.00    +0.094 C 
ATOM     14  N   UNL     1      -3.482   0.346  24.505  0.00  0.00    -0.279 N 
ATOM     15  C   UNL     1      -3.091   0.942  24.923  0.00  0.00    +0.101 C 
ATOM     16  C   UNL     1      -3.744  -0.371  24.816  0.00  0.00    +0.226 C 
ATOM     17  C   UNL     1      -4.128  -0.915  24.328  0.00  0.00    +0.095 C 
ATOM     18  O   UNL     1      -3.624  -0.545  25.612  0.00  0.00    -0.275 OA
ENDBRANCH   3  11
TORSDOF 1
ENDMDL
MODEL 5
REMARK VINA RESULT:      -9.6      2.148      2.709
REMARK  Name = 
REMARK  1 active torsions:
REMARK  status: ('A' for Active; 'I' for Inactive)
REMARK    1  A    between atoms: C_3  and  C_11
REMARK                            x       y       z     vdW  Elec       q    Type
REMARK                         _______ _______ _______ _____ _____    ______ ____
ROOT
ATOM      1  C   UNL     1      -2.815   1.500  23.257  0.00  0.00    +0.132 C 
ATOM      2  N   UNL     1      -3.174   1.257  23.958  0.00  0.00    -0.313 N 
ATOM      3  C   UNL     1      -3.275   1.716  24.637  0.00  0.00    +0.122 A 
ATOM      4  N   UNL     1      -3.660   1.255  25.202  0.00  0.00    -0.231 NA
ATOM      5  C   UNL     1      -3.797   0.511  24.874  0.00  0.00    +0.098 A 
ATOM      6  C   UNL     1      -3.497   0.512  24.105  0.00  0.00    +0.079 A 
ATOM      7  C   UNL     1      -3.556  -0.166  23.639  0.00  0.00    +0.019 A 
ATOM      8  C   UNL     1      -3.915  -0.844  23.940  0.00  0.00    +0.002 A 
ATOM      9  C   UNL     1      -4.215  -0.845  24.709  0.00  0.00    +0.002 A 
ATOM     10  C   UNL     1      -4.156  -0.168  25.176  0.00  0.00    +0.021 A 
ENDROOT
BRANCH   3  11
ATOM     11  C   UNL     1      -3.034   2.499  24.732  0.00  0.00    +0.078 C 
ATOM     12  C   UNL     1      -3.477   3.169  24.546  0.00  0.00    +0.031 C 
ATOM     13  C   UNL     1      -3.023   3.834  24.729  0.00  0.00    +0.094 C 
ATOM     14  N   UNL     1      -2.300   3.575  25.029  0.00  0.00    -0.279 N 
ATOM     15  C   UNL     1      -2.306   2.749  25.031  0.00  0.00    +0.101 C 
ATOM     16  C   UNL     1      -1.679   4.055  25.282  0.00  0.00    +0.226 C 
ATOM     17  C   UNL     1      -1.753   4.877  25.247  0.00  0.00    +0.095 C 
ATOM     18  O   UNL     1      -0.985   3.715  25.570  0.00  0.00    -0.275 OA
ENDBRANCH   3  11
TORSDOF 1
ENDMDL
MODEL 6
REMARK VINA RESULT:      -9.4      2.288      3.100
REMARK  Name = 
REMARK  1 active torsions:
REMARK  status: ('A' for Active; 'I' for Inactive)
REMARK    1  A    between atoms: C_3  and  C_11
REMARK                            x       y       z     vdW  Elec       q    Type
REMARK                         _______ _______ _______ _____ _____    ______ ____
ROOT
ATOM      1  C   UNL     1      -3.405   0.334  24.017  0.00  0.00    +0.132 C 
ATOM      2  N   UNL     1      -3.055  -0.355  24.304  0.00  0.00    -0.313 N 
ATOM      3  C   UNL     1      -2.321  -0.408  24.677  0.00  0.00    +0.122 A 
ATOM      4  N   UNL     1      -2.190  -1.199  24.872  0.00  0.00    -0.231 NA
ATOM      5  C   UNL     1      -2.843  -1.634  24.620  0.00  0.00    +0.098 A 
ATOM      6  C   UNL     1      -3.378  -1.113  24.269  0.00  0.00    +0.079 A 
ATOM      7  C   UNL     1      -4.089  -1.398  23.963  0.00  0.00    +0.019 A 
ATOM      8  C   UNL     1      -4.266  -2.202  24.007  0.00  0.00    +0.002 A 
ATOM      9  C   UNL     1      -3.731  -2.723  24.358  0.00  0.00    +0.002 A 
ATOM     10  C   UNL     1      -3.020  -2.440  24.665  0.00  0.00    +0.021 A 
ENDROOT
BRANCH   3  11
ATOM     11  C   UNL     1      -1.808   0.220  24.828  0.00  0.00    +0.078 C 
ATOM     12  C   UNL     1      -1.884   0.774  25.434  0.00  0.00    +0.031 C 
ATOM     13  C   UNL     1      -1.252   1.301  25.380  0.00  0.00    +0.094 C 
ATOM     14  N   UNL     1      -0.784   1.073  24.740  0.00  0.00    -0.279 N 
ATOM     15  C   UNL     1      -1.128   0.405  24.398  0.00  0.00    +0.101 C 
ATOM     16  C   UNL     1      -0.094   1.447  24.485  0.00  0.00    +0.226 C 
ATOM     17  C   UNL     1       0.184   2.114  24.884  0.00  0.00    +0.095 C 
ATOM     18  O   UNL     1       0.317   1.155  23.833  0.00  0.00    -0.275 OA
ENDBRANCH   3  11
TORSDOF 1
ENDMDL
