MODEL 1
REMARK VINA RESULT:     -13.2      0.000      0.000
REMARK  Name = 
REMARK  5 active torsions:
REMARK  status: ('A' for Active; 'I' for Inactive)
REMARK    1  A    between atoms: C_11  and  C_13
REMARK    2  A    between atoms: C_21  and  C_22
REMARK    3  A    between atoms: C_22  and  C_23
REMARK    4  A    between atoms: N_25  and  C_26
REMARK    5  A    between atoms: C_26  and  C_27
REMARK                            x       y       z     vdW  Elec       q    Type
REMARK                         _______ _______ _______ _____ _____    ______ ____
ROOT
ATOM      1  C   UNL     1      -0.073   2.521  25.555  0.00  0.00    +0.097 C 
ATOM      2  C   UNL     1      -0.507   1.838  25.393  0.00  0.00    +0.248 C 
ATOM      3  O   UNL     1      -0.155   1.097  25.472  0.00  0.00    -0.273 OA
ATOM      4  N   UNL     1      -1.294   1.896  25.151  0.00  0.00    -0.154 NA
ATOM      5  C   UNL     1      -1.727   1.213  24.989  0.00  0.00    +0.185 A 
ATOM      6  N   UNL     1      -2.515   1.187  24.744  0.00  0.00    -0.227 NA
ATOM      7  C   UNL     1      -2.724   0.394  24.648  0.00  0.00    +0.063 A 
ATOM      8  C   UNL     1      -2.066  -0.068  24.833  0.00  0.00    +0.023 A 
ATOM      9  C   UNL     1      -2.113  -0.890  24.785  0.00  0.00    +0.034 C 
ATOM     10  C   UNL     1      -2.817  -1.251  24.552  0.00  0.00    +0.010 C 
ATOM     11  C   UNL     1      -2.863  -2.072  24.504  0.00  0.00    +0.059 C 
ATOM     12  C   UNL     1      -2.081  -1.987  24.750  0.00  0.00    +0.005 C 
ATOM     15  C   UNL     1      -3.568  -2.433  24.271  0.00  0.00    +0.154 C 
ATOM     16  O   UNL     1      -3.615  -3.256  24.223  0.00  0.00    -0.223 OA
ATOM     17  C   UNL     1      -4.226  -1.972  24.086  0.00  0.00    +0.033 C 
ATOM     18  C   UNL     1      -4.180  -1.149  24.134  0.00  0.00    +0.003 C 
ATOM     19  C   UNL     1      -3.475  -0.789  24.367  0.00  0.00    +0.006 C 
ATOM     20  C   UNL     1      -4.133  -0.327  24.182  0.00  0.00    +0.000 C 
ATOM     21  C   UNL     1      -3.429   0.033  24.414  0.00  0.00    +0.050 C 
ATOM     32  S   UNL     1      -1.450   0.439  25.044  0.00  0.00    -0.054 S 
ENDROOT
BRANCH  11  13
ATOM     13  C   UNL     1      -2.638  -2.865  24.542  0.00  0.00    +0.184 C 
ATOM     14  O   UNL     1      -1.841  -3.066  24.603  0.00  0.00    -0.220 OA
ENDBRANCH  11  13
BRANCH  21  22
ATOM     22  C   UNL     1      -4.086   0.495  24.230  0.00  0.00    +0.093 C 
BRANCH  22  23
ATOM     23  C   UNL     1      -4.530   0.842  24.832  0.00  0.00    +0.242 C 
ATOM     24  O   UNL     1      -4.738   0.400  25.497  0.00  0.00    -0.273 OA
ATOM     25  N   UNL     1      -4.764   1.631  24.770  0.00  0.00    -0.197 NA
BRANCH  25  26
ATOM     26  C   UNL     1      -5.207   1.977  25.373  0.00  0.00    +0.179 C 
BRANCH  26  27
ATOM     27  C   UNL     1      -5.275   2.799  25.415  0.00  0.00    +0.145 A 
ATOM     28  C   UNL     1      -5.925   3.218  25.703  0.00  0.00    +0.038 A 
ATOM     29  C   UNL     1      -5.756   4.023  25.642  0.00  0.00    +0.043 A 
ATOM     30  C   UNL     1      -5.002   4.102  25.317  0.00  0.00    +0.179 A 
ATOM     31  O   UNL     1      -4.705   3.345  25.177  0.00  0.00    -0.453 OA
ENDBRANCH  26  27
ENDBRANCH  25  26
ENDBRANCH  22  23
ENDBRANCH  21  22
TORSDOF 5
ENDMDL
MODEL 2
REMARK VINA RESULT:     -13.1      1.753      5.239
REMARK  Name = 
REMARK  5 active torsions:
REMARK  status: ('A' for Active; 'I' for Inactive)
REMARK    1  A    between atoms: C_11  and  C_13
REMARK    2  A    between atoms: C_21  and  C_22
REMARK    3  A    between atoms: C_22  and  C_23
REMARK    4  A    between atoms: N_25  and  C_26
REMARK    5  A    between atoms: C_26  and  C_27
REMARK                            x       y       z     vdW  Elec       q    Type
REMARK                         _______ _______ _______ _____ _____    ______ ____
ROOT
ATOM      1  C   UNL     1      -6.556   1.962  25.361  0.00  0.00    +0.097 C 
ATOM      2  C   UNL     1      -5.789   2.260  25.300  0.00  0.00    +0.248 C 
ATOM      3  O   UNL     1      -5.631   3.041  25.511  0.00  0.00    -0.273 OA
ATOM      4  N   UNL     1      -5.178   1.776  25.027  0.00  0.00    -0.154 NA
ATOM      5  C   UNL     1      -4.411   2.074  24.967  0.00  0.00    +0.185 A 
ATOM      6  N   UNL     1      -3.749   1.657  24.705  0.00  0.00    -0.227 NA
ATOM      7  C   UNL     1      -3.101   2.167  24.733  0.00  0.00    +0.063 A 
ATOM      8  C   UNL     1      -3.362   2.898  25.012  0.00  0.00    +0.023 A 
ATOM      9  C   UNL     1      -2.828   3.521  25.099  0.00  0.00    +0.034 C 
ATOM     10  C   UNL     1      -2.034   3.414  24.907  0.00  0.00    +0.010 C 
ATOM     11  C   UNL     1      -1.501   4.036  24.994  0.00  0.00    +0.059 C 
ATOM     12  C   UNL     1      -2.194   4.405  25.247  0.00  0.00    +0.005 C 
ATOM     15  C   UNL     1      -0.706   3.930  24.801  0.00  0.00    +0.154 C 
ATOM     16  O   UNL     1      -0.172   4.553  24.888  0.00  0.00    -0.223 OA
ATOM     17  C   UNL     1      -0.444   3.199  24.522  0.00  0.00    +0.033 C 
ATOM     18  C   UNL     1      -0.977   2.575  24.435  0.00  0.00    +0.003 C 
ATOM     19  C   UNL     1      -1.772   2.683  24.628  0.00  0.00    +0.006 C 
ATOM     20  C   UNL     1      -1.511   1.952  24.348  0.00  0.00    +0.000 C 
ATOM     21  C   UNL     1      -2.305   2.059  24.541  0.00  0.00    +0.050 C 
ATOM     32  S   UNL     1      -4.173   2.840  25.157  0.00  0.00    -0.054 S 
ENDROOT
BRANCH  11  13
ATOM     13  C   UNL     1      -1.208   4.788  25.168  0.00  0.00    +0.184 C 
ATOM     14  O   UNL     1      -1.728   5.405  25.337  0.00  0.00    -0.220 OA
ENDBRANCH  11  13
BRANCH  21  22
ATOM     22  C   UNL     1      -2.044   1.329  24.262  0.00  0.00    +0.093 C 
BRANCH  22  23
ATOM     23  C   UNL     1      -1.943   0.699  24.785  0.00  0.00    +0.242 C 
ATOM     24  O   UNL     1      -1.587   0.826  25.518  0.00  0.00    -0.273 OA
ATOM     25  N   UNL     1      -2.197  -0.057  24.574  0.00  0.00    -0.197 NA
BRANCH  25  26
ATOM     26  C   UNL     1      -2.096  -0.686  25.097  0.00  0.00    +0.179 C 
BRANCH  26  27
ATOM     27  C   UNL     1      -2.400  -1.430  24.911  0.00  0.00    +0.145 A 
ATOM     28  C   UNL     1      -3.131  -1.729  25.151  0.00  0.00    +0.038 A 
ATOM     29  C   UNL     1      -3.209  -2.490  24.841  0.00  0.00    +0.043 A 
ATOM     30  C   UNL     1      -2.527  -2.661  24.409  0.00  0.00    +0.179 A 
ATOM     31  O   UNL     1      -2.027  -2.006  24.453  0.00  0.00    -0.453 OA
ENDBRANCH  26  27
ENDBRANCH  25  26
ENDBRANCH  22  23
ENDBRANCH  21  22
TORSDOF 5
ENDMDL
MODEL 3
REMARK VINA RESULT:     -13.1      1.320      3.190
REMARK  Name = 
REMARK  5 active torsions:
REMARK  status: ('A' for Active; 'I' for Inactive)
REMARK    1  A    between atoms: C_11  and  C_13
REMARK    2  A    between atoms: C_21  and  C_22
REMARK    3  A    between atoms: C_22  and  C_23
REMARK    4  A    between atoms: N_25  and  C_26
REMARK    5  A    between atoms: C_26  and  C_27
REMARK                            x       y       z     vdW  Elec       q    Type
REMARK                         _______ _______ _______ _____ _____    ______ ____
ROOT
ATOM      1  C   UNL     1      -6.247   2.558  25.251  0.00  0.00    +0.097 C 
ATOM      2  C   UNL     1      -5.702   1.942  25.186  0.00  0.00    +0.248 C 
ATOM      3  O   UNL     1      -5.937   1.165  25.335  0.00  0.00    -0.273 OA
ATOM      4  N   UNL     1      -4.922   2.101  24.973  0.00  0.00    -0.154 NA
ATOM      5  C   UNL     1      -4.377   1.485  24.908  0.00  0.00    +0.185 A 
ATOM      6  N   UNL     1      -3.582   1.562  24.701  0.00  0.00    -0.227 NA
ATOM      7  C   UNL     1      -3.245   0.809  24.704  0.00  0.00    +0.063 A 
ATOM      8  C   UNL     1      -3.832   0.268  24.913  0.00  0.00    +0.023 A 
ATOM      9  C   UNL     1      -3.653  -0.537  24.961  0.00  0.00    +0.034 C 
ATOM     10  C   UNL     1      -2.888  -0.800  24.800  0.00  0.00    +0.010 C 
ATOM     11  C   UNL     1      -2.709  -1.603  24.849  0.00  0.00    +0.059 C 
ATOM     12  C   UNL     1      -3.509  -1.622  25.050  0.00  0.00    +0.005 C 
ATOM     15  C   UNL     1      -1.944  -1.867  24.688  0.00  0.00    +0.154 C 
ATOM     16  O   UNL     1      -1.765  -2.671  24.736  0.00  0.00    -0.223 OA
ATOM     17  C   UNL     1      -1.357  -1.326  24.479  0.00  0.00    +0.033 C 
ATOM     18  C   UNL     1      -1.536  -0.521  24.431  0.00  0.00    +0.003 C 
ATOM     19  C   UNL     1      -2.301  -0.259  24.591  0.00  0.00    +0.006 C 
ATOM     20  C   UNL     1      -1.714   0.282  24.382  0.00  0.00    +0.000 C 
ATOM     21  C   UNL     1      -2.479   0.545  24.543  0.00  0.00    +0.050 C 
ATOM     32  S   UNL     1      -4.532   0.687  25.039  0.00  0.00    -0.054 S 
ENDROOT
BRANCH  11  13
ATOM     13  C   UNL     1      -2.808  -2.414  24.967  0.00  0.00    +0.184 C 
ATOM     14  O   UNL     1      -3.556  -2.719  25.132  0.00  0.00    -0.220 OA
ENDBRANCH  11  13
BRANCH  21  22
ATOM     22  C   UNL     1      -1.893   1.086  24.334  0.00  0.00    +0.093 C 
BRANCH  22  23
ATOM     23  C   UNL     1      -1.562   1.578  24.907  0.00  0.00    +0.242 C 
ATOM     24  O   UNL     1      -1.326   1.264  25.633  0.00  0.00    -0.273 OA
ATOM     25  N   UNL     1      -1.466   2.383  24.755  0.00  0.00    -0.197 NA
BRANCH  25  26
ATOM     26  C   UNL     1      -1.135   2.874  25.328  0.00  0.00    +0.179 C 
BRANCH  26  27
ATOM     27  C   UNL     1      -1.172   3.694  25.240  0.00  0.00    +0.145 A 
ATOM     28  C   UNL     1      -0.611   4.166  24.860  0.00  0.00    +0.038 A 
ATOM     29  C   UNL     1      -0.868   4.949  24.902  0.00  0.00    +0.043 A 
ATOM     30  C   UNL     1      -1.586   4.961  25.307  0.00  0.00    +0.179 A 
ATOM     31  O   UNL     1      -1.774   4.185  25.516  0.00  0.00    -0.453 OA
ENDBRANCH  26  27
ENDBRANCH  25  26
ENDBRANCH  22  23
ENDBRANCH  21  22
TORSDOF 5
ENDMDL
MODEL 4
REMARK VINA RESULT:     -13.0      1.129      4.422
REMARK  Name = 
REMARK  5 active torsions:
REMARK  status: ('A' for Active; 'I' for Inactive)
REMARK    1  A    between atoms: C_11  and  C_13
REMARK    2  A    between atoms: C_21  and  C_22
REMARK    3  A    between atoms: C_22  and  C_23
REMARK    4  A    between atoms: N_25  and  C_26
REMARK    5  A    between atoms: C_26  and  C_27
REMARK                            x       y       z     vdW  Elec       q    Type
REMARK                         _______ _______ _______ _____ _____    ______ ____
ROOT
ATOM      1  C   UNL     1       0.382   1.963  24.247  0.00  0.00    +0.097 C 
ATOM      2  C   UNL     1      -0.409   2.124  24.417  0.00  0.00    +0.248 C 
ATOM      3  O   UNL     1      -0.624   2.861  24.719  0.00  0.00    -0.273 OA
ATOM      4  N   UNL     1      -0.985   1.549  24.285  0.00  0.00    -0.154 NA
ATOM      5  C   UNL     1      -1.776   1.710  24.455  0.00  0.00    +0.185 A 
ATOM      6  N   UNL     1      -2.409   1.191  24.351  0.00  0.00    -0.227 NA
ATOM      7  C   UNL     1      -3.097   1.579  24.591  0.00  0.00    +0.063 A 
ATOM      8  C   UNL     1      -2.889   2.337  24.842  0.00  0.00    +0.023 A 
ATOM      9  C   UNL     1      -3.470   2.855  25.115  0.00  0.00    +0.034 C 
ATOM     10  C   UNL     1      -4.259   2.616  25.136  0.00  0.00    +0.010 C 
ATOM     11  C   UNL     1      -4.839   3.134  25.409  0.00  0.00    +0.059 C 
ATOM     12  C   UNL     1      -4.172   3.611  25.492  0.00  0.00    +0.005 C 
ATOM     15  C   UNL     1      -5.629   2.895  25.431  0.00  0.00    +0.154 C 
ATOM     16  O   UNL     1      -6.211   3.414  25.704  0.00  0.00    -0.223 OA
ATOM     17  C   UNL     1      -5.838   2.138  25.180  0.00  0.00    +0.033 C 
ATOM     18  C   UNL     1      -5.256   1.618  24.907  0.00  0.00    +0.003 C 
ATOM     19  C   UNL     1      -4.467   1.858  24.886  0.00  0.00    +0.006 C 
ATOM     20  C   UNL     1      -4.676   1.100  24.635  0.00  0.00    +0.000 C 
ATOM     21  C   UNL     1      -3.887   1.339  24.613  0.00  0.00    +0.050 C 
ATOM     32  S   UNL     1      -2.072   2.417  24.758  0.00  0.00    -0.054 S 
ENDROOT
BRANCH  11  13
ATOM     13  C   UNL     1      -5.189   3.818  25.711  0.00  0.00    +0.184 C 
ATOM     14  O   UNL     1      -4.764   4.525  25.729  0.00  0.00    -0.220 OA
ENDBRANCH  11  13
BRANCH  21  22
ATOM     22  C   UNL     1      -4.095   0.582  24.362  0.00  0.00    +0.093 C 
BRANCH  22  23
ATOM     23  C   UNL     1      -3.979  -0.064  24.861  0.00  0.00    +0.242 C 
ATOM     24  O   UNL     1      -4.144   0.002  25.666  0.00  0.00    -0.273 OA
ATOM     25  N   UNL     1      -3.698  -0.777  24.554  0.00  0.00    -0.197 NA
BRANCH  25  26
ATOM     26  C   UNL     1      -3.582  -1.423  25.053  0.00  0.00    +0.179 C 
BRANCH  26  27
ATOM     27  C   UNL     1      -3.200  -2.097  24.772  0.00  0.00    +0.145 A 
ATOM     28  C   UNL     1      -3.563  -2.808  24.560  0.00  0.00    +0.038 A 
ATOM     29  C   UNL     1      -2.975  -3.330  24.310  0.00  0.00    +0.043 A 
ATOM     30  C   UNL     1      -2.248  -2.943  24.369  0.00  0.00    +0.179 A 
ATOM     31  O   UNL     1      -2.388  -2.181  24.654  0.00  0.00    -0.453 OA
ENDBRANCH  26  27
ENDBRANCH  25  26
ENDBRANCH  22  23
ENDBRANCH  21  22
TORSDOF 5
ENDMDL
MODEL 5
REMARK VINA RESULT:     -12.8      1.724      4.438
REMARK  Name = 
REMARK  5 active torsions:
REMARK  status: ('A' for Active; 'I' for Inactive)
REMARK    1  A    between atoms: C_11  and  C_13
REMARK    2  A    between atoms: C_21  and  C_22
REMARK    3  A    between atoms: C_22  and  C_23
REMARK    4  A    between atoms: N_25  and  C_26
REMARK    5  A    between atoms: C_26  and  C_27
REMARK                            x       y       z     vdW  Elec       q    Type
REMARK                         _______ _______ _______ _____ _____    ______ ____
ROOT
ATOM      1  C   UNL     1       0.930   0.007  23.230  0.00  0.00    +0.097 C 
ATOM      2  C   UNL     1       0.392   0.545  23.548  0.00  0.00    +0.248 C 
ATOM      3  O   UNL     1       0.662   1.249  23.883  0.00  0.00    -0.273 OA
ATOM      4  N   UNL     1      -0.416   0.380  23.532  0.00  0.00    -0.154 NA
ATOM      5  C   UNL     1      -0.954   0.918  23.850  0.00  0.00    +0.185 A 
ATOM      6  N   UNL     1      -1.773   0.827  23.873  0.00  0.00    -0.227 NA
ATOM      7  C   UNL     1      -2.093   1.495  24.238  0.00  0.00    +0.063 A 
ATOM      8  C   UNL     1      -1.471   1.997  24.441  0.00  0.00    +0.023 A 
ATOM      9  C   UNL     1      -1.626   2.714  24.818  0.00  0.00    +0.034 C 
ATOM     10  C   UNL     1      -2.403   2.929  24.992  0.00  0.00    +0.010 C 
ATOM     11  C   UNL     1      -2.558   3.646  25.369  0.00  0.00    +0.059 C 
ATOM     12  C   UNL     1      -1.735   3.685  25.319  0.00  0.00    +0.005 C 
ATOM     15  C   UNL     1      -3.335   3.862  25.543  0.00  0.00    +0.154 C 
ATOM     16  O   UNL     1      -3.491   4.579  25.920  0.00  0.00    -0.223 OA
ATOM     17  C   UNL     1      -3.957   3.359  25.341  0.00  0.00    +0.033 C 
ATOM     18  C   UNL     1      -3.802   2.641  24.964  0.00  0.00    +0.003 C 
ATOM     19  C   UNL     1      -3.025   2.427  24.790  0.00  0.00    +0.006 C 
ATOM     20  C   UNL     1      -3.647   1.925  24.587  0.00  0.00    +0.000 C 
ATOM     21  C   UNL     1      -2.871   1.710  24.413  0.00  0.00    +0.050 C 
ATOM     32  S   UNL     1      -0.766   1.640  24.201  0.00  0.00    -0.054 S 
ENDROOT
BRANCH  11  13
ATOM     13  C   UNL     1      -2.427   4.377  25.729  0.00  0.00    +0.184 C 
ATOM     14  O   UNL     1      -1.715   4.775  25.610  0.00  0.00    -0.220 OA
ENDBRANCH  11  13
BRANCH  21  22
ATOM     22  C   UNL     1      -3.492   1.208  24.210  0.00  0.00    +0.093 C 
BRANCH  22  23
ATOM     23  C   UNL     1      -3.665   0.554  24.682  0.00  0.00    +0.242 C 
ATOM     24  O   UNL     1      -3.692   0.634  25.503  0.00  0.00    -0.273 OA
ATOM     25  N   UNL     1      -3.812  -0.180  24.334  0.00  0.00    -0.197 NA
BRANCH  25  26
ATOM     26  C   UNL     1      -3.985  -0.833  24.806  0.00  0.00    +0.179 C 
BRANCH  26  27
ATOM     27  C   UNL     1      -3.980  -1.590  24.479  0.00  0.00    +0.145 A 
ATOM     28  C   UNL     1      -3.530  -2.230  24.743  0.00  0.00    +0.038 A 
ATOM     29  C   UNL     1      -3.696  -2.877  24.258  0.00  0.00    +0.043 A 
ATOM     30  C   UNL     1      -4.249  -2.637  23.695  0.00  0.00    +0.179 A 
ATOM     31  O   UNL     1      -4.424  -1.842  23.831  0.00  0.00    -0.453 OA
ENDBRANCH  26  27
ENDBRANCH  25  26
ENDBRANCH  22  23
ENDBRANCH  21  22
TORSDOF 5
ENDMDL
MODEL 6
REMARK VINA RESULT:     -12.7      2.181      4.561
REMARK  Name = 
REMARK  5 active torsions:
REMARK  status: ('A' for Active; 'I' for Inactive)
REMARK    1  A    between atoms: C_11  and  C_13
REMARK    2  A    between atoms: C_21  and  C_22
REMARK    3  A    between atoms: C_22  and  C_23
REMARK    4  A    between atoms: N_25  and  C_26
REMARK    5  A    between atoms: C_26  and  C_27
REMARK                            x       y       z     vdW  Elec       q    Type
REMARK                         _______ _______ _______ _____ _____    ______ ____
ROOT
ATOM      1  C   UNL     1      -0.529   5.281  24.940  0.00  0.00    +0.097 C 
ATOM      2  C   UNL     1      -1.232   4.853  25.000  0.00  0.00    +0.248 C 
ATOM      3  O   UNL     1      -1.888   5.186  25.372  0.00  0.00    -0.273 OA
ATOM      4  N   UNL     1      -1.279   4.091  24.687  0.00  0.00    -0.154 NA
ATOM      5  C   UNL     1      -1.982   3.663  24.746  0.00  0.00    +0.185 A 
ATOM      6  N   UNL     1      -2.109   2.899  24.461  0.00  0.00    -0.227 NA
ATOM      7  C   UNL     1      -2.887   2.687  24.640  0.00  0.00    +0.063 A 
ATOM      8  C   UNL     1      -3.239   3.320  25.035  0.00  0.00    +0.023 A 
ATOM      9  C   UNL     1      -4.023   3.265  25.285  0.00  0.00    +0.034 C 
ATOM     10  C   UNL     1      -4.456   2.579  25.138  0.00  0.00    +0.010 C 
ATOM     11  C   UNL     1      -5.240   2.524  25.387  0.00  0.00    +0.059 C 
ATOM     12  C   UNL     1      -5.058   3.284  25.652  0.00  0.00    +0.005 C 
ATOM     15  C   UNL     1      -5.673   1.837  25.241  0.00  0.00    +0.154 C 
ATOM     16  O   UNL     1      -6.458   1.782  25.491  0.00  0.00    -0.223 OA
ATOM     17  C   UNL     1      -5.321   1.205  24.846  0.00  0.00    +0.033 C 
ATOM     18  C   UNL     1      -4.536   1.259  24.596  0.00  0.00    +0.003 C 
ATOM     19  C   UNL     1      -4.104   1.946  24.743  0.00  0.00    +0.006 C 
ATOM     20  C   UNL     1      -3.752   1.313  24.347  0.00  0.00    +0.000 C 
ATOM     21  C   UNL     1      -3.320   2.000  24.493  0.00  0.00    +0.050 C 
ATOM     32  S   UNL     1      -2.679   3.923  25.101  0.00  0.00    -0.054 S 
ENDROOT
BRANCH  11  13
ATOM     13  C   UNL     1      -5.962   2.733  25.729  0.00  0.00    +0.184 C 
ATOM     14  O   UNL     1      -6.115   3.521  25.920  0.00  0.00    -0.220 OA
ENDBRANCH  11  13
BRANCH  21  22
ATOM     22  C   UNL     1      -2.968   1.368  24.098  0.00  0.00    +0.093 C 
BRANCH  22  23
ATOM     23  C   UNL     1      -2.425   0.886  24.490  0.00  0.00    +0.242 C 
ATOM     24  O   UNL     1      -2.557   0.673  25.276  0.00  0.00    -0.273 OA
ATOM     25  N   UNL     1      -1.752   0.618  24.097  0.00  0.00    -0.197 NA
BRANCH  25  26
ATOM     26  C   UNL     1      -1.210   0.136  24.489  0.00  0.00    +0.179 C 
BRANCH  26  27
ATOM     27  C   UNL     1      -0.519  -0.103  24.107  0.00  0.00    +0.145 A 
ATOM     28  C   UNL     1      -0.192  -0.861  24.126  0.00  0.00    +0.038 A 
ATOM     29  C   UNL     1       0.496  -0.854  23.670  0.00  0.00    +0.043 A 
ATOM     30  C   UNL     1       0.594  -0.092  23.369  0.00  0.00    +0.179 A 
ATOM     31  O   UNL     1      -0.033   0.372  23.639  0.00  0.00    -0.453 OA
ENDBRANCH  26  27
ENDBRANCH  25  26
ENDBRANCH  22  23
ENDBRANCH  21  22
TORSDOF 5
ENDMDL
MODEL 7
REMARK VINA RESULT:     -12.7      1.662      4.882
REMARK  Name = 
REMARK  5 active torsions:
REMARK  status: ('A' for Active; 'I' for Inactive)
REMARK    1  A    between atoms: C_11  and  C_13
REMARK    2  A    between atoms: C_21  and  C_22
REMARK    3  A    between atoms: C_22  and  C_23
REMARK    4  A    between atoms: N_25  and  C_26
REMARK    5  A    between atoms: C_26  and  C_27
REMARK                            x       y       z     vdW  Elec       q    Type
REMARK                         _______ _______ _______ _____ _____    ______ ____
ROOT
ATOM      1  C   UNL     1      -3.585  -2.871  24.223  0.00  0.00    +0.097 C 
ATOM      2  C   UNL     1      -3.779  -2.081  24.361  0.00  0.00    +0.248 C 
ATOM      3  O   UNL     1      -4.473  -1.891  24.763  0.00  0.00    -0.273 OA
ATOM      4  N   UNL     1      -3.279  -1.481  24.096  0.00  0.00    -0.154 NA
ATOM      5  C   UNL     1      -3.473  -0.691  24.234  0.00  0.00    +0.185 A 
ATOM      6  N   UNL     1      -3.028  -0.036  24.003  0.00  0.00    -0.227 NA
ATOM      7  C   UNL     1      -3.425   0.642  24.253  0.00  0.00    +0.063 A 
ATOM      8  C   UNL     1      -4.115   0.406  24.638  0.00  0.00    +0.023 A 
ATOM      9  C   UNL     1      -4.628   0.972  24.950  0.00  0.00    +0.034 C 
ATOM     10  C   UNL     1      -4.451   1.774  24.877  0.00  0.00    +0.010 C 
ATOM     11  C   UNL     1      -4.964   2.340  25.189  0.00  0.00    +0.059 C 
ATOM     12  C   UNL     1      -5.368   1.651  25.396  0.00  0.00    +0.005 C 
ATOM     15  C   UNL     1      -4.787   3.142  25.116  0.00  0.00    +0.154 C 
ATOM     16  O   UNL     1      -5.300   3.709  25.428  0.00  0.00    -0.223 OA
ATOM     17  C   UNL     1      -4.097   3.379  24.731  0.00  0.00    +0.033 C 
ATOM     18  C   UNL     1      -3.584   2.813  24.418  0.00  0.00    +0.003 C 
ATOM     19  C   UNL     1      -3.761   2.011  24.492  0.00  0.00    +0.006 C 
ATOM     20  C   UNL     1      -3.071   2.247  24.107  0.00  0.00    +0.000 C 
ATOM     21  C   UNL     1      -3.248   1.445  24.180  0.00  0.00    +0.050 C 
ATOM     32  S   UNL     1      -4.144  -0.419  24.626  0.00  0.00    -0.054 S 
ENDROOT
BRANCH  11  13
ATOM     13  C   UNL     1      -5.617   2.667  25.573  0.00  0.00    +0.184 C 
ATOM     14  O   UNL     1      -6.151   2.178  25.969  0.00  0.00    -0.220 OA
ENDBRANCH  11  13
BRANCH  21  22
ATOM     22  C   UNL     1      -2.559   1.682  23.795  0.00  0.00    +0.093 C 
BRANCH  22  23
ATOM     23  C   UNL     1      -1.828   1.603  24.170  0.00  0.00    +0.242 C 
ATOM     24  O   UNL     1      -1.745   1.830  24.959  0.00  0.00    -0.273 OA
ATOM     25  N   UNL     1      -1.183   1.298  23.757  0.00  0.00    -0.197 NA
BRANCH  25  26
ATOM     26  C   UNL     1      -0.453   1.220  24.133  0.00  0.00    +0.179 C 
BRANCH  26  27
ATOM     27  C   UNL     1       0.161   0.813  23.761  0.00  0.00    +0.145 A 
ATOM     28  C   UNL     1       0.896   1.127  23.555  0.00  0.00    +0.038 A 
ATOM     29  C   UNL     1       1.337   0.530  23.196  0.00  0.00    +0.043 A 
ATOM     30  C   UNL     1       0.875  -0.153  23.179  0.00  0.00    +0.179 A 
ATOM     31  O   UNL     1       0.148   0.022  23.529  0.00  0.00    -0.453 OA
ENDBRANCH  26  27
ENDBRANCH  25  26
ENDBRANCH  22  23
ENDBRANCH  21  22
TORSDOF 5
ENDMDL
MODEL 8
REMARK VINA RESULT:     -11.8      2.019      2.603
REMARK  Name = 
REMARK  5 active torsions:
REMARK  status: ('A' for Active; 'I' for Inactive)
REMARK    1  A    between atoms: C_11  and  C_13
REMARK    2  A    between atoms: C_21  and  C_22
REMARK    3  A    between atoms: C_22  and  C_23
REMARK    4  A    between atoms: N_25  and  C_26
REMARK    5  A    between atoms: C_26  and  C_27
REMARK                            x       y       z     vdW  Elec       q    Type
REMARK                         _______ _______ _______ _____ _____    ______ ____
ROOT
ATOM      1  C   UNL     1       2.020   0.342  22.723  0.00  0.00    +0.097 C 
ATOM      2  C   UNL     1       1.329   0.032  23.050  0.00  0.00    +0.248 C 
ATOM      3  O   UNL     1       1.104  -0.743  22.881  0.00  0.00    -0.273 OA
ATOM      4  N   UNL     1       0.863   0.497  23.546  0.00  0.00    -0.154 NA
ATOM      5  C   UNL     1       0.172   0.187  23.873  0.00  0.00    +0.185 A 
ATOM      6  N   UNL     1      -0.347   0.586  24.377  0.00  0.00    -0.227 NA
ATOM      7  C   UNL     1      -0.961   0.069  24.569  0.00  0.00    +0.063 A 
ATOM      8  C   UNL     1      -0.822  -0.647  24.185  0.00  0.00    +0.023 A 
ATOM      9  C   UNL     1      -1.351  -1.274  24.277  0.00  0.00    +0.034 C 
ATOM     10  C   UNL     1      -2.019  -1.184  24.752  0.00  0.00    +0.010 C 
ATOM     11  C   UNL     1      -2.547  -1.810  24.843  0.00  0.00    +0.059 C 
ATOM     12  C   UNL     1      -1.996  -2.160  24.338  0.00  0.00    +0.005 C 
ATOM     15  C   UNL     1      -3.216  -1.721  25.318  0.00  0.00    +0.154 C 
ATOM     16  O   UNL     1      -3.745  -2.348  25.410  0.00  0.00    -0.223 OA
ATOM     17  C   UNL     1      -3.355  -1.004  25.703  0.00  0.00    +0.033 C 
ATOM     18  C   UNL     1      -2.826  -0.377  25.611  0.00  0.00    +0.003 C 
ATOM     19  C   UNL     1      -2.158  -0.468  25.136  0.00  0.00    +0.006 C 
ATOM     20  C   UNL     1      -2.298   0.249  25.520  0.00  0.00    +0.000 C 
ATOM     21  C   UNL     1      -1.630   0.159  25.045  0.00  0.00    +0.050 C 
ATOM     32  S   UNL     1      -0.121  -0.574  23.755  0.00  0.00    -0.054 S 
ENDROOT
BRANCH  11  13
ATOM     13  C   UNL     1      -2.885  -2.559  24.759  0.00  0.00    +0.184 C 
ATOM     14  O   UNL     1      -2.574  -3.094  24.215  0.00  0.00    -0.220 OA
ENDBRANCH  11  13
BRANCH  21  22
ATOM     22  C   UNL     1      -1.769   0.875  25.429  0.00  0.00    +0.093 C 
BRANCH  22  23
ATOM     23  C   UNL     1      -2.052   1.523  25.004  0.00  0.00    +0.242 C 
ATOM     24  O   UNL     1      -2.585   1.408  24.385  0.00  0.00    -0.273 OA
ATOM     25  N   UNL     1      -1.802   2.285  25.198  0.00  0.00    -0.197 NA
BRANCH  25  26
ATOM     26  C   UNL     1      -2.086   2.932  24.773  0.00  0.00    +0.179 C 
BRANCH  26  27
ATOM     27  C   UNL     1      -1.783   3.686  24.920  0.00  0.00    +0.145 A 
ATOM     28  C   UNL     1      -2.182   4.305  25.293  0.00  0.00    +0.038 A 
ATOM     29  C   UNL     1      -1.674   4.954  25.322  0.00  0.00    +0.043 A 
ATOM     30  C   UNL     1      -0.962   4.737  24.967  0.00  0.00    +0.179 A 
ATOM     31  O   UNL     1      -1.029   3.953  24.719  0.00  0.00    -0.453 OA
ENDBRANCH  26  27
ENDBRANCH  25  26
ENDBRANCH  22  23
ENDBRANCH  21  22
TORSDOF 5
ENDMDL
