MODEL 1
REMARK VINA RESULT:     -13.0      0.000      0.000
REMARK  Name = 
REMARK  7 active torsions:
REMARK  status: ('A' for Active; 'I' for Inactive)
REMARK    1  A    between atoms: N_7  and  C_10
REMARK    2  A    between atoms: C_12  and  C_16
REMARK    3  A    between atoms: C_19  and  C_21
REMARK    4  A    between atoms: N_25  and  C_26
REMARK    5  A    between atoms: C_26  and  C_27
REMARK    6  A    between atoms: C_27  and  C_28
REMARK    7  A    between atoms: C_28  and  C_29
REMARK                            x       y       z     vdW  Elec       q    Type
REMARK                         _______ _______ _______ _____ _____    ______ ____
ROOT
ATOM     16  C   UNL     1      -0.632   2.486  24.940  0.00  0.00    +0.203 A 
ATOM     17  N   UNL     1       0.053   2.384  25.388  0.00  0.00    -0.056 NA
ATOM     18  O   UNL     1       0.443   1.714  25.108  0.00  0.00    -0.336 OA
ATOM     19  C   UNL     1      -0.000   1.402  24.486  0.00  0.00    +0.251 A 
ATOM     20  N   UNL     1      -0.665   1.879  24.382  0.00  0.00    -0.190 NA
ENDROOT
BRANCH  16  12
ATOM     10  C   UNL     1      -2.543   3.508  25.211  0.00  0.00    +0.132 A 
ATOM     11  C   UNL     1      -1.988   2.905  25.117  0.00  0.00    +0.037 A 
ATOM     12  C   UNL     1      -1.187   3.089  25.033  0.00  0.00    +0.043 A 
ATOM     13  C   UNL     1      -0.943   3.877  25.041  0.00  0.00    +0.024 A 
ATOM     14  C   UNL     1      -1.498   4.480  25.134  0.00  0.00    +0.100 A 
ATOM     15  N   UNL     1      -2.297   4.296  25.219  0.00  0.00    -0.229 NA
BRANCH  10   7
ATOM      1  C   UNL     1      -6.081   2.184  25.078  0.00  0.00    +0.095 C 
ATOM      2  C   UNL     1      -5.741   2.769  25.550  0.00  0.00    +0.226 C 
ATOM      3  O   UNL     1      -6.200   3.170  26.107  0.00  0.00    -0.275 OA
ATOM      4  N   UNL     1      -4.941   2.954  25.465  0.00  0.00    -0.276 N 
ATOM      5  C   UNL     1      -4.601   3.539  25.937  0.00  0.00    +0.115 C 
ATOM      6  C   UNL     1      -3.801   3.724  25.852  0.00  0.00    +0.114 C 
ATOM      7  N   UNL     1      -3.342   3.323  25.295  0.00  0.00    -0.290 N 
ATOM      8  C   UNL     1      -3.683   2.738  24.824  0.00  0.00    +0.114 C 
ATOM      9  C   UNL     1      -4.482   2.554  24.909  0.00  0.00    +0.115 C 
ENDBRANCH  10   7
ENDBRANCH  16  12
BRANCH  19  21
ATOM     21  C   UNL     1       0.189   0.730  24.045  0.00  0.00    +0.138 C 
ATOM     22  C   UNL     1       0.739   0.692  23.431  0.00  0.00    +0.027 C 
ATOM     23  C   UNL     1       0.751  -0.082  23.148  0.00  0.00    +0.019 C 
ATOM     24  C   UNL     1       0.207  -0.522  23.586  0.00  0.00    +0.073 C 
ATOM     25  N   UNL     1      -0.140  -0.020  24.140  0.00  0.00    -0.266 NA
BRANCH  25  26
ATOM     26  C   UNL     1      -0.715  -0.231  24.693  0.00  0.00    +0.073 C 
BRANCH  26  27
ATOM     27  C   UNL     1      -1.240  -0.845  24.528  0.00  0.00    +0.022 C 
BRANCH  27  28
ATOM     28  C   UNL     1      -1.824  -1.047  25.074  0.00  0.00    +0.028 C 
BRANCH  28  29
ATOM     29  C   UNL     1      -2.521  -1.407  24.819  0.00  0.00    -0.022 A 
ATOM     30  C   UNL     1      -3.191  -0.949  24.671  0.00  0.00    -0.004 A 
ATOM     31  C   UNL     1      -3.888  -1.309  24.416  0.00  0.00    -0.000 A 
ATOM     32  C   UNL     1      -3.916  -2.126  24.309  0.00  0.00    -0.000 A 
ATOM     33  C   UNL     1      -3.245  -2.584  24.458  0.00  0.00    -0.000 A 
ATOM     34  C   UNL     1      -2.548  -2.224  24.713  0.00  0.00    -0.004 A 
ENDBRANCH  28  29
ENDBRANCH  27  28
ENDBRANCH  26  27
ENDBRANCH  25  26
ENDBRANCH  19  21
TORSDOF 7
ENDMDL
MODEL 2
REMARK VINA RESULT:     -12.8      1.051      4.451
REMARK  Name = 
REMARK  7 active torsions:
REMARK  status: ('A' for Active; 'I' for Inactive)
REMARK    1  A    between atoms: N_7  and  C_10
REMARK    2  A    between atoms: C_12  and  C_16
REMARK    3  A    between atoms: C_19  and  C_21
REMARK    4  A    between atoms: N_25  and  C_26
REMARK    5  A    between atoms: C_26  and  C_27
REMARK    6  A    between atoms: C_27  and  C_28
REMARK    7  A    between atoms: C_28  and  C_29
REMARK                            x       y       z     vdW  Elec       q    Type
REMARK                         _______ _______ _______ _____ _____    ______ ____
ROOT
ATOM     16  C   UNL     1      -3.024   3.353  24.948  0.00  0.00    +0.203 A 
ATOM     17  N   UNL     1      -3.514   3.899  24.569  0.00  0.00    -0.056 NA
ATOM     18  O   UNL     1      -4.295   3.662  24.684  0.00  0.00    -0.336 OA
ATOM     19  C   UNL     1      -4.288   2.970  25.133  0.00  0.00    +0.251 A 
ATOM     20  N   UNL     1      -3.503   2.780  25.296  0.00  0.00    -0.190 NA
ENDROOT
BRANCH  16  12
ATOM     10  C   UNL     1      -0.934   2.776  24.689  0.00  0.00    +0.132 A 
ATOM     11  C   UNL     1      -1.758   2.752  24.663  0.00  0.00    +0.037 A 
ATOM     12  C   UNL     1      -2.200   3.377  24.973  0.00  0.00    +0.043 A 
ATOM     13  C   UNL     1      -1.815   4.026  25.308  0.00  0.00    +0.024 A 
ATOM     14  C   UNL     1      -0.991   4.050  25.334  0.00  0.00    +0.100 A 
ATOM     15  N   UNL     1      -0.551   3.426  25.024  0.00  0.00    -0.229 NA
BRANCH  10   7
ATOM      1  C   UNL     1       0.491  -0.473  23.384  0.00  0.00    +0.095 C 
ATOM      2  C   UNL     1       0.829   0.277  23.449  0.00  0.00    +0.226 C 
ATOM      3  O   UNL     1       1.607   0.402  23.205  0.00  0.00    -0.275 OA
ATOM      4  N   UNL     1       0.388   0.902  23.759  0.00  0.00    -0.276 N 
ATOM      5  C   UNL     1       0.725   1.652  23.825  0.00  0.00    +0.115 C 
ATOM      6  C   UNL     1       0.284   2.277  24.135  0.00  0.00    +0.114 C 
ATOM      7  N   UNL     1      -0.494   2.152  24.379  0.00  0.00    -0.290 N 
ATOM      8  C   UNL     1      -0.830   1.401  24.313  0.00  0.00    +0.114 C 
ATOM      9  C   UNL     1      -0.390   0.777  24.004  0.00  0.00    +0.115 C 
ENDBRANCH  10   7
ENDBRANCH  16  12
BRANCH  19  21
ATOM     21  C   UNL     1      -4.952   2.544  25.377  0.00  0.00    +0.138 C 
ATOM     22  C   UNL     1      -5.542   2.815  25.886  0.00  0.00    +0.027 C 
ATOM     23  C   UNL     1      -6.096   2.211  25.978  0.00  0.00    +0.019 C 
ATOM     24  C   UNL     1      -5.848   1.567  25.525  0.00  0.00    +0.073 C 
ATOM     25  N   UNL     1      -5.141   1.773  25.154  0.00  0.00    -0.266 NA
BRANCH  25  26
ATOM     26  C   UNL     1      -4.701   1.292  24.648  0.00  0.00    +0.073 C 
BRANCH  26  27
ATOM     27  C   UNL     1      -4.679   0.477  24.770  0.00  0.00    +0.022 C 
BRANCH  27  28
ATOM     28  C   UNL     1      -4.299  -0.011  24.224  0.00  0.00    +0.028 C 
BRANCH  28  29
ATOM     29  C   UNL     1      -4.054  -0.766  24.448  0.00  0.00    -0.022 A 
ATOM     30  C   UNL     1      -3.615  -0.870  25.139  0.00  0.00    -0.004 A 
ATOM     31  C   UNL     1      -3.370  -1.626  25.362  0.00  0.00    -0.000 A 
ATOM     32  C   UNL     1      -3.563  -2.278  24.895  0.00  0.00    -0.000 A 
ATOM     33  C   UNL     1      -4.002  -2.174  24.204  0.00  0.00    -0.000 A 
ATOM     34  C   UNL     1      -4.247  -1.418  23.980  0.00  0.00    -0.004 A 
ENDBRANCH  28  29
ENDBRANCH  27  28
ENDBRANCH  26  27
ENDBRANCH  25  26
ENDBRANCH  19  21
TORSDOF 7
ENDMDL
MODEL 3
REMARK VINA RESULT:     -12.7      1.375      4.515
REMARK  Name = 
REMARK  7 active torsions:
REMARK  status: ('A' for Active; 'I' for Inactive)
REMARK    1  A    between atoms: N_7  and  C_10
REMARK    2  A    between atoms: C_12  and  C_16
REMARK    3  A    between atoms: C_19  and  C_21
REMARK    4  A    between atoms: N_25  and  C_26
REMARK    5  A    between atoms: C_26  and  C_27
REMARK    6  A    between atoms: C_27  and  C_28
REMARK    7  A    between atoms: C_28  and  C_29
REMARK                            x       y       z     vdW  Elec       q    Type
REMARK                         _______ _______ _______ _____ _____    ______ ____
ROOT
ATOM     16  C   UNL     1      -0.399   1.979  25.000  0.00  0.00    +0.203 A 
ATOM     17  N   UNL     1      -0.074   2.177  25.732  0.00  0.00    -0.056 NA
ATOM     18  O   UNL     1      -0.271   2.961  25.894  0.00  0.00    -0.336 OA
ATOM     19  C   UNL     1      -0.718   3.247  25.262  0.00  0.00    +0.251 A 
ATOM     20  N   UNL     1      -0.798   2.640  24.710  0.00  0.00    -0.190 NA
ENDROOT
BRANCH  16  12
ATOM     10  C   UNL     1      -0.877  -0.045  24.333  0.00  0.00    +0.132 A 
ATOM     11  C   UNL     1      -0.939   0.687  24.709  0.00  0.00    +0.037 A 
ATOM     12  C   UNL     1      -0.338   1.247  24.624  0.00  0.00    +0.043 A 
ATOM     13  C   UNL     1       0.325   1.073  24.164  0.00  0.00    +0.024 A 
ATOM     14  C   UNL     1       0.387   0.342  23.788  0.00  0.00    +0.100 A 
ATOM     15  N   UNL     1      -0.214  -0.217  23.873  0.00  0.00    -0.229 NA
BRANCH  10   7
ATOM      1  C   UNL     1      -4.040  -2.113  24.400  0.00  0.00    +0.095 C 
ATOM      2  C   UNL     1      -3.280  -2.281  24.672  0.00  0.00    +0.226 C 
ATOM      3  O   UNL     1      -3.119  -3.008  25.028  0.00  0.00    -0.275 OA
ATOM      4  N   UNL     1      -2.679  -1.722  24.587  0.00  0.00    -0.276 N 
ATOM      5  C   UNL     1      -1.918  -1.890  24.858  0.00  0.00    +0.115 C 
ATOM      6  C   UNL     1      -1.317  -1.330  24.774  0.00  0.00    +0.114 C 
ATOM      7  N   UNL     1      -1.477  -0.603  24.418  0.00  0.00    -0.290 N 
ATOM      8  C   UNL     1      -2.238  -0.436  24.146  0.00  0.00    +0.114 C 
ATOM      9  C   UNL     1      -2.839  -0.995  24.231  0.00  0.00    +0.115 C 
ENDBRANCH  10   7
ENDBRANCH  16  12
BRANCH  19  21
ATOM     21  C   UNL     1      -1.031   4.008  25.196  0.00  0.00    +0.138 C 
ATOM     22  C   UNL     1      -0.650   4.662  24.868  0.00  0.00    +0.027 C 
ATOM     23  C   UNL     1      -1.163   5.306  24.914  0.00  0.00    +0.019 C 
ATOM     24  C   UNL     1      -1.862   5.050  25.271  0.00  0.00    +0.073 C 
ATOM     25  N   UNL     1      -1.780   4.248  25.445  0.00  0.00    -0.266 NA
BRANCH  25  26
ATOM     26  C   UNL     1      -2.348   3.769  25.805  0.00  0.00    +0.073 C 
BRANCH  26  27
ATOM     27  C   UNL     1      -3.140   3.831  25.582  0.00  0.00    +0.022 C 
BRANCH  27  28
ATOM     28  C   UNL     1      -3.727   3.491  26.052  0.00  0.00    +0.028 C 
BRANCH  28  29
ATOM     29  C   UNL     1      -4.377   3.126  25.699  0.00  0.00    -0.022 A 
ATOM     30  C   UNL     1      -5.115   3.496  25.712  0.00  0.00    -0.004 A 
ATOM     31  C   UNL     1      -5.765   3.131  25.359  0.00  0.00    -0.000 A 
ATOM     32  C   UNL     1      -5.678   2.397  24.992  0.00  0.00    -0.000 A 
ATOM     33  C   UNL     1      -4.940   2.028  24.979  0.00  0.00    -0.000 A 
ATOM     34  C   UNL     1      -4.290   2.393  25.332  0.00  0.00    -0.004 A 
ENDBRANCH  28  29
ENDBRANCH  27  28
ENDBRANCH  26  27
ENDBRANCH  25  26
ENDBRANCH  19  21
TORSDOF 7
ENDMDL
MODEL 4
REMARK VINA RESULT:     -12.7      1.613      4.213
REMARK  Name = 
REMARK  7 active torsions:
REMARK  status: ('A' for Active; 'I' for Inactive)
REMARK    1  A    between atoms: N_7  and  C_10
REMARK    2  A    between atoms: C_12  and  C_16
REMARK    3  A    between atoms: C_19  and  C_21
REMARK    4  A    between atoms: N_25  and  C_26
REMARK    5  A    between atoms: C_26  and  C_27
REMARK    6  A    between atoms: C_27  and  C_28
REMARK    7  A    between atoms: C_28  and  C_29
REMARK                            x       y       z     vdW  Elec       q    Type
REMARK                         _______ _______ _______ _____ _____    ______ ____
ROOT
ATOM     16  C   UNL     1      -3.799   3.140  25.477  0.00  0.00    +0.203 A 
ATOM     17  N   UNL     1      -3.848   3.595  26.164  0.00  0.00    -0.056 NA
ATOM     18  O   UNL     1      -3.198   4.102  26.179  0.00  0.00    -0.336 OA
ATOM     19  C   UNL     1      -2.747   3.961  25.503  0.00  0.00    +0.251 A 
ATOM     20  N   UNL     1      -3.119   3.366  25.069  0.00  0.00    -0.190 NA
ENDROOT
BRANCH  16  12
ATOM     10  C   UNL     1      -4.633   1.193  24.948  0.00  0.00    +0.132 A 
ATOM     11  C   UNL     1      -4.096   1.772  25.185  0.00  0.00    +0.037 A 
ATOM     12  C   UNL     1      -4.336   2.560  25.240  0.00  0.00    +0.043 A 
ATOM     13  C   UNL     1      -5.113   2.768  25.058  0.00  0.00    +0.024 A 
ATOM     14  C   UNL     1      -5.651   2.188  24.821  0.00  0.00    +0.100 A 
ATOM     15  N   UNL     1      -5.411   1.401  24.766  0.00  0.00    -0.229 NA
BRANCH  10   7
ATOM      1  C   UNL     1      -3.599  -2.315  23.992  0.00  0.00    +0.095 C 
ATOM      2  C   UNL     1      -3.672  -1.957  24.731  0.00  0.00    +0.226 C 
ATOM      3  O   UNL     1      -3.505  -2.385  25.416  0.00  0.00    -0.275 OA
ATOM      4  N   UNL     1      -3.913  -1.169  24.785  0.00  0.00    -0.276 N 
ATOM      5  C   UNL     1      -3.986  -0.811  25.525  0.00  0.00    +0.115 C 
ATOM      6  C   UNL     1      -4.226  -0.023  25.579  0.00  0.00    +0.114 C 
ATOM      7  N   UNL     1      -4.393   0.406  24.894  0.00  0.00    -0.290 N 
ATOM      8  C   UNL     1      -4.319   0.047  24.155  0.00  0.00    +0.114 C 
ATOM      9  C   UNL     1      -4.079  -0.740  24.100  0.00  0.00    +0.115 C 
ENDBRANCH  10   7
ENDBRANCH  16  12
BRANCH  19  21
ATOM     21  C   UNL     1      -2.047   4.347  25.297  0.00  0.00    +0.138 C 
ATOM     22  C   UNL     1      -1.985   5.122  25.020  0.00  0.00    +0.027 C 
ATOM     23  C   UNL     1      -1.187   5.280  24.884  0.00  0.00    +0.019 C 
ATOM     24  C   UNL     1      -0.756   4.603  25.077  0.00  0.00    +0.073 C 
ATOM     25  N   UNL     1      -1.289   4.027  25.332  0.00  0.00    -0.266 NA
BRANCH  25  26
ATOM     26  C   UNL     1      -1.095   3.263  25.579  0.00  0.00    +0.073 C 
BRANCH  26  27
ATOM     27  C   UNL     1      -0.536   2.823  25.161  0.00  0.00    +0.022 C 
BRANCH  27  28
ATOM     28  C   UNL     1      -0.253   2.115  25.473  0.00  0.00    +0.028 C 
BRANCH  28  29
ATOM     29  C   UNL     1      -0.253   1.432  25.010  0.00  0.00    -0.022 A 
ATOM     30  C   UNL     1      -0.602   0.740  25.295  0.00  0.00    -0.004 A 
ATOM     31  C   UNL     1      -0.602   0.057  24.833  0.00  0.00    -0.000 A 
ATOM     32  C   UNL     1      -0.254   0.065  24.085  0.00  0.00    -0.000 A 
ATOM     33  C   UNL     1       0.094   0.757  23.799  0.00  0.00    -0.000 A 
ATOM     34  C   UNL     1       0.094   1.440  24.262  0.00  0.00    -0.004 A 
ENDBRANCH  28  29
ENDBRANCH  27  28
ENDBRANCH  26  27
ENDBRANCH  25  26
ENDBRANCH  19  21
TORSDOF 7
ENDMDL
MODEL 5
REMARK VINA RESULT:     -12.0      1.599      3.780
REMARK  Name = 
REMARK  7 active torsions:
REMARK  status: ('A' for Active; 'I' for Inactive)
REMARK    1  A    between atoms: N_7  and  C_10
REMARK    2  A    between atoms: C_12  and  C_16
REMARK    3  A    between atoms: C_19  and  C_21
REMARK    4  A    between atoms: N_25  and  C_26
REMARK    5  A    between atoms: C_26  and  C_27
REMARK    6  A    between atoms: C_27  and  C_28
REMARK    7  A    between atoms: C_28  and  C_29
REMARK                            x       y       z     vdW  Elec       q    Type
REMARK                         _______ _______ _______ _____ _____    ______ ____
ROOT
ATOM     16  C   UNL     1      -4.248   0.344  25.144  0.00  0.00    +0.203 A 
ATOM     17  N   UNL     1      -4.337  -0.040  25.870  0.00  0.00    -0.056 NA
ATOM     18  O   UNL     1      -4.104  -0.825  25.773  0.00  0.00    -0.336 OA
ATOM     19  C   UNL     1      -3.871  -0.927  24.988  0.00  0.00    +0.251 A 
ATOM     20  N   UNL     1      -3.960  -0.205  24.600  0.00  0.00    -0.190 NA
ENDROOT
BRANCH  16  12
ATOM     10  C   UNL     1      -3.991   2.497  24.893  0.00  0.00    +0.132 A 
ATOM     11  C   UNL     1      -3.821   1.705  25.046  0.00  0.00    +0.037 A 
ATOM     12  C   UNL     1      -4.418   1.136  24.991  0.00  0.00    +0.043 A 
ATOM     13  C   UNL     1      -5.183   1.362  24.781  0.00  0.00    +0.024 A 
ATOM     14  C   UNL     1      -5.353   2.154  24.628  0.00  0.00    +0.100 A 
ATOM     15  N   UNL     1      -4.757   2.722  24.684  0.00  0.00    -0.229 NA
BRANCH  10   7
ATOM      1  C   UNL     1      -0.935   4.707  24.641  0.00  0.00    +0.095 C 
ATOM      2  C   UNL     1      -1.607   4.768  25.116  0.00  0.00    +0.226 C 
ATOM      3  O   UNL     1      -1.683   5.395  25.646  0.00  0.00    -0.275 OA
ATOM      4  N   UNL     1      -2.203   4.200  25.060  0.00  0.00    -0.276 N 
ATOM      5  C   UNL     1      -2.875   4.260  25.535  0.00  0.00    +0.115 C 
ATOM      6  C   UNL     1      -3.471   3.692  25.479  0.00  0.00    +0.114 C 
ATOM      7  N   UNL     1      -3.395   3.064  24.948  0.00  0.00    -0.290 N 
ATOM      8  C   UNL     1      -2.723   3.005  24.474  0.00  0.00    +0.114 C 
ATOM      9  C   UNL     1      -2.127   3.572  24.530  0.00  0.00    +0.115 C 
ENDBRANCH  10   7
ENDBRANCH  16  12
BRANCH  19  21
ATOM     21  C   UNL     1      -3.596  -1.628  24.651  0.00  0.00    +0.138 C 
ATOM     22  C   UNL     1      -4.058  -2.196  24.271  0.00  0.00    +0.027 C 
ATOM     23  C   UNL     1      -3.560  -2.804  24.020  0.00  0.00    +0.019 C 
ATOM     24  C   UNL     1      -2.790  -2.611  24.245  0.00  0.00    +0.073 C 
ATOM     25  N   UNL     1      -2.813  -1.885  24.635  0.00  0.00    -0.266 NA
BRANCH  25  26
ATOM     26  C   UNL     1      -2.165  -1.484  24.954  0.00  0.00    +0.073 C 
BRANCH  26  27
ATOM     27  C   UNL     1      -1.459  -1.440  24.530  0.00  0.00    +0.022 C 
BRANCH  27  28
ATOM     28  C   UNL     1      -0.805  -1.058  24.857  0.00  0.00    +0.028 C 
BRANCH  28  29
ATOM     29  C   UNL     1      -0.365  -0.531  24.400  0.00  0.00    -0.022 A 
ATOM     30  C   UNL     1      -0.376   0.276  24.574  0.00  0.00    -0.004 A 
ATOM     31  C   UNL     1       0.065   0.802  24.117  0.00  0.00    -0.000 A 
ATOM     32  C   UNL     1       0.517   0.523  23.486  0.00  0.00    -0.000 A 
ATOM     33  C   UNL     1       0.528  -0.284  23.312  0.00  0.00    -0.000 A 
ATOM     34  C   UNL     1       0.087  -0.810  23.769  0.00  0.00    -0.004 A 
ENDBRANCH  28  29
ENDBRANCH  27  28
ENDBRANCH  26  27
ENDBRANCH  25  26
ENDBRANCH  19  21
TORSDOF 7
ENDMDL
MODEL 6
REMARK VINA RESULT:     -11.9      1.273      3.742
REMARK  Name = 
REMARK  7 active torsions:
REMARK  status: ('A' for Active; 'I' for Inactive)
REMARK    1  A    between atoms: N_7  and  C_10
REMARK    2  A    between atoms: C_12  and  C_16
REMARK    3  A    between atoms: C_19  and  C_21
REMARK    4  A    between atoms: N_25  and  C_26
REMARK    5  A    between atoms: C_26  and  C_27
REMARK    6  A    between atoms: C_27  and  C_28
REMARK    7  A    between atoms: C_28  and  C_29
REMARK                            x       y       z     vdW  Elec       q    Type
REMARK                         _______ _______ _______ _____ _____    ______ ____
ROOT
ATOM     16  C   UNL     1      -2.214  -0.383  24.544  0.00  0.00    +0.203 A 
ATOM     17  N   UNL     1      -1.769  -0.925  24.980  0.00  0.00    -0.056 NA
ATOM     18  O   UNL     1      -0.971  -0.768  24.842  0.00  0.00    -0.336 OA
ATOM     19  C   UNL     1      -0.923  -0.129  24.322  0.00  0.00    +0.251 A 
ATOM     20  N   UNL     1      -1.691   0.109  24.138  0.00  0.00    -0.190 NA
ENDROOT
BRANCH  16  12
ATOM     10  C   UNL     1      -4.246   0.396  24.725  0.00  0.00    +0.132 A 
ATOM     11  C   UNL     1      -3.422   0.354  24.749  0.00  0.00    +0.037 A 
ATOM     12  C   UNL     1      -3.038  -0.340  24.520  0.00  0.00    +0.043 A 
ATOM     13  C   UNL     1      -3.477  -0.990  24.267  0.00  0.00    +0.024 A 
ATOM     14  C   UNL     1      -4.301  -0.948  24.243  0.00  0.00    +0.100 A 
ATOM     15  N   UNL     1      -4.685  -0.255  24.472  0.00  0.00    -0.229 NA
BRANCH  10   7
ATOM      1  C   UNL     1      -5.619   3.878  25.253  0.00  0.00    +0.095 C 
ATOM      2  C   UNL     1      -5.782   3.169  25.642  0.00  0.00    +0.226 C 
ATOM      3  O   UNL     1      -6.329   3.153  26.259  0.00  0.00    -0.275 OA
ATOM      4  N   UNL     1      -5.398   2.476  25.412  0.00  0.00    -0.276 N 
ATOM      5  C   UNL     1      -5.561   1.767  25.801  0.00  0.00    +0.115 C 
ATOM      6  C   UNL     1      -5.176   1.073  25.571  0.00  0.00    +0.114 C 
ATOM      7  N   UNL     1      -4.629   1.089  24.954  0.00  0.00    -0.290 N 
ATOM      8  C   UNL     1      -4.467   1.799  24.566  0.00  0.00    +0.114 C 
ATOM      9  C   UNL     1      -4.851   2.492  24.795  0.00  0.00    +0.115 C 
ENDBRANCH  10   7
ENDBRANCH  16  12
BRANCH  19  21
ATOM     21  C   UNL     1      -0.228   0.212  24.035  0.00  0.00    +0.138 C 
ATOM     22  C   UNL     1       0.251  -0.094  23.437  0.00  0.00    +0.027 C 
ATOM     23  C   UNL     1       0.885   0.423  23.329  0.00  0.00    +0.019 C 
ATOM     24  C   UNL     1       0.797   1.048  23.861  0.00  0.00    +0.073 C 
ATOM     25  N   UNL     1       0.109   0.917  24.297  0.00  0.00    -0.266 NA
BRANCH  25  26
ATOM     26  C   UNL     1      -0.189   1.407  24.891  0.00  0.00    +0.073 C 
BRANCH  26  27
ATOM     27  C   UNL     1      -0.144   2.226  24.811  0.00  0.00    +0.022 C 
BRANCH  27  28
ATOM     28  C   UNL     1      -0.266   2.711  25.466  0.00  0.00    +0.028 C 
BRANCH  28  29
ATOM     29  C   UNL     1      -0.719   3.397  25.393  0.00  0.00    -0.022 A 
ATOM     30  C   UNL     1      -0.435   4.034  24.952  0.00  0.00    -0.004 A 
ATOM     31  C   UNL     1      -0.888   4.720  24.879  0.00  0.00    -0.000 A 
ATOM     32  C   UNL     1      -1.625   4.769  25.246  0.00  0.00    -0.000 A 
ATOM     33  C   UNL     1      -1.909   4.132  25.687  0.00  0.00    -0.000 A 
ATOM     34  C   UNL     1      -1.456   3.446  25.761  0.00  0.00    -0.004 A 
ENDBRANCH  28  29
ENDBRANCH  27  28
ENDBRANCH  26  27
ENDBRANCH  25  26
ENDBRANCH  19  21
TORSDOF 7
ENDMDL
MODEL 7
REMARK VINA RESULT:     -11.8      1.596      4.022
REMARK  Name = 
REMARK  7 active torsions:
REMARK  status: ('A' for Active; 'I' for Inactive)
REMARK    1  A    between atoms: N_7  and  C_10
REMARK    2  A    between atoms: C_12  and  C_16
REMARK    3  A    between atoms: C_19  and  C_21
REMARK    4  A    between atoms: N_25  and  C_26
REMARK    5  A    between atoms: C_26  and  C_27
REMARK    6  A    between atoms: C_27  and  C_28
REMARK    7  A    between atoms: C_28  and  C_29
REMARK                            x       y       z     vdW  Elec       q    Type
REMARK                         _______ _______ _______ _____ _____    ______ ____
ROOT
ATOM     16  C   UNL     1      -0.959  -0.755  24.569  0.00  0.00    +0.203 A 
ATOM     17  N   UNL     1      -0.749  -1.373  25.075  0.00  0.00    -0.056 NA
ATOM     18  O   UNL     1      -1.393  -1.885  25.131  0.00  0.00    -0.336 OA
ATOM     19  C   UNL     1      -2.000  -1.585  24.661  0.00  0.00    +0.251 A 
ATOM     20  N   UNL     1      -1.732  -0.886  24.314  0.00  0.00    -0.190 NA
ENDROOT
BRANCH  16  12
ATOM     10  C   UNL     1      -0.216   1.287  24.355  0.00  0.00    +0.132 A 
ATOM     11  C   UNL     1      -0.696   0.650  24.567  0.00  0.00    +0.037 A 
ATOM     12  C   UNL     1      -0.479  -0.119  24.357  0.00  0.00    +0.043 A 
ATOM     13  C   UNL     1       0.217  -0.249  23.934  0.00  0.00    +0.024 A 
ATOM     14  C   UNL     1       0.696   0.388  23.722  0.00  0.00    +0.100 A 
ATOM     15  N   UNL     1       0.480   1.155  23.932  0.00  0.00    -0.229 NA
BRANCH  10   7
ATOM      1  C   UNL     1      -1.007   4.971  24.652  0.00  0.00    +0.095 C 
ATOM      2  C   UNL     1      -1.084   4.357  25.198  0.00  0.00    +0.226 C 
ATOM      3  O   UNL     1      -1.376   4.510  25.954  0.00  0.00    -0.275 OA
ATOM      4  N   UNL     1      -0.867   3.589  24.987  0.00  0.00    -0.276 N 
ATOM      5  C   UNL     1      -0.943   2.975  25.532  0.00  0.00    +0.115 C 
ATOM      6  C   UNL     1      -0.726   2.207  25.321  0.00  0.00    +0.114 C 
ATOM      7  N   UNL     1      -0.433   2.054  24.565  0.00  0.00    -0.290 N 
ATOM      8  C   UNL     1      -0.357   2.669  24.021  0.00  0.00    +0.114 C 
ATOM      9  C   UNL     1      -0.574   3.436  24.231  0.00  0.00    +0.115 C 
ENDBRANCH  10   7
ENDBRANCH  16  12
BRANCH  19  21
ATOM     21  C   UNL     1      -2.746  -1.923  24.557  0.00  0.00    +0.138 C 
ATOM     22  C   UNL     1      -2.903  -2.646  24.190  0.00  0.00    +0.027 C 
ATOM     23  C   UNL     1      -3.718  -2.768  24.207  0.00  0.00    +0.019 C 
ATOM     24  C   UNL     1      -4.065  -2.121  24.584  0.00  0.00    +0.073 C 
ATOM     25  N   UNL     1      -3.464  -1.599  24.800  0.00  0.00    -0.266 NA
BRANCH  25  26
ATOM     26  C   UNL     1      -3.564  -0.879  25.191  0.00  0.00    +0.073 C 
BRANCH  26  27
ATOM     27  C   UNL     1      -4.195  -0.387  24.994  0.00  0.00    +0.022 C 
BRANCH  27  28
ATOM     28  C   UNL     1      -4.412   0.228  25.498  0.00  0.00    +0.028 C 
BRANCH  28  29
ATOM     29  C   UNL     1      -4.692   0.938  25.186  0.00  0.00    -0.022 A 
ATOM     30  C   UNL     1      -4.177   1.446  24.789  0.00  0.00    -0.004 A 
ATOM     31  C   UNL     1      -4.458   2.156  24.476  0.00  0.00    -0.000 A 
ATOM     32  C   UNL     1      -5.253   2.359  24.561  0.00  0.00    -0.000 A 
ATOM     33  C   UNL     1      -5.768   1.851  24.958  0.00  0.00    -0.000 A 
ATOM     34  C   UNL     1      -5.487   1.141  25.271  0.00  0.00    -0.004 A 
ENDBRANCH  28  29
ENDBRANCH  27  28
ENDBRANCH  26  27
ENDBRANCH  25  26
ENDBRANCH  19  21
TORSDOF 7
ENDMDL
MODEL 8
REMARK VINA RESULT:     -11.4      1.368      5.834
REMARK  Name = 
REMARK  7 active torsions:
REMARK  status: ('A' for Active; 'I' for Inactive)
REMARK    1  A    between atoms: N_7  and  C_10
REMARK    2  A    between atoms: C_12  and  C_16
REMARK    3  A    between atoms: C_19  and  C_21
REMARK    4  A    between atoms: N_25  and  C_26
REMARK    5  A    between atoms: C_26  and  C_27
REMARK    6  A    between atoms: C_27  and  C_28
REMARK    7  A    between atoms: C_28  and  C_29
REMARK                            x       y       z     vdW  Elec       q    Type
REMARK                         _______ _______ _______ _____ _____    ______ ____
ROOT
ATOM     16  C   UNL     1      -3.800   0.146  24.928  0.00  0.00    +0.203 A 
ATOM     17  N   UNL     1      -4.407   0.010  24.385  0.00  0.00    -0.056 NA
ATOM     18  O   UNL     1      -4.964   0.612  24.471  0.00  0.00    -0.336 OA
ATOM     19  C   UNL     1      -4.702   1.119  25.066  0.00  0.00    +0.251 A 
ATOM     20  N   UNL     1      -3.983   0.831  25.348  0.00  0.00    -0.190 NA
ENDROOT
BRANCH  16  12
ATOM     10  C   UNL     1      -1.750  -0.586  24.762  0.00  0.00    +0.132 A 
ATOM     11  C   UNL     1      -2.421  -0.118  24.658  0.00  0.00    +0.037 A 
ATOM     12  C   UNL     1      -3.129  -0.322  25.031  0.00  0.00    +0.043 A 
ATOM     13  C   UNL     1      -3.163  -0.995  25.507  0.00  0.00    +0.024 A 
ATOM     14  C   UNL     1      -2.492  -1.463  25.611  0.00  0.00    +0.100 A 
ATOM     15  N   UNL     1      -1.786  -1.259  25.238  0.00  0.00    -0.229 NA
BRANCH  10   7
ATOM      1  C   UNL     1       1.429  -0.289  22.737  0.00  0.00    +0.095 C 
ATOM      2  C   UNL     1       1.078   0.234  23.270  0.00  0.00    +0.226 C 
ATOM      3  O   UNL     1       1.433   0.961  23.430  0.00  0.00    -0.275 OA
ATOM      4  N   UNL     1       0.370   0.028  23.643  0.00  0.00    -0.276 N 
ATOM      5  C   UNL     1       0.019   0.551  24.176  0.00  0.00    +0.115 C 
ATOM      6  C   UNL     1      -0.688   0.346  24.549  0.00  0.00    +0.114 C 
ATOM      7  N   UNL     1      -1.043  -0.381  24.389  0.00  0.00    -0.290 N 
ATOM      8  C   UNL     1      -0.691  -0.903  23.856  0.00  0.00    +0.114 C 
ATOM      9  C   UNL     1       0.015  -0.699  23.483  0.00  0.00    +0.115 C 
ENDBRANCH  10   7
ENDBRANCH  16  12
BRANCH  19  21
ATOM     21  C   UNL     1      -5.091   1.797  25.332  0.00  0.00    +0.138 C 
ATOM     22  C   UNL     1      -5.767   1.813  25.805  0.00  0.00    +0.027 C 
ATOM     23  C   UNL     1      -5.967   2.602  25.937  0.00  0.00    +0.019 C 
ATOM     24  C   UNL     1      -5.414   3.074  25.545  0.00  0.00    +0.073 C 
ATOM     25  N   UNL     1      -4.874   2.575  25.171  0.00  0.00    -0.266 NA
BRANCH  25  26
ATOM     26  C   UNL     1      -4.228   2.815  24.716  0.00  0.00    +0.073 C 
BRANCH  26  27
ATOM     27  C   UNL     1      -3.785   3.473  24.943  0.00  0.00    +0.022 C 
BRANCH  27  28
ATOM     28  C   UNL     1      -3.229   3.793  24.425  0.00  0.00    +0.028 C 
BRANCH  28  29
ATOM     29  C   UNL     1      -2.522   4.100  24.718  0.00  0.00    -0.022 A 
ATOM     30  C   UNL     1      -2.497   4.869  25.015  0.00  0.00    -0.004 A 
ATOM     31  C   UNL     1      -1.789   5.176  25.308  0.00  0.00    -0.000 A 
ATOM     32  C   UNL     1      -1.106   4.713  25.305  0.00  0.00    -0.000 A 
ATOM     33  C   UNL     1      -1.131   3.944  25.008  0.00  0.00    -0.000 A 
ATOM     34  C   UNL     1      -1.838   3.637  24.715  0.00  0.00    -0.004 A 
ENDBRANCH  28  29
ENDBRANCH  27  28
ENDBRANCH  26  27
ENDBRANCH  25  26
ENDBRANCH  19  21
TORSDOF 7
ENDMDL
