REMARK  Name = 
REMARK  3 active torsions:
REMARK  status: ('A' for Active; 'I' for Inactive)
REMARK    1  A    between atoms: C_7  and  C_9
REMARK    2  A    between atoms: N_12  and  C_13
REMARK    3  A    between atoms: C_13  and  C_14
REMARK                            x       y       z     vdW  Elec       q    Type
REMARK                         _______ _______ _______ _____ _____    ______ ____
ROOT
ATOM      9  C   UNL     1      -1.453   1.523   0.000  0.00  0.00    +0.094 C 
ATOM     10  C   UNL     1      -1.938   0.856   0.000  0.00  0.00    +0.028 C 
ATOM     11  C   UNL     1      -2.723   1.110   0.000  0.00  0.00    +0.073 C 
ATOM     12  N   UNL     1      -2.723   1.935   0.000  0.00  0.00    -0.268 NA
ATOM     21  C   UNL     1      -1.938   2.190   0.000  0.00  0.00    +0.082 C 
ENDROOT
BRANCH   9   7
ATOM      1  C   UNL     1       2.784   0.698   0.000  0.00  0.00    +0.031 C 
ATOM      2  C   UNL     1       2.070   1.110   0.000  0.00  0.00    -0.020 A 
ATOM      3  C   UNL     1       1.356   0.698   0.000  0.00  0.00    +0.018 A 
ATOM      4  C   UNL     1       0.641   1.110   0.000  0.00  0.00    +0.118 A 
ATOM      5  C   UNL     1       0.641   1.935   0.000  0.00  0.00    +0.164 A 
ATOM      6  O   UNL     1      -0.143   2.190   0.000  0.00  0.00    -0.438 OA
ATOM      7  C   UNL     1      -0.628   1.523   0.000  0.00  0.00    +0.207 A 
ATOM      8  N   UNL     1      -0.143   0.856   0.000  0.00  0.00    -0.212 NA
ATOM     22  C   UNL     1       1.356   2.348   0.000  0.00  0.00    +0.039 A 
ATOM     23  C   UNL     1       2.070   1.935   0.000  0.00  0.00    -0.001 A 
ENDBRANCH   9   7
BRANCH  12  13
ATOM     13  C   UNL     1      -3.390   2.420   0.000  0.00  0.00    +0.101 C 
BRANCH  13  14
ATOM     14  C   UNL     1      -3.304   3.241   0.000  0.00  0.00    +0.021 A 
ATOM     15  C   UNL     1      -3.972   3.726   0.000  0.00  0.00    -0.001 A 
ATOM     16  C   UNL     1      -3.885   4.546   0.000  0.00  0.00    -0.000 A 
ATOM     17  C   UNL     1      -3.132   4.882   0.000  0.00  0.00    +0.002 A 
ATOM     18  C   UNL     1      -2.464   4.397   0.000  0.00  0.00    +0.029 A 
ATOM     19  C   UNL     1      -2.550   3.576   0.000  0.00  0.00    +0.137 A 
ATOM     20  F   UNL     1      -1.883   3.091   0.000  0.00  0.00    -0.204 F 
ENDBRANCH  13  14
ENDBRANCH  12  13
TORSDOF 3
