REMARK  Name = 
REMARK  4 active torsions:
REMARK  status: ('A' for Active; 'I' for Inactive)
REMARK    1  A    between atoms: C_2  and  C_4
REMARK    2  A    between atoms: C_7  and  N_10
REMARK    3  A    between atoms: C_15  and  N_21
REMARK    4  A    between atoms: C_22  and  C_24
REMARK                            x       y       z     vdW  Elec       q    Type
REMARK                         _______ _______ _______ _____ _____    ______ ____
ROOT
ATOM     10  N   UNL     1       0.654  -0.698   0.000  0.00  0.00    -0.191 N 
ATOM     11  C   UNL     1       1.139  -0.030   0.000  0.00  0.00    +0.254 C 
ATOM     12  O   UNL     1       0.884   0.754   0.000  0.00  0.00    -0.272 OA
ATOM     13  C   UNL     1       1.923  -0.285   0.000  0.00  0.00    +0.156 C 
ATOM     14  C   UNL     1       2.638   0.127   0.000  0.00  0.00    +0.051 C 
ATOM     15  C   UNL     1       3.352  -0.285   0.000  0.00  0.00    +0.100 C 
ATOM     16  C   UNL     1       3.352  -1.110   0.000  0.00  0.00    +0.043 C 
ATOM     17  C   UNL     1       2.638  -1.523   0.000  0.00  0.00    +0.097 C 
ATOM     18  N   UNL     1       1.923  -1.110   0.000  0.00  0.00    -0.257 N 
ATOM     19  C   UNL     1       1.139  -1.365   0.000  0.00  0.00    +0.317 C 
ATOM     20  O   UNL     1       0.884  -2.150   0.000  0.00  0.00    -0.252 OA
ENDROOT
BRANCH  10   7
ATOM      4  C   UNL     1      -1.821  -0.698   0.000  0.00  0.00    -0.022 A 
ATOM      5  C   UNL     1      -1.409   0.017   0.000  0.00  0.00    -0.003 A 
ATOM      6  C   UNL     1      -0.584   0.017   0.000  0.00  0.00    +0.015 A 
ATOM      7  C   UNL     1      -0.171  -0.698   0.000  0.00  0.00    +0.062 A 
ATOM      8  C   UNL     1      -0.584  -1.412   0.000  0.00  0.00    +0.015 A 
ATOM      9  C   UNL     1      -1.409  -1.412   0.000  0.00  0.00    -0.003 A 
BRANCH   4   2
ATOM      1  C   UNL     1      -3.059  -1.412   0.000  0.00  0.00    +0.005 C 
ATOM      2  C   UNL     1      -2.646  -0.698   0.000  0.00  0.00    +0.022 C 
ATOM      3  C   UNL     1      -3.059   0.017   0.000  0.00  0.00    +0.005 C 
ENDBRANCH   4   2
ENDBRANCH  10   7
BRANCH  15  21
ATOM     21  N   UNL     1       4.067   0.127   0.000  0.00  0.00    -0.203 NA
ATOM     22  C   UNL     1       4.067   0.952   0.000  0.00  0.00    +0.273 C 
ATOM     23  O   UNL     1       3.352   1.365   0.000  0.00  0.00    -0.268 OA
BRANCH  22  24
ATOM     24  C   UNL     1       4.781   1.365   0.000  0.00  0.00    +0.119 A 
ATOM     25  C   UNL     1       4.867   2.185   0.000  0.00  0.00    +0.093 A 
ATOM     26  C   UNL     1       4.254   2.737   0.000  0.00  0.00    +0.055 C 
ATOM     27  N   UNL     1       5.674   2.357   0.000  0.00  0.00    -0.145 NA
ATOM     28  N   UNL     1       6.087   1.642   0.000  0.00  0.00    -0.110 NA
ATOM     29  S   UNL     1       5.535   1.029   0.000  0.00  0.00    +0.042 S 
ENDBRANCH  22  24
ENDBRANCH  15  21
TORSDOF 4
