REMARK  Name = 
REMARK  6 active torsions:
REMARK  status: ('A' for Active; 'I' for Inactive)
REMARK    1  A    between atoms: C_2  and  C_3
REMARK    2  A    between atoms: C_6  and  C_7
REMARK    3  A    between atoms: C_7  and  N_8
REMARK    4  A    between atoms: C_12  and  C_13
REMARK    5  A    between atoms: C_15  and  C_18
REMARK    6  A    between atoms: C_21  and  N_24
REMARK                            x       y       z     vdW  Elec       q    Type
REMARK                         _______ _______ _______ _____ _____    ______ ____
ROOT
ATOM     13  C   UNL     1      -0.621 -10.972   0.000  0.00  0.00    +0.251 A 
ATOM     14  N   UNL     1      -1.033 -11.687   0.000  0.00  0.00    -0.190 NA
ATOM     15  C   UNL     1      -1.840 -11.515   0.000  0.00  0.00    +0.205 A 
ATOM     16  N   UNL     1      -1.927 -10.694   0.000  0.00  0.00    -0.056 NA
ATOM     17  O   UNL     1      -1.173 -10.359   0.000  0.00  0.00    -0.336 OA
ENDROOT
BRANCH  15  18
ATOM     18  C   UNL     1      -2.453 -12.067   0.000  0.00  0.00    +0.058 A 
ATOM     19  C   UNL     1      -2.282 -12.874   0.000  0.00  0.00    +0.008 A 
ATOM     20  C   UNL     1      -2.895 -13.426   0.000  0.00  0.00    +0.034 A 
ATOM     21  C   UNL     1      -3.680 -13.171   0.000  0.00  0.00    +0.132 A 
ATOM     22  N   UNL     1      -3.851 -12.364   0.000  0.00  0.00    -0.229 NA
ATOM     23  C   UNL     1      -3.238 -11.812   0.000  0.00  0.00    +0.103 A 
BRANCH  21  24
ATOM     24  N   UNL     1      -4.293 -13.723   0.000  0.00  0.00    -0.288 N 
ATOM     25  C   UNL     1      -4.121 -14.530   0.000  0.00  0.00    +0.124 C 
ATOM     26  C   UNL     1      -4.734 -15.082   0.000  0.00  0.00    +0.164 C 
ATOM     27  O   UNL     1      -5.519 -14.827   0.000  0.00  0.00    -0.350 OA
ATOM     28  C   UNL     1      -5.690 -14.020   0.000  0.00  0.00    +0.164 C 
ATOM     29  C   UNL     1      -5.077 -13.468   0.000  0.00  0.00    +0.124 C 
ENDBRANCH  21  24
ENDBRANCH  15  18
BRANCH  13  12
ATOM      8  N   UNL     1       0.612 -10.171   0.000  0.00  0.00    -0.260 NA
ATOM      9  C   UNL     1       1.419 -10.343   0.000  0.00  0.00    +0.073 C 
ATOM     10  C   UNL     1       1.505 -11.163   0.000  0.00  0.00    +0.019 C 
ATOM     11  C   UNL     1       0.752 -11.499   0.000  0.00  0.00    +0.027 C 
ATOM     12  C   UNL     1       0.200 -10.886   0.000  0.00  0.00    +0.138 C 
BRANCH   8   7
ATOM      7  C   UNL     1       0.277  -9.418   0.000  0.00  0.00    +0.138 C 
BRANCH   7   6
ATOM      3  C   UNL     1       1.174  -7.481   0.000  0.00  0.00    +0.156 A 
ATOM      4  C   UNL     1       1.841  -7.966   0.000  0.00  0.00    +0.038 A 
ATOM      5  C   UNL     1       1.587  -8.750   0.000  0.00  0.00    +0.037 A 
ATOM      6  C   UNL     1       0.761  -8.750   0.000  0.00  0.00    +0.139 A 
ATOM     30  O   UNL     1       0.507  -7.966   0.000  0.00  0.00    -0.458 OA
BRANCH   3   2
ATOM      1  O   UNL     1       1.889  -6.243   0.000  0.00  0.00    -0.212 OA
ATOM      2  C   UNL     1       1.174  -6.656   0.000  0.00  0.00    +0.246 C 
ENDBRANCH   3   2
ENDBRANCH   7   6
ENDBRANCH   8   7
ENDBRANCH  13  12
TORSDOF 6
