MODEL 1
REMARK VINA RESULT:     -12.9      0.000      0.000
REMARK  Name = 
REMARK  3 active torsions:
REMARK  status: ('A' for Active; 'I' for Inactive)
REMARK    1  A    between atoms: C_7  and  C_9
REMARK    2  A    between atoms: N_12  and  C_13
REMARK    3  A    between atoms: C_13  and  C_14
REMARK                            x       y       z     vdW  Elec       q    Type
REMARK                         _______ _______ _______ _____ _____    ______ ____
ROOT
ATOM      9  C   UNL     1      -4.462   1.103  24.850  0.00  0.00    +0.094 C 
ATOM     10  C   UNL     1      -5.113   1.417  25.248  0.00  0.00    +0.028 C 
ATOM     11  C   UNL     1      -5.071   2.240  25.198  0.00  0.00    +0.073 C 
ATOM     12  N   UNL     1      -4.393   2.434  24.770  0.00  0.00    -0.268 NA
ATOM     20  C   UNL     1      -4.017   1.732  24.555  0.00  0.00    +0.082 C 
ENDROOT
BRANCH   9   7
ATOM      1  C   UNL     1      -3.170  -3.006  25.133  0.00  0.00    +0.031 C 
ATOM      2  C   UNL     1      -3.517  -2.316  24.845  0.00  0.00    -0.020 A 
ATOM      3  C   UNL     1      -3.474  -1.619  25.283  0.00  0.00    +0.018 A 
ATOM      4  C   UNL     1      -3.821  -0.928  24.995  0.00  0.00    +0.118 A 
ATOM      5  C   UNL     1      -4.211  -0.935  24.268  0.00  0.00    +0.164 A 
ATOM      6  O   UNL     1      -4.499  -0.175  24.125  0.00  0.00    -0.438 OA
ATOM      7  C   UNL     1      -4.286   0.302  24.764  0.00  0.00    +0.207 A 
ATOM      8  N   UNL     1      -3.868  -0.164  25.301  0.00  0.00    -0.212 NA
ATOM     21  C   UNL     1      -4.255  -1.633  23.829  0.00  0.00    +0.039 A 
ATOM     22  C   UNL     1      -3.907  -2.323  24.118  0.00  0.00    -0.001 A 
ENDBRANCH   9   7
BRANCH  12  13
ATOM     13  C   UNL     1      -4.137   3.197  24.588  0.00  0.00    +0.099 C 
BRANCH  13  14
ATOM     14  C   UNL     1      -3.504   3.529  25.001  0.00  0.00    -0.006 A 
ATOM     15  C   UNL     1      -3.627   3.858  25.748  0.00  0.00    -0.003 A 
ATOM     16  C   UNL     1      -2.994   4.191  26.160  0.00  0.00    -0.000 A 
ATOM     17  C   UNL     1      -2.240   4.194  25.826  0.00  0.00    -0.000 A 
ATOM     18  C   UNL     1      -2.118   3.865  25.079  0.00  0.00    -0.000 A 
ATOM     19  C   UNL     1      -2.750   3.533  24.666  0.00  0.00    -0.003 A 
ENDBRANCH  13  14
ENDBRANCH  12  13
TORSDOF 3
ENDMDL
MODEL 2
REMARK VINA RESULT:     -12.5      1.194      5.018
REMARK  Name = 
REMARK  3 active torsions:
REMARK  status: ('A' for Active; 'I' for Inactive)
REMARK    1  A    between atoms: C_7  and  C_9
REMARK    2  A    between atoms: N_12  and  C_13
REMARK    3  A    between atoms: C_13  and  C_14
REMARK                            x       y       z     vdW  Elec       q    Type
REMARK                         _______ _______ _______ _____ _____    ______ ____
ROOT
ATOM      9  C   UNL     1      -3.244   1.480  24.365  0.00  0.00    +0.094 C 
ATOM     10  C   UNL     1      -3.210   1.147  23.611  0.00  0.00    +0.028 C 
ATOM     11  C   UNL     1      -3.630   0.437  23.625  0.00  0.00    +0.073 C 
ATOM     12  N   UNL     1      -3.925   0.332  24.389  0.00  0.00    -0.268 NA
ATOM     20  C   UNL     1      -3.686   0.976  24.846  0.00  0.00    +0.082 C 
ENDROOT
BRANCH   9   7
ATOM      1  C   UNL     1      -0.814   4.977  25.074  0.00  0.00    +0.031 C 
ATOM      2  C   UNL     1      -1.438   4.440  25.115  0.00  0.00    -0.020 A 
ATOM      3  C   UNL     1      -1.415   3.745  24.672  0.00  0.00    +0.018 A 
ATOM      4  C   UNL     1      -2.039   3.207  24.712  0.00  0.00    +0.118 A 
ATOM      5  C   UNL     1      -2.688   3.365  25.197  0.00  0.00    +0.164 A 
ATOM      6  O   UNL     1      -3.218   2.737  25.126  0.00  0.00    -0.438 OA
ATOM      7  C   UNL     1      -2.897   2.192  24.598  0.00  0.00    +0.207 A 
ATOM      8  N   UNL     1      -2.169   2.482  24.342  0.00  0.00    -0.212 NA
ATOM     21  C   UNL     1      -2.712   4.061  25.641  0.00  0.00    +0.039 A 
ATOM     22  C   UNL     1      -2.087   4.597  25.600  0.00  0.00    -0.001 A 
ENDBRANCH   9   7
BRANCH  12  13
ATOM     13  C   UNL     1      -4.379  -0.306  24.650  0.00  0.00    +0.099 C 
BRANCH  13  14
ATOM     14  C   UNL     1      -4.046  -1.060  24.692  0.00  0.00    -0.006 A 
ATOM     15  C   UNL     1      -3.615  -1.283  25.360  0.00  0.00    -0.003 A 
ATOM     16  C   UNL     1      -3.282  -2.037  25.402  0.00  0.00    -0.000 A 
ATOM     17  C   UNL     1      -3.380  -2.567  24.778  0.00  0.00    -0.000 A 
ATOM     18  C   UNL     1      -3.811  -2.344  24.111  0.00  0.00    -0.000 A 
ATOM     19  C   UNL     1      -4.144  -1.589  24.068  0.00  0.00    -0.003 A 
ENDBRANCH  13  14
ENDBRANCH  12  13
TORSDOF 3
ENDMDL
MODEL 3
REMARK VINA RESULT:     -12.2      1.757      2.355
REMARK  Name = 
REMARK  3 active torsions:
REMARK  status: ('A' for Active; 'I' for Inactive)
REMARK    1  A    between atoms: C_7  and  C_9
REMARK    2  A    between atoms: N_12  and  C_13
REMARK    3  A    between atoms: C_13  and  C_14
REMARK                            x       y       z     vdW  Elec       q    Type
REMARK                         _______ _______ _______ _____ _____    ______ ____
ROOT
ATOM      9  C   UNL     1      -1.593   0.907  24.762  0.00  0.00    +0.094 C 
ATOM     10  C   UNL     1      -0.921   1.065  24.310  0.00  0.00    +0.028 C 
ATOM     11  C   UNL     1      -0.550   1.730  24.628  0.00  0.00    +0.073 C 
ATOM     12  N   UNL     1      -0.993   1.983  25.276  0.00  0.00    -0.268 NA
ATOM     20  C   UNL     1      -1.638   1.474  25.359  0.00  0.00    +0.082 C 
ENDROOT
BRANCH   9   7
ATOM      1  C   UNL     1      -3.778  -2.800  24.413  0.00  0.00    +0.031 C 
ATOM      2  C   UNL     1      -3.594  -1.997  24.377  0.00  0.00    -0.020 A 
ATOM      3  C   UNL     1      -2.855  -1.732  24.628  0.00  0.00    +0.018 A 
ATOM      4  C   UNL     1      -2.670  -0.928  24.591  0.00  0.00    +0.118 A 
ATOM      5  C   UNL     1      -3.225  -0.390  24.303  0.00  0.00    +0.164 A 
ATOM      6  O   UNL     1      -2.889   0.362  24.332  0.00  0.00    -0.438 OA
ATOM      7  C   UNL     1      -2.127   0.290  24.638  0.00  0.00    +0.207 A 
ATOM      8  N   UNL     1      -1.992  -0.508  24.798  0.00  0.00    -0.212 NA
ATOM     21  C   UNL     1      -3.965  -0.656  24.051  0.00  0.00    +0.039 A 
ATOM     22  C   UNL     1      -4.149  -1.459  24.088  0.00  0.00    -0.001 A 
ENDBRANCH   9   7
BRANCH  12  13
ATOM     13  C   UNL     1      -0.823   2.630  25.757  0.00  0.00    +0.099 C 
BRANCH  13  14
ATOM     14  C   UNL     1      -1.120   3.377  25.567  0.00  0.00    -0.006 A 
ATOM     15  C   UNL     1      -0.666   3.899  25.117  0.00  0.00    -0.003 A 
ATOM     16  C   UNL     1      -0.964   4.644  24.927  0.00  0.00    -0.000 A 
ATOM     17  C   UNL     1      -1.714   4.868  25.186  0.00  0.00    -0.000 A 
ATOM     18  C   UNL     1      -2.168   4.346  25.636  0.00  0.00    -0.000 A 
ATOM     19  C   UNL     1      -1.871   3.599  25.827  0.00  0.00    -0.003 A 
ENDBRANCH  13  14
ENDBRANCH  12  13
TORSDOF 3
ENDMDL
