REMARK  Name = 
REMARK  6 active torsions:
REMARK  status: ('A' for Active; 'I' for Inactive)
REMARK    1  A    between atoms: C_1  and  O_2
REMARK    2  A    between atoms: C_1  and  C_28
REMARK    3  A    between atoms: O_2  and  C_3
REMARK    4  A    between atoms: C_7  and  N_11
REMARK    5  A    between atoms: C_15  and  C_16
REMARK    6  A    between atoms: C_19  and  C_22
REMARK                            x       y       z     vdW  Elec       q    Type
REMARK                         _______ _______ _______ _____ _____    ______ ____
ROOT
ATOM     11  N   UNL     1       3.094   1.197   0.000  0.00  0.00    -0.210 N 
ATOM     12  N   UNL     1       2.609   1.865   0.000  0.00  0.00    -0.043 NA
ATOM     13  N   UNL     1       3.094   2.532   0.000  0.00  0.00    -0.023 NA
ATOM     14  N   UNL     1       3.878   2.277   0.000  0.00  0.00    -0.108 NA
ATOM     15  C   UNL     1       3.878   1.452   0.000  0.00  0.00    +0.184 A 
ENDROOT
BRANCH  11   7
ATOM      3  C   UNL     1       1.270  -0.922   0.000  0.00  0.00    +0.175 C 
ATOM      4  C   UNL     1       0.785  -0.255   0.000  0.00  0.00    +0.174 C 
ATOM      5  O   UNL     1       1.270   0.412   0.000  0.00  0.00    -0.349 OA
ATOM      6  C   UNL     1       2.054   0.158   0.000  0.00  0.00    +0.170 C 
ATOM      7  C   UNL     1       2.839   0.412   0.000  0.00  0.00    +0.167 C 
ATOM      8  C   UNL     1       3.324  -0.255   0.000  0.00  0.00    +0.169 C 
ATOM      9  O   UNL     1       2.839  -0.922   0.000  0.00  0.00    -0.349 OA
ATOM     10  C   UNL     1       2.054  -0.667   0.000  0.00  0.00    +0.174 C 
BRANCH   3   2
ATOM      2  O   UNL     1       1.015  -1.707   0.000  0.00  0.00    -0.346 OA
BRANCH   2   1
ATOM      1  C   UNL     1       1.567  -2.320   0.000  0.00  0.00    +0.169 C 
BRANCH   1  28
ATOM     28  C   UNL     1       1.312  -3.105   0.000  0.00  0.00    +0.007 A 
ATOM     29  C   UNL     1       1.864  -3.718   0.000  0.00  0.00    -0.002 A 
ATOM     30  C   UNL     1       1.609  -4.502   0.000  0.00  0.00    -0.000 A 
ATOM     31  C   UNL     1       0.802  -4.674   0.000  0.00  0.00    -0.000 A 
ATOM     32  C   UNL     1       0.250  -4.061   0.000  0.00  0.00    -0.000 A 
ATOM     33  C   UNL     1       0.505  -3.276   0.000  0.00  0.00    -0.002 A 
ENDBRANCH   1  28
ENDBRANCH   2   1
ENDBRANCH   3   2
ENDBRANCH  11   7
BRANCH  15  16
ATOM     16  C   UNL     1       4.546   0.967   0.000  0.00  0.00    +0.037 A 
ATOM     17  C   UNL     1       5.300   1.303   0.000  0.00  0.00    +0.003 A 
ATOM     18  C   UNL     1       5.967   0.818   0.000  0.00  0.00    +0.000 A 
ATOM     19  C   UNL     1       5.881  -0.003   0.000  0.00  0.00    +0.000 A 
ATOM     20  C   UNL     1       5.127  -0.338   0.000  0.00  0.00    +0.000 A 
ATOM     21  C   UNL     1       4.460   0.147   0.000  0.00  0.00    +0.003 A 
BRANCH  19  22
ATOM     22  C   UNL     1       6.548  -0.488   0.000  0.00  0.00    +0.000 A 
ATOM     23  C   UNL     1       7.302  -0.152   0.000  0.00  0.00    +0.000 A 
ATOM     24  C   UNL     1       7.969  -0.637   0.000  0.00  0.00    +0.000 A 
ATOM     25  C   UNL     1       7.883  -1.458   0.000  0.00  0.00    +0.000 A 
ATOM     26  C   UNL     1       7.129  -1.793   0.000  0.00  0.00    +0.000 A 
ATOM     27  C   UNL     1       6.462  -1.308   0.000  0.00  0.00    +0.000 A 
ENDBRANCH  19  22
ENDBRANCH  15  16
TORSDOF 6
