MODEL 1
REMARK VINA RESULT:     -10.5      0.000      0.000
REMARK  Name = 
REMARK  8 active torsions:
REMARK  status: ('A' for Active; 'I' for Inactive)
REMARK    1  A    between atoms: C_3  and  N_18
REMARK    2  A    between atoms: C_6  and  C_7
REMARK    3  A    between atoms: C_7  and  N_8
REMARK    4  A    between atoms: N_8  and  S_9
REMARK    5  A    between atoms: S_9  and  C_12
REMARK    6  A    between atoms: N_18  and  C_19
REMARK    7  A    between atoms: C_19  and  C_20
REMARK    8  A    between atoms: C_24  and  C_26
REMARK                            x       y       z     vdW  Elec       q    Type
REMARK                         _______ _______ _______ _____ _____    ______ ____
ROOT
ATOM      1  O   UNL     1      -3.160   1.305  23.607  0.00  0.00    -0.219 OA
ATOM      2  C   UNL     1      -3.689   1.370  24.237  0.00  0.00    +0.199 C 
ATOM      3  C   UNL     1      -4.183   0.773  24.519  0.00  0.00    +0.135 C 
ATOM      4  C   UNL     1      -4.615   1.078  25.152  0.00  0.00    +0.162 C 
ATOM      5  O   UNL     1      -4.389   1.862  25.261  0.00  0.00    -0.350 OA
ATOM      6  C   UNL     1      -3.816   2.044  24.696  0.00  0.00    +0.166 C 
ENDROOT
BRANCH   6   7
ATOM      7  C   UNL     1      -3.437   2.771  24.605  0.00  0.00    +0.148 C 
BRANCH   7   8
ATOM      8  N   UNL     1      -3.151   3.172  25.267  0.00  0.00    -0.075 NA
BRANCH   8   9
ATOM      9  S   UNL     1      -2.544   3.726  25.183  0.00  0.00    +0.077 S 
ATOM     10  O   UNL     1      -2.078   3.294  25.710  0.00  0.00    -0.152 OA
ATOM     11  O   UNL     1      -3.010   4.157  24.656  0.00  0.00    -0.152 OA
BRANCH   9  12
ATOM     12  C   UNL     1      -1.938   4.278  25.099  0.00  0.00    +0.124 A 
ATOM     13  C   UNL     1      -1.170   4.026  24.934  0.00  0.00    +0.020 A 
ATOM     14  C   UNL     1      -0.563   4.580  24.850  0.00  0.00    +0.001 A 
ATOM     15  C   UNL     1      -0.724   5.385  24.932  0.00  0.00    +0.000 A 
ATOM     16  C   UNL     1      -1.493   5.636  25.097  0.00  0.00    +0.001 A 
ATOM     17  C   UNL     1      -2.099   5.083  25.181  0.00  0.00    +0.020 A 
ENDBRANCH   9  12
ENDBRANCH   8   9
ENDBRANCH   7   8
ENDBRANCH   6   7
BRANCH   3  18
ATOM     18  N   UNL     1      -4.235   0.005  24.220  0.00  0.00    -0.209 NA
BRANCH  18  19
ATOM     19  C   UNL     1      -4.253  -0.638  24.737  0.00  0.00    +0.115 C 
BRANCH  19  20
ATOM     20  C   UNL     1      -3.966  -1.372  24.492  0.00  0.00    -0.004 A 
ATOM     21  C   UNL     1      -4.454  -1.883  24.066  0.00  0.00    -0.003 A 
ATOM     22  C   UNL     1      -4.167  -2.617  23.821  0.00  0.00    +0.000 A 
ATOM     23  C   UNL     1      -3.393  -2.839  24.002  0.00  0.00    +0.010 A 
ATOM     24  C   UNL     1      -2.906  -2.327  24.428  0.00  0.00    +0.068 A 
ATOM     25  C   UNL     1      -3.193  -1.593  24.673  0.00  0.00    +0.007 A 
BRANCH  24  26
ATOM     26  C   UNL     1      -2.132  -2.549  24.609  0.00  0.00    +0.100 C 
ATOM     27  N   UNL     1      -1.358  -2.772  24.789  0.00  0.00    -0.191 NA
ENDBRANCH  24  26
ENDBRANCH  19  20
ENDBRANCH  18  19
ENDBRANCH   3  18
TORSDOF 8
ENDMDL
MODEL 2
REMARK VINA RESULT:      -9.8      1.499      5.621
REMARK  Name = 
REMARK  8 active torsions:
REMARK  status: ('A' for Active; 'I' for Inactive)
REMARK    1  A    between atoms: C_3  and  N_18
REMARK    2  A    between atoms: C_6  and  C_7
REMARK    3  A    between atoms: C_7  and  N_8
REMARK    4  A    between atoms: N_8  and  S_9
REMARK    5  A    between atoms: S_9  and  C_12
REMARK    6  A    between atoms: N_18  and  C_19
REMARK    7  A    between atoms: C_19  and  C_20
REMARK    8  A    between atoms: C_24  and  C_26
REMARK                            x       y       z     vdW  Elec       q    Type
REMARK                         _______ _______ _______ _____ _____    ______ ____
ROOT
ATOM      1  O   UNL     1      -3.139   1.845  23.799  0.00  0.00    -0.219 OA
ATOM      2  C   UNL     1      -3.691   2.004  24.391  0.00  0.00    +0.199 C 
ATOM      3  C   UNL     1      -3.786   2.722  24.785  0.00  0.00    +0.135 C 
ATOM      4  C   UNL     1      -4.399   2.635  25.329  0.00  0.00    +0.162 C 
ATOM      5  O   UNL     1      -4.683   1.864  25.272  0.00  0.00    -0.350 OA
ATOM      6  C   UNL     1      -4.246   1.473  24.692  0.00  0.00    +0.166 C 
ENDROOT
BRANCH   6   7
ATOM      7  C   UNL     1      -4.346   0.689  24.454  0.00  0.00    +0.148 C 
BRANCH   7   8
ATOM      8  N   UNL     1      -4.426   0.094  25.019  0.00  0.00    -0.075 NA
BRANCH   8   9
ATOM      9  S   UNL     1      -4.216  -0.682  24.833  0.00  0.00    +0.077 S 
ATOM     10  O   UNL     1      -4.681  -0.645  24.153  0.00  0.00    -0.152 OA
ATOM     11  O   UNL     1      -3.751  -0.720  25.514  0.00  0.00    -0.152 OA
BRANCH   9  12
ATOM     12  C   UNL     1      -4.006  -1.458  24.648  0.00  0.00    +0.124 A 
ATOM     13  C   UNL     1      -4.275  -1.801  23.947  0.00  0.00    +0.020 A 
ATOM     14  C   UNL     1      -4.065  -2.577  23.761  0.00  0.00    +0.001 A 
ATOM     15  C   UNL     1      -3.587  -3.010  24.275  0.00  0.00    +0.000 A 
ATOM     16  C   UNL     1      -3.318  -2.666  24.976  0.00  0.00    +0.001 A 
ATOM     17  C   UNL     1      -3.528  -1.891  25.162  0.00  0.00    +0.020 A 
ENDBRANCH   9  12
ENDBRANCH   8   9
ENDBRANCH   7   8
ENDBRANCH   6   7
BRANCH   3  18
ATOM     18  N   UNL     1      -3.345   3.408  24.657  0.00  0.00    -0.209 NA
BRANCH  18  19
ATOM     19  C   UNL     1      -3.022   3.816  25.297  0.00  0.00    +0.115 C 
BRANCH  19  20
ATOM     20  C   UNL     1      -2.254   4.116  25.251  0.00  0.00    -0.004 A 
ATOM     21  C   UNL     1      -2.132   4.906  25.047  0.00  0.00    -0.003 A 
ATOM     22  C   UNL     1      -1.365   5.206  25.000  0.00  0.00    +0.000 A 
ATOM     23  C   UNL     1      -0.720   4.716  25.158  0.00  0.00    +0.010 A 
ATOM     24  C   UNL     1      -0.843   3.926  25.362  0.00  0.00    +0.068 A 
ATOM     25  C   UNL     1      -1.610   3.626  25.409  0.00  0.00    +0.007 A 
BRANCH  24  26
ATOM     26  C   UNL     1      -0.198   3.436  25.520  0.00  0.00    +0.100 C 
ATOM     27  N   UNL     1       0.447   2.947  25.678  0.00  0.00    -0.191 NA
ENDBRANCH  24  26
ENDBRANCH  19  20
ENDBRANCH  18  19
ENDBRANCH   3  18
TORSDOF 8
ENDMDL
MODEL 3
REMARK VINA RESULT:      -9.6      2.047      6.143
REMARK  Name = 
REMARK  8 active torsions:
REMARK  status: ('A' for Active; 'I' for Inactive)
REMARK    1  A    between atoms: C_3  and  N_18
REMARK    2  A    between atoms: C_6  and  C_7
REMARK    3  A    between atoms: C_7  and  N_8
REMARK    4  A    between atoms: N_8  and  S_9
REMARK    5  A    between atoms: S_9  and  C_12
REMARK    6  A    between atoms: N_18  and  C_19
REMARK    7  A    between atoms: C_19  and  C_20
REMARK    8  A    between atoms: C_24  and  C_26
REMARK                            x       y       z     vdW  Elec       q    Type
REMARK                         _______ _______ _______ _____ _____    ______ ____
ROOT
ATOM      1  O   UNL     1      -1.594   1.272  23.729  0.00  0.00    -0.219 OA
ATOM      2  C   UNL     1      -1.164   1.091  24.409  0.00  0.00    +0.199 C 
ATOM      3  C   UNL     1      -0.711   1.620  24.851  0.00  0.00    +0.135 C 
ATOM      4  C   UNL     1      -0.378   1.206  25.481  0.00  0.00    +0.162 C 
ATOM      5  O   UNL     1      -0.625   0.422  25.429  0.00  0.00    -0.350 OA
ATOM      6  C   UNL     1      -1.110   0.350  24.767  0.00  0.00    +0.166 C 
ENDROOT
BRANCH   6   7
ATOM      7  C   UNL     1      -1.479  -0.341  24.507  0.00  0.00    +0.148 C 
BRANCH   7   8
ATOM      8  N   UNL     1      -1.846  -0.842  25.050  0.00  0.00    -0.075 NA
BRANCH   8   9
ATOM      9  S   UNL     1      -2.428  -1.369  24.797  0.00  0.00    +0.077 S 
ATOM     10  O   UNL     1      -2.978  -0.997  25.288  0.00  0.00    -0.152 OA
ATOM     11  O   UNL     1      -1.879  -1.740  24.306  0.00  0.00    -0.152 OA
BRANCH   9  12
ATOM     12  C   UNL     1      -3.010  -1.896  24.544  0.00  0.00    +0.124 A 
ATOM     13  C   UNL     1      -3.666  -1.617  24.129  0.00  0.00    +0.020 A 
ATOM     14  C   UNL     1      -4.249  -2.144  23.875  0.00  0.00    +0.001 A 
ATOM     15  C   UNL     1      -4.175  -2.950  24.037  0.00  0.00    +0.000 A 
ATOM     16  C   UNL     1      -3.518  -3.228  24.452  0.00  0.00    +0.001 A 
ATOM     17  C   UNL     1      -2.936  -2.701  24.705  0.00  0.00    +0.020 A 
ENDBRANCH   9  12
ENDBRANCH   8   9
ENDBRANCH   7   8
ENDBRANCH   6   7
BRANCH   3  18
ATOM     18  N   UNL     1      -0.608   2.423  24.690  0.00  0.00    -0.209 NA
BRANCH  18  19
ATOM     19  C   UNL     1      -0.528   2.961  25.310  0.00  0.00    +0.115 C 
BRANCH  19  20
ATOM     20  C   UNL     1      -0.900   3.697  25.269  0.00  0.00    -0.004 A 
ATOM     21  C   UNL     1      -0.523   4.329  24.895  0.00  0.00    -0.003 A 
ATOM     22  C   UNL     1      -0.895   5.064  24.855  0.00  0.00    +0.000 A 
ATOM     23  C   UNL     1      -1.643   5.168  25.188  0.00  0.00    +0.010 A 
ATOM     24  C   UNL     1      -2.018   4.535  25.562  0.00  0.00    +0.068 A 
ATOM     25  C   UNL     1      -1.647   3.800  25.603  0.00  0.00    +0.007 A 
BRANCH  24  26
ATOM     26  C   UNL     1      -2.766   4.639  25.895  0.00  0.00    +0.100 C 
ATOM     27  N   UNL     1      -3.514   4.742  26.229  0.00  0.00    -0.191 NA
ENDBRANCH  24  26
ENDBRANCH  19  20
ENDBRANCH  18  19
ENDBRANCH   3  18
TORSDOF 8
ENDMDL
MODEL 4
REMARK VINA RESULT:      -9.1      1.830      2.629
REMARK  Name = 
REMARK  8 active torsions:
REMARK  status: ('A' for Active; 'I' for Inactive)
REMARK    1  A    between atoms: C_3  and  N_18
REMARK    2  A    between atoms: C_6  and  C_7
REMARK    3  A    between atoms: C_7  and  N_8
REMARK    4  A    between atoms: N_8  and  S_9
REMARK    5  A    between atoms: S_9  and  C_12
REMARK    6  A    between atoms: N_18  and  C_19
REMARK    7  A    between atoms: C_19  and  C_20
REMARK    8  A    between atoms: C_24  and  C_26
REMARK                            x       y       z     vdW  Elec       q    Type
REMARK                         _______ _______ _______ _____ _____    ______ ____
ROOT
ATOM      1  O   UNL     1      -1.531   0.439  25.888  0.00  0.00    -0.219 OA
ATOM      2  C   UNL     1      -0.984   0.346  25.277  0.00  0.00    +0.199 C 
ATOM      3  C   UNL     1      -0.819  -0.356  24.877  0.00  0.00    +0.135 C 
ATOM      4  C   UNL     1      -0.240  -0.198  24.312  0.00  0.00    +0.162 C 
ATOM      5  O   UNL     1      -0.047   0.602  24.362  0.00  0.00    -0.350 OA
ATOM      6  C   UNL     1      -0.507   0.938  24.958  0.00  0.00    +0.166 C 
ENDROOT
BRANCH   6   7
ATOM      7  C   UNL     1      -0.493   1.729  25.195  0.00  0.00    +0.148 C 
BRANCH   7   8
ATOM      8  N   UNL     1      -0.383   2.325  24.635  0.00  0.00    -0.075 NA
BRANCH   8   9
ATOM      9  S   UNL     1      -0.677   3.083  24.776  0.00  0.00    +0.077 S 
ATOM     10  O   UNL     1      -1.146   3.026  24.099  0.00  0.00    -0.152 OA
ATOM     11  O   UNL     1      -0.208   3.139  25.453  0.00  0.00    -0.152 OA
BRANCH   9  12
ATOM     12  C   UNL     1      -0.971   3.840  24.917  0.00  0.00    +0.124 A 
ATOM     13  C   UNL     1      -1.714   3.936  25.262  0.00  0.00    +0.020 A 
ATOM     14  C   UNL     1      -2.009   4.694  25.403  0.00  0.00    +0.001 A 
ATOM     15  C   UNL     1      -1.561   5.356  25.199  0.00  0.00    +0.000 A 
ATOM     16  C   UNL     1      -0.817   5.259  24.854  0.00  0.00    +0.001 A 
ATOM     17  C   UNL     1      -0.523   4.502  24.713  0.00  0.00    +0.020 A 
ENDBRANCH   9  12
ENDBRANCH   8   9
ENDBRANCH   7   8
ENDBRANCH   6   7
BRANCH   3  18
ATOM     18  N   UNL     1      -1.171  -1.089  25.018  0.00  0.00    -0.209 NA
BRANCH  18  19
ATOM     19  C   UNL     1      -1.401  -1.565  24.385  0.00  0.00    +0.115 C 
BRANCH  19  20
ATOM     20  C   UNL     1      -2.085  -2.023  24.440  0.00  0.00    -0.004 A 
ATOM     21  C   UNL     1      -2.044  -2.793  24.732  0.00  0.00    -0.003 A 
ATOM     22  C   UNL     1      -2.728  -3.251  24.787  0.00  0.00    +0.000 A 
ATOM     23  C   UNL     1      -3.454  -2.938  24.550  0.00  0.00    +0.010 A 
ATOM     24  C   UNL     1      -3.495  -2.168  24.257  0.00  0.00    +0.068 A 
ATOM     25  C   UNL     1      -2.811  -1.710  24.202  0.00  0.00    +0.007 A 
BRANCH  24  26
ATOM     26  C   UNL     1      -4.221  -1.856  24.020  0.00  0.00    +0.100 C 
ATOM     27  N   UNL     1      -4.946  -1.543  23.782  0.00  0.00    -0.191 NA
ENDBRANCH  24  26
ENDBRANCH  19  20
ENDBRANCH  18  19
ENDBRANCH   3  18
TORSDOF 8
ENDMDL
MODEL 5
REMARK VINA RESULT:      -8.5      3.641      4.773
REMARK  Name = 
REMARK  8 active torsions:
REMARK  status: ('A' for Active; 'I' for Inactive)
REMARK    1  A    between atoms: C_3  and  N_18
REMARK    2  A    between atoms: C_6  and  C_7
REMARK    3  A    between atoms: C_7  and  N_8
REMARK    4  A    between atoms: N_8  and  S_9
REMARK    5  A    between atoms: S_9  and  C_12
REMARK    6  A    between atoms: N_18  and  C_19
REMARK    7  A    between atoms: C_19  and  C_20
REMARK    8  A    between atoms: C_24  and  C_26
REMARK                            x       y       z     vdW  Elec       q    Type
REMARK                         _______ _______ _______ _____ _____    ______ ____
ROOT
ATOM      1  O   UNL     1      -0.846   1.998  23.726  0.00  0.00    -0.219 OA
ATOM      2  C   UNL     1      -0.967   1.213  23.948  0.00  0.00    +0.199 C 
ATOM      3  C   UNL     1      -0.439   0.590  23.836  0.00  0.00    +0.135 C 
ATOM      4  C   UNL     1      -0.784  -0.095  24.139  0.00  0.00    +0.162 C 
ATOM      5  O   UNL     1      -1.525   0.105  24.439  0.00  0.00    -0.350 OA
ATOM      6  C   UNL     1      -1.639   0.913  24.321  0.00  0.00    +0.166 C 
ENDROOT
BRANCH   6   7
ATOM      7  C   UNL     1      -2.307   1.346  24.537  0.00  0.00    +0.148 C 
BRANCH   7   8
ATOM      8  N   UNL     1      -3.059   1.019  24.444  0.00  0.00    -0.075 NA
BRANCH   8   9
ATOM      9  S   UNL     1      -3.726   1.444  24.678  0.00  0.00    +0.077 S 
ATOM     10  O   UNL     1      -3.626   1.177  25.452  0.00  0.00    -0.152 OA
ATOM     11  O   UNL     1      -3.827   1.712  23.903  0.00  0.00    -0.152 OA
BRANCH   9  12
ATOM     12  C   UNL     1      -4.393   1.869  24.911  0.00  0.00    +0.124 A 
ATOM     13  C   UNL     1      -4.339   2.683  25.038  0.00  0.00    +0.020 A 
ATOM     14  C   UNL     1      -5.007   3.109  25.272  0.00  0.00    +0.001 A 
ATOM     15  C   UNL     1      -5.727   2.721  25.378  0.00  0.00    +0.000 A 
ATOM     16  C   UNL     1      -5.780   1.907  25.251  0.00  0.00    +0.001 A 
ATOM     17  C   UNL     1      -5.114   1.482  25.017  0.00  0.00    +0.020 A 
ENDBRANCH   9  12
ENDBRANCH   8   9
ENDBRANCH   7   8
ENDBRANCH   6   7
BRANCH   3  18
ATOM     18  N   UNL     1       0.305   0.642  23.482  0.00  0.00    -0.209 NA
BRANCH  18  19
ATOM     19  C   UNL     1       0.758  -0.038  23.370  0.00  0.00    +0.115 C 
BRANCH  19  20
ATOM     20  C   UNL     1       1.411  -0.021  22.867  0.00  0.00    -0.004 A 
ATOM     21  C   UNL     1       1.350  -0.326  22.102  0.00  0.00    -0.003 A 
ATOM     22  C   UNL     1       2.004  -0.309  21.599  0.00  0.00    +0.000 A 
ATOM     23  C   UNL     1       2.718   0.013  21.859  0.00  0.00    +0.010 A 
ATOM     24  C   UNL     1       2.777   0.317  22.624  0.00  0.00    +0.068 A 
ATOM     25  C   UNL     1       2.125   0.300  23.127  0.00  0.00    +0.007 A 
BRANCH  24  26
ATOM     26  C   UNL     1       3.492   0.639  22.884  0.00  0.00    +0.100 C 
ATOM     27  N   UNL     1       4.206   0.960  23.145  0.00  0.00    -0.191 NA
ENDBRANCH  24  26
ENDBRANCH  19  20
ENDBRANCH  18  19
ENDBRANCH   3  18
TORSDOF 8
ENDMDL
MODEL 6
REMARK VINA RESULT:      -8.4      3.426      4.887
REMARK  Name = 
REMARK  8 active torsions:
REMARK  status: ('A' for Active; 'I' for Inactive)
REMARK    1  A    between atoms: C_3  and  N_18
REMARK    2  A    between atoms: C_6  and  C_7
REMARK    3  A    between atoms: C_7  and  N_8
REMARK    4  A    between atoms: N_8  and  S_9
REMARK    5  A    between atoms: S_9  and  C_12
REMARK    6  A    between atoms: N_18  and  C_19
REMARK    7  A    between atoms: C_19  and  C_20
REMARK    8  A    between atoms: C_24  and  C_26
REMARK                            x       y       z     vdW  Elec       q    Type
REMARK                         _______ _______ _______ _____ _____    ______ ____
ROOT
ATOM      1  O   UNL     1      -1.922   1.694  23.135  0.00  0.00    -0.219 OA
ATOM      2  C   UNL     1      -1.820   1.229  23.809  0.00  0.00    +0.199 C 
ATOM      3  C   UNL     1      -2.385   1.093  24.394  0.00  0.00    +0.135 C 
ATOM      4  C   UNL     1      -2.049   0.599  24.962  0.00  0.00    +0.162 C 
ATOM      5  O   UNL     1      -1.278   0.429  24.729  0.00  0.00    -0.350 OA
ATOM      6  C   UNL     1      -1.135   0.819  24.016  0.00  0.00    +0.166 C 
ENDROOT
BRANCH   6   7
ATOM      7  C   UNL     1      -0.432   0.801  23.585  0.00  0.00    +0.148 C 
BRANCH   7   8
ATOM      8  N   UNL     1       0.193   0.324  23.836  0.00  0.00    -0.075 NA
BRANCH   8   9
ATOM      9  S   UNL     1       0.888   0.287  23.392  0.00  0.00    +0.077 S 
ATOM     10  O   UNL     1       0.696  -0.480  23.156  0.00  0.00    -0.152 OA
ATOM     11  O   UNL     1       1.080   1.055  23.628  0.00  0.00    -0.152 OA
BRANCH   9  12
ATOM     12  C   UNL     1       1.582   0.251  22.949  0.00  0.00    +0.124 A 
ATOM     13  C   UNL     1       2.260   0.640  23.211  0.00  0.00    +0.020 A 
ATOM     14  C   UNL     1       2.955   0.603  22.767  0.00  0.00    +0.001 A 
ATOM     15  C   UNL     1       2.972   0.178  22.061  0.00  0.00    +0.000 A 
ATOM     16  C   UNL     1       2.293  -0.212  21.799  0.00  0.00    +0.001 A 
ATOM     17  C   UNL     1       1.599  -0.175  22.242  0.00  0.00    +0.020 A 
ENDBRANCH   9  12
ENDBRANCH   8   9
ENDBRANCH   7   8
ENDBRANCH   6   7
BRANCH   3  18
ATOM     18  N   UNL     1      -3.152   1.398  24.408  0.00  0.00    -0.209 NA
BRANCH  18  19
ATOM     19  C   UNL     1      -3.656   1.219  25.036  0.00  0.00    +0.115 C 
BRANCH  19  20
ATOM     20  C   UNL     1      -4.425   1.519  25.047  0.00  0.00    -0.004 A 
ATOM     21  C   UNL     1      -5.057   1.039  24.825  0.00  0.00    -0.003 A 
ATOM     22  C   UNL     1      -5.826   1.339  24.836  0.00  0.00    +0.000 A 
ATOM     23  C   UNL     1      -5.961   2.119  25.069  0.00  0.00    +0.010 A 
ATOM     24  C   UNL     1      -5.327   2.598  25.291  0.00  0.00    +0.068 A 
ATOM     25  C   UNL     1      -4.560   2.299  25.280  0.00  0.00    +0.007 A 
BRANCH  24  26
ATOM     26  C   UNL     1      -5.463   3.379  25.524  0.00  0.00    +0.100 C 
ATOM     27  N   UNL     1      -5.599   4.158  25.757  0.00  0.00    -0.191 NA
ENDBRANCH  24  26
ENDBRANCH  19  20
ENDBRANCH  18  19
ENDBRANCH   3  18
TORSDOF 8
ENDMDL
MODEL 7
REMARK VINA RESULT:      -8.3      4.192      5.135
REMARK  Name = 
REMARK  8 active torsions:
REMARK  status: ('A' for Active; 'I' for Inactive)
REMARK    1  A    between atoms: C_3  and  N_18
REMARK    2  A    between atoms: C_6  and  C_7
REMARK    3  A    between atoms: C_7  and  N_8
REMARK    4  A    between atoms: N_8  and  S_9
REMARK    5  A    between atoms: S_9  and  C_12
REMARK    6  A    between atoms: N_18  and  C_19
REMARK    7  A    between atoms: C_19  and  C_20
REMARK    8  A    between atoms: C_24  and  C_26
REMARK                            x       y       z     vdW  Elec       q    Type
REMARK                         _______ _______ _______ _____ _____    ______ ____
ROOT
ATOM      1  O   UNL     1      -0.268  -0.687  24.373  0.00  0.00    -0.219 OA
ATOM      2  C   UNL     1      -0.358   0.046  24.005  0.00  0.00    +0.199 C 
ATOM      3  C   UNL     1      -1.057   0.480  23.956  0.00  0.00    +0.135 C 
ATOM      4  C   UNL     1      -0.896   1.176  23.543  0.00  0.00    +0.162 C 
ATOM      5  O   UNL     1      -0.098   1.171  23.337  0.00  0.00    -0.350 OA
ATOM      6  C   UNL     1       0.235   0.473  23.623  0.00  0.00    +0.166 C 
ENDROOT
BRANCH   6   7
ATOM      7  C   UNL     1       1.023   0.242  23.541  0.00  0.00    +0.148 C 
BRANCH   7   8
ATOM      8  N   UNL     1       1.485   0.560  22.936  0.00  0.00    -0.075 NA
BRANCH   8   9
ATOM      9  S   UNL     1       2.306   0.475  22.957  0.00  0.00    +0.077 S 
ATOM     10  O   UNL     1       2.252  -0.173  22.448  0.00  0.00    -0.152 OA
ATOM     11  O   UNL     1       2.360   1.123  23.465  0.00  0.00    -0.152 OA
BRANCH   9  12
ATOM     12  C   UNL     1       3.126   0.391  22.977  0.00  0.00    +0.124 A 
ATOM     13  C   UNL     1       3.462  -0.298  23.280  0.00  0.00    +0.020 A 
ATOM     14  C   UNL     1       4.283  -0.383  23.301  0.00  0.00    +0.001 A 
ATOM     15  C   UNL     1       4.768   0.222  23.018  0.00  0.00    +0.000 A 
ATOM     16  C   UNL     1       4.430   0.912  22.714  0.00  0.00    +0.001 A 
ATOM     17  C   UNL     1       3.611   0.996  22.694  0.00  0.00    +0.020 A 
ENDBRANCH   9  12
ENDBRANCH   8   9
ENDBRANCH   7   8
ENDBRANCH   6   7
BRANCH   3  18
ATOM     18  N   UNL     1      -1.789   0.258  24.265  0.00  0.00    -0.209 NA
BRANCH  18  19
ATOM     19  C   UNL     1      -2.479   0.618  23.990  0.00  0.00    +0.115 C 
BRANCH  19  20
ATOM     20  C   UNL     1      -3.208   0.419  24.322  0.00  0.00    -0.004 A 
ATOM     21  C   UNL     1      -3.423  -0.374  24.400  0.00  0.00    -0.003 A 
ATOM     22  C   UNL     1      -4.152  -0.573  24.731  0.00  0.00    +0.000 A 
ATOM     23  C   UNL     1      -4.666   0.021  24.985  0.00  0.00    +0.010 A 
ATOM     24  C   UNL     1      -4.450   0.813  24.907  0.00  0.00    +0.068 A 
ATOM     25  C   UNL     1      -3.722   1.012  24.575  0.00  0.00    +0.007 A 
BRANCH  24  26
ATOM     26  C   UNL     1      -4.965   1.407  25.161  0.00  0.00    +0.100 C 
ATOM     27  N   UNL     1      -5.478   2.001  25.415  0.00  0.00    -0.191 NA
ENDBRANCH  24  26
ENDBRANCH  19  20
ENDBRANCH  18  19
ENDBRANCH   3  18
TORSDOF 8
ENDMDL
