MODEL 1
REMARK VINA RESULT:     -11.3      0.000      0.000
REMARK  Name = 
REMARK  2 active torsions:
REMARK  status: ('A' for Active; 'I' for Inactive)
REMARK    1  A    between atoms: C_2  and  C_3
REMARK    2  A    between atoms: N_12  and  C_13
REMARK                            x       y       z     vdW  Elec       q    Type
REMARK                         _______ _______ _______ _____ _____    ______ ____
ROOT
ATOM      1  O   UNL     1      -4.038   3.475  25.327  0.00  0.00    -0.275 OA
ATOM      2  C   UNL     1      -3.243   3.279  25.228  0.00  0.00    +0.225 C 
ATOM      6  N   UNL     1      -3.025   2.496  25.083  0.00  0.00    -0.276 N 
ATOM      7  C   UNL     1      -2.230   2.300  24.984  0.00  0.00    +0.115 C 
ATOM      8  C   UNL     1      -2.013   1.518  24.839  0.00  0.00    +0.116 C 
ATOM      9  N   UNL     1      -2.591   0.931  24.792  0.00  0.00    -0.261 N 
ATOM     10  C   UNL     1      -3.386   1.127  24.891  0.00  0.00    +0.116 C 
ATOM     11  C   UNL     1      -3.830   0.436  24.817  0.00  0.00    +0.116 C 
ATOM     12  N   UNL     1      -3.310  -0.187  24.672  0.00  0.00    -0.264 N 
ATOM     19  C   UNL     1      -2.544   0.119  24.657  0.00  0.00    +0.307 C 
ATOM     20  O   UNL     1      -1.852  -0.311  24.529  0.00  0.00    -0.252 OA
ATOM     21  C   UNL     1      -3.604   1.910  25.037  0.00  0.00    +0.115 C 
ENDROOT
BRANCH  12  13
ATOM     13  C   UNL     1      -3.518  -0.978  24.561  0.00  0.00    +0.077 C 
ATOM     14  C   UNL     1      -3.304  -1.543  25.123  0.00  0.00    +0.020 C 
ATOM     15  C   UNL     1      -3.513  -2.334  25.013  0.00  0.00    +0.002 C 
ATOM     16  C   UNL     1      -3.935  -2.559  24.340  0.00  0.00    +0.000 C 
ATOM     17  C   UNL     1      -4.148  -1.994  23.779  0.00  0.00    +0.002 C 
ATOM     18  C   UNL     1      -3.940  -1.203  23.890  0.00  0.00    +0.020 C 
ENDBRANCH  12  13
BRANCH   2   3
ATOM      3  C   UNL     1      -2.664   3.865  25.274  0.00  0.00    +0.077 C 
ATOM      4  C   UNL     1      -2.116   4.295  25.717  0.00  0.00    +0.010 C 
ATOM      5  C   UNL     1      -2.210   4.451  24.913  0.00  0.00    +0.010 C 
ENDBRANCH   2   3
TORSDOF 2
ENDMDL
MODEL 2
REMARK VINA RESULT:     -10.8      1.168      4.527
REMARK  Name = 
REMARK  2 active torsions:
REMARK  status: ('A' for Active; 'I' for Inactive)
REMARK    1  A    between atoms: C_2  and  C_3
REMARK    2  A    between atoms: N_12  and  C_13
REMARK                            x       y       z     vdW  Elec       q    Type
REMARK                         _______ _______ _______ _____ _____    ______ ____
ROOT
ATOM      1  O   UNL     1      -4.344  -0.680  23.884  0.00  0.00    -0.275 OA
ATOM      2  C   UNL     1      -3.679  -0.908  24.318  0.00  0.00    +0.225 C 
ATOM      6  N   UNL     1      -3.147  -0.337  24.587  0.00  0.00    -0.276 N 
ATOM      7  C   UNL     1      -2.483  -0.564  25.021  0.00  0.00    +0.115 C 
ATOM      8  C   UNL     1      -1.951   0.006  25.289  0.00  0.00    +0.116 C 
ATOM      9  N   UNL     1      -2.083   0.804  25.126  0.00  0.00    -0.261 N 
ATOM     10  C   UNL     1      -2.747   1.031  24.692  0.00  0.00    +0.116 C 
ATOM     11  C   UNL     1      -2.733   1.852  24.616  0.00  0.00    +0.116 C 
ATOM     12  N   UNL     1      -2.061   2.132  25.002  0.00  0.00    -0.264 N 
ATOM     19  C   UNL     1      -1.659   1.484  25.317  0.00  0.00    +0.307 C 
ATOM     20  O   UNL     1      -0.956   1.512  25.748  0.00  0.00    -0.252 OA
ATOM     21  C   UNL     1      -3.280   0.460  24.423  0.00  0.00    +0.115 C 
ENDROOT
BRANCH  12  13
ATOM     13  C   UNL     1      -1.830   2.922  25.063  0.00  0.00    +0.077 C 
ATOM     14  C   UNL     1      -2.230   3.431  25.575  0.00  0.00    +0.020 C 
ATOM     15  C   UNL     1      -2.000   4.221  25.635  0.00  0.00    +0.002 C 
ATOM     16  C   UNL     1      -1.369   4.502  25.184  0.00  0.00    +0.000 C 
ATOM     17  C   UNL     1      -0.969   3.994  24.672  0.00  0.00    +0.002 C 
ATOM     18  C   UNL     1      -1.199   3.204  24.612  0.00  0.00    +0.020 C 
ENDBRANCH  12  13
BRANCH   2   3
ATOM      3  C   UNL     1      -3.546  -1.705  24.482  0.00  0.00    +0.077 C 
ATOM      4  C   UNL     1      -3.268  -2.445  24.249  0.00  0.00    +0.010 C 
ATOM      5  C   UNL     1      -3.595  -2.346  24.999  0.00  0.00    +0.010 C 
ENDBRANCH   2   3
TORSDOF 2
ENDMDL
