MODEL 1
REMARK VINA RESULT:     -10.2      0.000      0.000
REMARK  Name = 
REMARK  4 active torsions:
REMARK  status: ('A' for Active; 'I' for Inactive)
REMARK    1  A    between atoms: C_2  and  C_17
REMARK    2  A    between atoms: C_8  and  O_10
REMARK    3  A    between atoms: O_10  and  C_11
REMARK    4  A    between atoms: C_20  and  C_23
REMARK                            x       y       z     vdW  Elec       q    Type
REMARK                         _______ _______ _______ _____ _____    ______ ____
ROOT
ATOM      1  O   UNL     1      -4.708   0.841  24.871  0.00  0.00    -0.270 OA
ATOM      2  C   UNL     1      -4.007   0.506  24.591  0.00  0.00    +0.249 C 
ATOM      3  N   UNL     1      -3.392   0.992  24.333  0.00  0.00    -0.270 N 
ATOM      4  C   UNL     1      -2.716   0.601  24.064  0.00  0.00    +0.126 C 
ATOM      5  C   UNL     1      -2.016   0.927  23.774  0.00  0.00    +0.164 C 
ATOM      6  O   UNL     1      -1.818   1.722  23.679  0.00  0.00    -0.348 OA
ATOM      7  C   UNL     1      -2.272   2.389  23.853  0.00  0.00    +0.187 C 
ATOM      8  C   UNL     1      -3.036   2.425  24.163  0.00  0.00    +0.217 C 
ATOM      9  C   UNL     1      -3.534   1.803  24.376  0.00  0.00    +0.140 C 
ENDROOT
BRANCH   2  17
ATOM     17  C   UNL     1      -3.921  -0.314  24.571  0.00  0.00    +0.054 A 
ATOM     18  C   UNL     1      -4.156  -0.737  23.903  0.00  0.00    +0.005 A 
ATOM     19  C   UNL     1      -4.071  -1.557  23.882  0.00  0.00    +0.010 A 
ATOM     20  C   UNL     1      -3.751  -1.954  24.530  0.00  0.00    +0.068 A 
ATOM     21  C   UNL     1      -3.516  -1.531  25.198  0.00  0.00    +0.010 A 
ATOM     22  C   UNL     1      -3.601  -0.711  25.219  0.00  0.00    +0.005 A 
BRANCH  20  23
ATOM     23  C   UNL     1      -3.665  -2.774  24.510  0.00  0.00    +0.100 C 
ATOM     24  N   UNL     1      -3.580  -3.595  24.489  0.00  0.00    -0.191 NA
ENDBRANCH  20  23
ENDBRANCH   2  17
BRANCH   8  10
ATOM     10  O   UNL     1      -3.341   3.184  24.274  0.00  0.00    -0.459 OA
BRANCH  10  11
ATOM     11  C   UNL     1      -3.065   3.653  24.893  0.00  0.00    +0.245 A 
ATOM     12  C   UNL     1      -2.411   4.143  24.779  0.00  0.00    +0.156 A 
ATOM     13  N   UNL     1      -2.135   4.613  25.399  0.00  0.00    -0.236 NA
ATOM     14  C   UNL     1      -2.512   4.592  26.133  0.00  0.00    +0.120 A 
ATOM     15  C   UNL     1      -3.166   4.102  26.246  0.00  0.00    +0.123 A 
ATOM     16  N   UNL     1      -3.442   3.633  25.626  0.00  0.00    -0.207 NA
ENDBRANCH  10  11
ENDBRANCH   8  10
TORSDOF 4
ENDMDL
MODEL 2
REMARK VINA RESULT:      -9.1      1.077      4.914
REMARK  Name = 
REMARK  4 active torsions:
REMARK  status: ('A' for Active; 'I' for Inactive)
REMARK    1  A    between atoms: C_2  and  C_17
REMARK    2  A    between atoms: C_8  and  O_10
REMARK    3  A    between atoms: O_10  and  C_11
REMARK    4  A    between atoms: C_20  and  C_23
REMARK                            x       y       z     vdW  Elec       q    Type
REMARK                         _______ _______ _______ _____ _____    ______ ____
ROOT
ATOM      1  O   UNL     1      -3.856   2.255  25.798  0.00  0.00    -0.270 OA
ATOM      2  C   UNL     1      -3.326   2.374  25.176  0.00  0.00    +0.249 C 
ATOM      3  N   UNL     1      -3.258   1.809  24.579  0.00  0.00    -0.270 N 
ATOM      4  C   UNL     1      -2.713   1.982  23.983  0.00  0.00    +0.126 C 
ATOM      5  C   UNL     1      -2.519   1.534  23.318  0.00  0.00    +0.164 C 
ATOM      6  O   UNL     1      -2.822   0.803  23.083  0.00  0.00    -0.348 OA
ATOM      7  C   UNL     1      -3.395   0.340  23.456  0.00  0.00    +0.187 C 
ATOM      8  C   UNL     1      -3.804   0.493  24.155  0.00  0.00    +0.217 C 
ATOM      9  C   UNL     1      -3.743   1.147  24.655  0.00  0.00    +0.140 C 
ENDROOT
BRANCH   2  17
ATOM     17  C   UNL     1      -2.865   3.057  25.152  0.00  0.00    +0.054 A 
ATOM     18  C   UNL     1      -3.159   3.741  24.798  0.00  0.00    +0.005 A 
ATOM     19  C   UNL     1      -2.697   4.425  24.774  0.00  0.00    +0.010 A 
ATOM     20  C   UNL     1      -1.942   4.424  25.105  0.00  0.00    +0.068 A 
ATOM     21  C   UNL     1      -1.648   3.740  25.460  0.00  0.00    +0.010 A 
ATOM     22  C   UNL     1      -2.109   3.056  25.483  0.00  0.00    +0.005 A 
BRANCH  20  23
ATOM     23  C   UNL     1      -1.481   5.108  25.082  0.00  0.00    +0.100 C 
ATOM     24  N   UNL     1      -1.020   5.791  25.058  0.00  0.00    -0.191 NA
ENDBRANCH  20  23
ENDBRANCH   2  17
BRANCH   8  10
ATOM     10  O   UNL     1      -4.347  -0.085  24.385  0.00  0.00    -0.459 OA
BRANCH  10  11
ATOM     11  C   UNL     1      -4.089  -0.850  24.553  0.00  0.00    +0.245 A 
ATOM     12  C   UNL     1      -4.196  -1.452  23.999  0.00  0.00    +0.156 A 
ATOM     13  N   UNL     1      -3.937  -2.218  24.166  0.00  0.00    -0.236 NA
ATOM     14  C   UNL     1      -3.572  -2.381  24.888  0.00  0.00    +0.120 A 
ATOM     15  C   UNL     1      -3.465  -1.779  25.442  0.00  0.00    +0.123 A 
ATOM     16  N   UNL     1      -3.724  -1.013  25.274  0.00  0.00    -0.207 NA
ENDBRANCH  10  11
ENDBRANCH   8  10
TORSDOF 4
ENDMDL
MODEL 3
REMARK VINA RESULT:      -8.8      1.459      5.050
REMARK  Name = 
REMARK  4 active torsions:
REMARK  status: ('A' for Active; 'I' for Inactive)
REMARK    1  A    between atoms: C_2  and  C_17
REMARK    2  A    between atoms: C_8  and  O_10
REMARK    3  A    between atoms: O_10  and  C_11
REMARK    4  A    between atoms: C_20  and  C_23
REMARK                            x       y       z     vdW  Elec       q    Type
REMARK                         _______ _______ _______ _____ _____    ______ ____
ROOT
ATOM      1  O   UNL     1      -3.634   1.816  25.189  0.00  0.00    -0.270 OA
ATOM      2  C   UNL     1      -2.812   1.742  25.191  0.00  0.00    +0.249 C 
ATOM      3  N   UNL     1      -2.465   1.001  25.295  0.00  0.00    -0.270 N 
ATOM      4  C   UNL     1      -1.640   0.989  25.288  0.00  0.00    +0.126 C 
ATOM      5  C   UNL     1      -1.135   0.342  25.377  0.00  0.00    +0.164 C 
ATOM      6  O   UNL     1      -1.329  -0.451  25.493  0.00  0.00    -0.348 OA
ATOM      7  C   UNL     1      -2.078  -0.794  25.550  0.00  0.00    +0.187 C 
ATOM      8  C   UNL     1      -2.816  -0.428  25.505  0.00  0.00    +0.217 C 
ATOM      9  C   UNL     1      -2.988   0.371  25.391  0.00  0.00    +0.140 C 
ENDROOT
BRANCH   2  17
ATOM     17  C   UNL     1      -2.338   2.410  25.090  0.00  0.00    +0.054 A 
ATOM     18  C   UNL     1      -2.127   2.869  25.741  0.00  0.00    +0.005 A 
ATOM     19  C   UNL     1      -1.653   3.536  25.640  0.00  0.00    +0.010 A 
ATOM     20  C   UNL     1      -1.390   3.744  24.886  0.00  0.00    +0.068 A 
ATOM     21  C   UNL     1      -1.601   3.285  24.235  0.00  0.00    +0.010 A 
ATOM     22  C   UNL     1      -2.075   2.618  24.336  0.00  0.00    +0.005 A 
BRANCH  20  23
ATOM     23  C   UNL     1      -0.916   4.412  24.785  0.00  0.00    +0.100 C 
ATOM     24  N   UNL     1      -0.442   5.080  24.684  0.00  0.00    -0.191 NA
ENDBRANCH  20  23
ENDBRANCH   2  17
BRANCH   8  10
ATOM     10  O   UNL     1      -3.468  -0.928  25.584  0.00  0.00    -0.459 OA
BRANCH  10  11
ATOM     11  C   UNL     1      -3.631  -1.488  25.001  0.00  0.00    +0.245 A 
ATOM     12  C   UNL     1      -3.370  -2.266  25.092  0.00  0.00    +0.156 A 
ATOM     13  N   UNL     1      -3.533  -2.826  24.509  0.00  0.00    -0.236 NA
ATOM     14  C   UNL     1      -3.958  -2.609  23.835  0.00  0.00    +0.120 A 
ATOM     15  C   UNL     1      -4.219  -1.832  23.745  0.00  0.00    +0.123 A 
ATOM     16  N   UNL     1      -4.056  -1.272  24.328  0.00  0.00    -0.207 NA
ENDBRANCH  10  11
ENDBRANCH   8  10
TORSDOF 4
ENDMDL
MODEL 4
REMARK VINA RESULT:      -8.7      2.013      4.470
REMARK  Name = 
REMARK  4 active torsions:
REMARK  status: ('A' for Active; 'I' for Inactive)
REMARK    1  A    between atoms: C_2  and  C_17
REMARK    2  A    between atoms: C_8  and  O_10
REMARK    3  A    between atoms: O_10  and  C_11
REMARK    4  A    between atoms: C_20  and  C_23
REMARK                            x       y       z     vdW  Elec       q    Type
REMARK                         _______ _______ _______ _____ _____    ______ ____
ROOT
ATOM      1  O   UNL     1      -3.709   0.898  23.751  0.00  0.00    -0.270 OA
ATOM      2  C   UNL     1      -3.439   1.445  24.309  0.00  0.00    +0.249 C 
ATOM      3  N   UNL     1      -2.664   1.402  24.587  0.00  0.00    -0.270 N 
ATOM      4  C   UNL     1      -2.450   1.974  25.142  0.00  0.00    +0.126 C 
ATOM      5  C   UNL     1      -1.724   2.077  25.520  0.00  0.00    +0.164 C 
ATOM      6  O   UNL     1      -1.033   1.636  25.437  0.00  0.00    -0.348 OA
ATOM      7  C   UNL     1      -0.896   0.980  24.954  0.00  0.00    +0.187 C 
ATOM      8  C   UNL     1      -1.417   0.605  24.437  0.00  0.00    +0.217 C 
ATOM      9  C   UNL     1      -2.204   0.793  24.273  0.00  0.00    +0.140 C 
ENDROOT
BRANCH   2  17
ATOM     17  C   UNL     1      -3.945   2.033  24.587  0.00  0.00    +0.054 A 
ATOM     18  C   UNL     1      -3.931   2.785  24.247  0.00  0.00    +0.005 A 
ATOM     19  C   UNL     1      -4.438   3.373  24.526  0.00  0.00    +0.010 A 
ATOM     20  C   UNL     1      -4.958   3.210  25.144  0.00  0.00    +0.068 A 
ATOM     21  C   UNL     1      -4.972   2.459  25.484  0.00  0.00    +0.010 A 
ATOM     22  C   UNL     1      -4.466   1.870  25.206  0.00  0.00    +0.005 A 
BRANCH  20  23
ATOM     23  C   UNL     1      -5.464   3.799  25.423  0.00  0.00    +0.100 C 
ATOM     24  N   UNL     1      -5.971   4.388  25.701  0.00  0.00    -0.191 NA
ENDBRANCH  20  23
ENDBRANCH   2  17
BRANCH   8  10
ATOM     10  O   UNL     1      -1.111  -0.044  24.028  0.00  0.00    -0.459 OA
BRANCH  10  11
ATOM     11  C   UNL     1      -1.051  -0.776  24.403  0.00  0.00    +0.245 A 
ATOM     12  C   UNL     1      -0.371  -0.967  24.829  0.00  0.00    +0.156 A 
ATOM     13  N   UNL     1      -0.312  -1.699  25.204  0.00  0.00    -0.236 NA
ATOM     14  C   UNL     1      -0.932  -2.242  25.151  0.00  0.00    +0.120 A 
ATOM     15  C   UNL     1      -1.611  -2.050  24.725  0.00  0.00    +0.123 A 
ATOM     16  N   UNL     1      -1.671  -1.317  24.350  0.00  0.00    -0.207 NA
ENDBRANCH  10  11
ENDBRANCH   8  10
TORSDOF 4
ENDMDL
MODEL 5
REMARK VINA RESULT:      -8.3      1.844      2.305
REMARK  Name = 
REMARK  4 active torsions:
REMARK  status: ('A' for Active; 'I' for Inactive)
REMARK    1  A    between atoms: C_2  and  C_17
REMARK    2  A    between atoms: C_8  and  O_10
REMARK    3  A    between atoms: O_10  and  C_11
REMARK    4  A    between atoms: C_20  and  C_23
REMARK                            x       y       z     vdW  Elec       q    Type
REMARK                         _______ _______ _______ _____ _____    ______ ____
ROOT
ATOM      1  O   UNL     1      -3.790  -0.335  25.246  0.00  0.00    -0.270 OA
ATOM      2  C   UNL     1      -3.071  -0.101  24.915  0.00  0.00    +0.249 C 
ATOM      3  N   UNL     1      -3.027   0.597  24.477  0.00  0.00    -0.270 N 
ATOM      4  C   UNL     1      -2.283   0.780  24.171  0.00  0.00    +0.126 C 
ATOM      5  C   UNL     1      -2.061   1.431  23.715  0.00  0.00    +0.164 C 
ATOM      6  O   UNL     1      -2.527   2.059  23.453  0.00  0.00    -0.348 OA
ATOM      7  C   UNL     1      -3.331   2.191  23.582  0.00  0.00    +0.187 C 
ATOM      8  C   UNL     1      -3.867   1.728  24.005  0.00  0.00    +0.217 C 
ATOM      9  C   UNL     1      -3.732   1.018  24.404  0.00  0.00    +0.140 C 
ENDROOT
BRANCH   2  17
ATOM     17  C   UNL     1      -2.397  -0.565  25.023  0.00  0.00    +0.054 A 
ATOM     18  C   UNL     1      -1.872  -0.394  25.635  0.00  0.00    +0.005 A 
ATOM     19  C   UNL     1      -1.198  -0.858  25.742  0.00  0.00    +0.010 A 
ATOM     20  C   UNL     1      -1.050  -1.492  25.237  0.00  0.00    +0.068 A 
ATOM     21  C   UNL     1      -1.576  -1.663  24.624  0.00  0.00    +0.010 A 
ATOM     22  C   UNL     1      -2.249  -1.199  24.517  0.00  0.00    +0.005 A 
BRANCH  20  23
ATOM     23  C   UNL     1      -0.377  -1.956  25.344  0.00  0.00    +0.100 C 
ATOM     24  N   UNL     1       0.297  -2.420  25.452  0.00  0.00    -0.191 NA
ENDBRANCH  20  23
ENDBRANCH   2  17
BRANCH   8  10
ATOM     10  O   UNL     1      -4.641   2.013  24.033  0.00  0.00    -0.459 OA
BRANCH  10  11
ATOM     11  C   UNL     1      -4.876   2.510  24.649  0.00  0.00    +0.245 A 
ATOM     12  C   UNL     1      -5.454   2.259  25.183  0.00  0.00    +0.156 A 
ATOM     13  N   UNL     1      -5.688   2.755  25.798  0.00  0.00    -0.236 NA
ATOM     14  C   UNL     1      -5.346   3.502  25.880  0.00  0.00    +0.120 A 
ATOM     15  C   UNL     1      -4.769   3.752  25.346  0.00  0.00    +0.123 A 
ATOM     16  N   UNL     1      -4.534   3.255  24.730  0.00  0.00    -0.207 NA
ENDBRANCH  10  11
ENDBRANCH   8  10
TORSDOF 4
ENDMDL
