MODEL 1
REMARK VINA RESULT:     -12.1      0.000      0.000
REMARK  Name = 
REMARK  9 active torsions:
REMARK  status: ('A' for Active; 'I' for Inactive)
REMARK    1  A    between atoms: O_2  and  C_3
REMARK    2  A    between atoms: C_4  and  O_5
REMARK    3  A    between atoms: C_8  and  C_9
REMARK    4  A    between atoms: C_9  and  N_10
REMARK    5  A    between atoms: C_11  and  C_13
REMARK    6  A    between atoms: C_13  and  C_14
REMARK    7  A    between atoms: C_19  and  C_20
REMARK    8  A    between atoms: C_20  and  C_21
REMARK    9  A    between atoms: C_24  and  C_26
REMARK                            x       y       z     vdW  Elec       q    Type
REMARK                         _______ _______ _______ _____ _____    ______ ____
ROOT
ATOM     14  C   UNL     1      -0.208   1.489  25.086  0.00  0.00    +0.012 C 
ATOM     15  C   UNL     1       0.267   1.885  24.541  0.00  0.00    +0.019 C 
ATOM     16  C   UNL     1       0.548   1.488  23.873  0.00  0.00    +0.089 C 
ATOM     17  N   UNL     1       0.353   0.696  23.752  0.00  0.00    -0.218 NA
ATOM     18  C   UNL     1      -0.123   0.301  24.298  0.00  0.00    +0.089 C 
ATOM     19  C   UNL     1      -0.404   0.697  24.964  0.00  0.00    +0.024 C 
ENDROOT
BRANCH  14  13
ATOM     13  C   UNL     1      -0.489   1.886  25.752  0.00  0.00    +0.087 C 
BRANCH  13  11
ATOM     10  N   UNL     1      -1.640   2.728  25.664  0.00  0.00    -0.201 NA
ATOM     11  C   UNL     1      -0.819   2.637  25.676  0.00  0.00    +0.242 C 
ATOM     12  O   UNL     1      -0.330   3.299  25.612  0.00  0.00    -0.273 OA
BRANCH  10   9
ATOM      9  C   UNL     1      -1.970   3.480  25.588  0.00  0.00    +0.142 C 
BRANCH   9   8
ATOM      3  C   UNL     1      -4.401   3.727  25.198  0.00  0.00    +0.172 A 
ATOM      4  C   UNL     1      -3.914   3.443  24.596  0.00  0.00    +0.172 A 
ATOM      7  C   UNL     1      -3.104   3.361  24.726  0.00  0.00    +0.037 A 
ATOM      8  C   UNL     1      -2.781   3.562  25.458  0.00  0.00    +0.003 A 
ATOM     33  C   UNL     1      -3.269   3.846  26.060  0.00  0.00    +0.001 A 
ATOM     34  C   UNL     1      -4.079   3.929  25.930  0.00  0.00    +0.040 A 
BRANCH   3   2
ATOM      1  C   UNL     1      -5.725   3.905  25.708  0.00  0.00    +0.253 C 
ATOM      2  O   UNL     1      -5.212   3.810  25.068  0.00  0.00    -0.468 OA
ENDBRANCH   3   2
BRANCH   4   5
ATOM      5  O   UNL     1      -4.237   3.242  23.865  0.00  0.00    -0.468 OA
ATOM      6  C   UNL     1      -3.785   2.824  23.315  0.00  0.00    +0.253 C 
ENDBRANCH   4   5
ENDBRANCH   9   8
ENDBRANCH  10   9
ENDBRANCH  13  11
ENDBRANCH  14  13
BRANCH  19  20
ATOM     20  C   UNL     1      -0.879   0.302  25.509  0.00  0.00    +0.051 C 
BRANCH  20  21
ATOM     21  C   UNL     1      -1.239  -0.412  25.302  0.00  0.00    +0.101 A 
ATOM     22  N   UNL     1      -0.896  -1.160  25.352  0.00  0.00    -0.081 NA
ATOM     23  O   UNL     1      -1.450  -1.712  25.089  0.00  0.00    -0.354 OA
ATOM     24  C   UNL     1      -2.136  -1.305  24.877  0.00  0.00    +0.177 A 
ATOM     25  C   UNL     1      -2.005  -0.501  25.009  0.00  0.00    +0.058 A 
BRANCH  24  26
ATOM     26  C   UNL     1      -2.830  -1.643  24.585  0.00  0.00    +0.037 A 
ATOM     27  C   UNL     1      -2.914  -2.463  24.571  0.00  0.00    +0.005 A 
ATOM     28  C   UNL     1      -3.609  -2.801  24.278  0.00  0.00    +0.030 A 
ATOM     29  C   UNL     1      -4.217  -2.317  24.001  0.00  0.00    +0.140 A 
ATOM     30  F   UNL     1      -4.911  -2.655  23.709  0.00  0.00    -0.204 F 
ATOM     31  C   UNL     1      -4.132  -1.498  24.016  0.00  0.00    +0.030 A 
ATOM     32  C   UNL     1      -3.438  -1.160  24.308  0.00  0.00    +0.005 A 
ENDBRANCH  24  26
ENDBRANCH  20  21
ENDBRANCH  19  20
TORSDOF 9
ENDMDL
MODEL 2
REMARK VINA RESULT:     -11.9      1.634      3.816
REMARK  Name = 
REMARK  9 active torsions:
REMARK  status: ('A' for Active; 'I' for Inactive)
REMARK    1  A    between atoms: O_2  and  C_3
REMARK    2  A    between atoms: C_4  and  O_5
REMARK    3  A    between atoms: C_8  and  C_9
REMARK    4  A    between atoms: C_9  and  N_10
REMARK    5  A    between atoms: C_11  and  C_13
REMARK    6  A    between atoms: C_13  and  C_14
REMARK    7  A    between atoms: C_19  and  C_20
REMARK    8  A    between atoms: C_20  and  C_21
REMARK    9  A    between atoms: C_24  and  C_26
REMARK                            x       y       z     vdW  Elec       q    Type
REMARK                         _______ _______ _______ _____ _____    ______ ____
ROOT
ATOM     14  C   UNL     1      -4.659   2.790  24.714  0.00  0.00    +0.012 C 
ATOM     15  C   UNL     1      -4.934   3.408  25.187  0.00  0.00    +0.019 C 
ATOM     16  C   UNL     1      -5.511   3.264  25.759  0.00  0.00    +0.089 C 
ATOM     17  N   UNL     1      -5.813   2.503  25.858  0.00  0.00    -0.218 NA
ATOM     18  C   UNL     1      -5.538   1.886  25.385  0.00  0.00    +0.089 C 
ATOM     19  C   UNL     1      -4.961   2.029  24.813  0.00  0.00    +0.024 C 
ENDROOT
BRANCH  14  13
ATOM     13  C   UNL     1      -4.083   2.935  24.142  0.00  0.00    +0.087 C 
BRANCH  13  11
ATOM     10  N   UNL     1      -2.714   3.110  24.512  0.00  0.00    -0.201 NA
ATOM     11  C   UNL     1      -3.448   3.432  24.313  0.00  0.00    +0.242 C 
ATOM     12  O   UNL     1      -3.545   4.250  24.284  0.00  0.00    -0.273 OA
BRANCH  10   9
ATOM      9  C   UNL     1      -2.078   3.608  24.683  0.00  0.00    +0.142 C 
BRANCH   9   8
ATOM      3  C   UNL     1      -0.091   2.715  25.855  0.00  0.00    +0.172 A 
ATOM      4  C   UNL     1      -0.191   2.574  25.049  0.00  0.00    +0.172 A 
ATOM      7  C   UNL     1      -0.854   2.872  24.658  0.00  0.00    +0.037 A 
ATOM      8  C   UNL     1      -1.415   3.310  25.073  0.00  0.00    +0.003 A 
ATOM     33  C   UNL     1      -1.315   3.450  25.880  0.00  0.00    +0.001 A 
ATOM     34  C   UNL     1      -0.652   3.153  26.272  0.00  0.00    +0.040 A 
BRANCH   3   2
ATOM      1  C   UNL     1       0.609   2.437  27.071  0.00  0.00    +0.253 C 
ATOM      2  O   UNL     1       0.572   2.417  26.247  0.00  0.00    -0.468 OA
ENDBRANCH   3   2
BRANCH   4   5
ATOM      5  O   UNL     1       0.371   2.136  24.634  0.00  0.00    -0.468 OA
ATOM      6  C   UNL     1       0.133   1.629  24.028  0.00  0.00    +0.253 C 
ENDBRANCH   4   5
ENDBRANCH   9   8
ENDBRANCH  10   9
ENDBRANCH  13  11
ENDBRANCH  14  13
BRANCH  19  20
ATOM     20  C   UNL     1      -4.687   1.412  24.340  0.00  0.00    +0.051 C 
BRANCH  20  21
ATOM     21  C   UNL     1      -4.510   0.680  24.679  0.00  0.00    +0.101 A 
ATOM     22  N   UNL     1      -4.502   0.509  25.485  0.00  0.00    -0.081 NA
ATOM     23  O   UNL     1      -4.297  -0.286  25.574  0.00  0.00    -0.354 OA
ATOM     24  C   UNL     1      -4.180  -0.605  24.823  0.00  0.00    +0.177 A 
ATOM     25  C   UNL     1      -4.311  -0.008  24.269  0.00  0.00    +0.058 A 
BRANCH  24  26
ATOM     26  C   UNL     1      -3.968  -1.385  24.655  0.00  0.00    +0.037 A 
ATOM     27  C   UNL     1      -3.456  -1.790  25.158  0.00  0.00    +0.005 A 
ATOM     28  C   UNL     1      -3.244  -2.570  24.990  0.00  0.00    +0.030 A 
ATOM     29  C   UNL     1      -3.545  -2.943  24.318  0.00  0.00    +0.140 A 
ATOM     30  F   UNL     1      -3.333  -3.723  24.150  0.00  0.00    -0.204 F 
ATOM     31  C   UNL     1      -4.057  -2.538  23.815  0.00  0.00    +0.030 A 
ATOM     32  C   UNL     1      -4.269  -1.758  23.983  0.00  0.00    +0.005 A 
ENDBRANCH  24  26
ENDBRANCH  20  21
ENDBRANCH  19  20
TORSDOF 9
ENDMDL
MODEL 3
REMARK VINA RESULT:     -11.8      2.175      5.646
REMARK  Name = 
REMARK  9 active torsions:
REMARK  status: ('A' for Active; 'I' for Inactive)
REMARK    1  A    between atoms: O_2  and  C_3
REMARK    2  A    between atoms: C_4  and  O_5
REMARK    3  A    between atoms: C_8  and  C_9
REMARK    4  A    between atoms: C_9  and  N_10
REMARK    5  A    between atoms: C_11  and  C_13
REMARK    6  A    between atoms: C_13  and  C_14
REMARK    7  A    between atoms: C_19  and  C_20
REMARK    8  A    between atoms: C_20  and  C_21
REMARK    9  A    between atoms: C_24  and  C_26
REMARK                            x       y       z     vdW  Elec       q    Type
REMARK                         _______ _______ _______ _____ _____    ______ ____
ROOT
ATOM     14  C   UNL     1      -5.034   2.424  24.934  0.00  0.00    +0.012 C 
ATOM     15  C   UNL     1      -5.654   2.338  25.471  0.00  0.00    +0.019 C 
ATOM     16  C   UNL     1      -5.863   2.967  25.963  0.00  0.00    +0.089 C 
ATOM     17  N   UNL     1      -5.452   3.681  25.919  0.00  0.00    -0.218 NA
ATOM     18  C   UNL     1      -4.831   3.766  25.382  0.00  0.00    +0.089 C 
ATOM     19  C   UNL     1      -4.622   3.138  24.890  0.00  0.00    +0.024 C 
ENDROOT
BRANCH  14  13
ATOM     13  C   UNL     1      -4.825   1.796  24.442  0.00  0.00    +0.087 C 
BRANCH  13  11
ATOM     10  N   UNL     1      -4.229   0.531  24.737  0.00  0.00    -0.201 NA
ATOM     11  C   UNL     1      -4.894   1.020  24.712  0.00  0.00    +0.242 C 
ATOM     12  O   UNL     1      -5.627   0.732  24.958  0.00  0.00    -0.273 OA
BRANCH  10   9
ATOM      9  C   UNL     1      -4.298  -0.245  25.007  0.00  0.00    +0.142 C 
BRANCH   9   8
ATOM      3  C   UNL     1      -2.342  -1.759  24.927  0.00  0.00    +0.172 A 
ATOM      4  C   UNL     1      -3.072  -2.012  24.636  0.00  0.00    +0.172 A 
ATOM      7  C   UNL     1      -3.723  -1.507  24.663  0.00  0.00    +0.037 A 
ATOM      8  C   UNL     1      -3.646  -0.750  24.980  0.00  0.00    +0.003 A 
ATOM     33  C   UNL     1      -2.917  -0.498  25.271  0.00  0.00    +0.001 A 
ATOM     34  C   UNL     1      -2.264  -1.001  25.244  0.00  0.00    +0.040 A 
BRANCH   3   2
ATOM      1  C   UNL     1      -0.934  -1.970  25.055  0.00  0.00    +0.253 C 
ATOM      2  O   UNL     1      -1.689  -2.263  24.900  0.00  0.00    -0.468 OA
ENDBRANCH   3   2
BRANCH   4   5
ATOM      5  O   UNL     1      -3.148  -2.769  24.318  0.00  0.00    -0.468 OA
ATOM      6  C   UNL     1      -3.865  -3.006  23.985  0.00  0.00    +0.253 C 
ENDBRANCH   4   5
ENDBRANCH   9   8
ENDBRANCH  10   9
ENDBRANCH  13  11
ENDBRANCH  14  13
BRANCH  19  20
ATOM     20  C   UNL     1      -4.002   3.223  24.353  0.00  0.00    +0.051 C 
BRANCH  20  21
ATOM     21  C   UNL     1      -3.257   3.463  24.618  0.00  0.00    +0.101 A 
ATOM     22  N   UNL     1      -3.002   4.242  24.705  0.00  0.00    -0.081 NA
ATOM     23  O   UNL     1      -2.225   4.226  24.982  0.00  0.00    -0.354 OA
ATOM     24  C   UNL     1      -2.001   3.437  25.066  0.00  0.00    +0.177 A 
ATOM     25  C   UNL     1      -2.639   2.965  24.841  0.00  0.00    +0.058 A 
BRANCH  24  26
ATOM     26  C   UNL     1      -1.266   3.167  25.330  0.00  0.00    +0.037 A 
ATOM     27  C   UNL     1      -1.158   2.976  26.125  0.00  0.00    +0.005 A 
ATOM     28  C   UNL     1      -0.424   2.706  26.388  0.00  0.00    +0.030 A 
ATOM     29  C   UNL     1       0.201   2.628  25.855  0.00  0.00    +0.140 A 
ATOM     30  F   UNL     1       0.936   2.358  26.119  0.00  0.00    -0.204 F 
ATOM     31  C   UNL     1       0.093   2.819  25.061  0.00  0.00    +0.030 A 
ATOM     32  C   UNL     1      -0.642   3.089  24.797  0.00  0.00    +0.005 A 
ENDBRANCH  24  26
ENDBRANCH  20  21
ENDBRANCH  19  20
TORSDOF 9
ENDMDL
MODEL 4
REMARK VINA RESULT:     -11.6      1.480      4.152
REMARK  Name = 
REMARK  9 active torsions:
REMARK  status: ('A' for Active; 'I' for Inactive)
REMARK    1  A    between atoms: O_2  and  C_3
REMARK    2  A    between atoms: C_4  and  O_5
REMARK    3  A    between atoms: C_8  and  C_9
REMARK    4  A    between atoms: C_9  and  N_10
REMARK    5  A    between atoms: C_11  and  C_13
REMARK    6  A    between atoms: C_13  and  C_14
REMARK    7  A    between atoms: C_19  and  C_20
REMARK    8  A    between atoms: C_20  and  C_21
REMARK    9  A    between atoms: C_24  and  C_26
REMARK                            x       y       z     vdW  Elec       q    Type
REMARK                         _______ _______ _______ _____ _____    ______ ____
ROOT
ATOM     14  C   UNL     1      -2.837   3.493  24.873  0.00  0.00    +0.012 C 
ATOM     15  C   UNL     1      -2.526   3.954  25.482  0.00  0.00    +0.019 C 
ATOM     16  C   UNL     1      -3.001   4.163  26.125  0.00  0.00    +0.089 C 
ATOM     17  N   UNL     1      -3.786   3.910  26.157  0.00  0.00    -0.218 NA
ATOM     18  C   UNL     1      -4.096   3.448  25.547  0.00  0.00    +0.089 C 
ATOM     19  C   UNL     1      -3.621   3.240  24.906  0.00  0.00    +0.024 C 
ENDROOT
BRANCH  14  13
ATOM     13  C   UNL     1      -2.362   3.284  24.232  0.00  0.00    +0.087 C 
BRANCH  13  11
ATOM     10  N   UNL     1      -1.396   2.232  24.256  0.00  0.00    -0.201 NA
ATOM     11  C   UNL     1      -1.589   3.028  24.357  0.00  0.00    +0.242 C 
ATOM     12  O   UNL     1      -1.007   3.567  24.584  0.00  0.00    -0.273 OA
BRANCH  10   9
ATOM      9  C   UNL     1      -0.622   1.975  24.381  0.00  0.00    +0.142 C 
BRANCH   9   8
ATOM      3  C   UNL     1      -0.128  -0.446  24.507  0.00  0.00    +0.172 A 
ATOM      4  C   UNL     1       0.096  -0.013  23.841  0.00  0.00    +0.172 A 
ATOM      7  C   UNL     1      -0.068   0.793  23.800  0.00  0.00    +0.037 A 
ATOM      8  C   UNL     1      -0.457   1.168  24.423  0.00  0.00    +0.003 A 
ATOM     33  C   UNL     1      -0.681   0.735  25.089  0.00  0.00    +0.001 A 
ATOM     34  C   UNL     1      -0.516  -0.072  25.131  0.00  0.00    +0.040 A 
BRANCH   3   2
ATOM      1  C   UNL     1      -0.328  -1.720  25.124  0.00  0.00    +0.253 C 
ATOM      2  O   UNL     1       0.037  -1.254  24.549  0.00  0.00    -0.468 OA
ENDBRANCH   3   2
BRANCH   4   5
ATOM      5  O   UNL     1       0.485  -0.389  23.218  0.00  0.00    -0.468 OA
ATOM      6  C   UNL     1       1.047   0.023  22.775  0.00  0.00    +0.253 C 
ENDBRANCH   4   5
ENDBRANCH   9   8
ENDBRANCH  10   9
ENDBRANCH  13  11
ENDBRANCH  14  13
BRANCH  19  20
ATOM     20  C   UNL     1      -3.931   2.779  24.296  0.00  0.00    +0.051 C 
BRANCH  20  21
ATOM     21  C   UNL     1      -4.265   2.042  24.465  0.00  0.00    +0.101 A 
ATOM     22  N   UNL     1      -5.039   1.907  24.713  0.00  0.00    -0.081 NA
ATOM     23  O   UNL     1      -5.135   1.093  24.816  0.00  0.00    -0.354 OA
ATOM     24  C   UNL     1      -4.419   0.727  24.631  0.00  0.00    +0.177 A 
ATOM     25  C   UNL     1      -3.881   1.314  24.414  0.00  0.00    +0.058 A 
BRANCH  24  26
ATOM     26  C   UNL     1      -4.268  -0.084  24.659  0.00  0.00    +0.037 A 
ATOM     27  C   UNL     1      -4.320  -0.536  23.971  0.00  0.00    +0.005 A 
ATOM     28  C   UNL     1      -4.169  -1.347  23.999  0.00  0.00    +0.030 A 
ATOM     29  C   UNL     1      -3.967  -1.705  24.715  0.00  0.00    +0.140 A 
ATOM     30  F   UNL     1      -3.816  -2.516  24.742  0.00  0.00    -0.204 F 
ATOM     31  C   UNL     1      -3.915  -1.252  25.401  0.00  0.00    +0.030 A 
ATOM     32  C   UNL     1      -4.066  -0.441  25.374  0.00  0.00    +0.005 A 
ENDBRANCH  24  26
ENDBRANCH  20  21
ENDBRANCH  19  20
TORSDOF 9
ENDMDL
MODEL 5
REMARK VINA RESULT:     -11.5      1.473      4.604
REMARK  Name = 
REMARK  9 active torsions:
REMARK  status: ('A' for Active; 'I' for Inactive)
REMARK    1  A    between atoms: O_2  and  C_3
REMARK    2  A    between atoms: C_4  and  O_5
REMARK    3  A    between atoms: C_8  and  C_9
REMARK    4  A    between atoms: C_9  and  N_10
REMARK    5  A    between atoms: C_11  and  C_13
REMARK    6  A    between atoms: C_13  and  C_14
REMARK    7  A    between atoms: C_19  and  C_20
REMARK    8  A    between atoms: C_20  and  C_21
REMARK    9  A    between atoms: C_24  and  C_26
REMARK                            x       y       z     vdW  Elec       q    Type
REMARK                         _______ _______ _______ _____ _____    ______ ____
ROOT
ATOM     14  C   UNL     1      -0.935   3.478  25.527  0.00  0.00    +0.012 C 
ATOM     15  C   UNL     1      -0.360   3.689  24.974  0.00  0.00    +0.019 C 
ATOM     16  C   UNL     1      -0.433   4.397  24.555  0.00  0.00    +0.089 C 
ATOM     17  N   UNL     1      -1.079   4.893  24.689  0.00  0.00    -0.218 NA
ATOM     18  C   UNL     1      -1.652   4.680  25.243  0.00  0.00    +0.089 C 
ATOM     19  C   UNL     1      -1.581   3.973  25.661  0.00  0.00    +0.024 C 
ENDROOT
BRANCH  14  13
ATOM     13  C   UNL     1      -0.862   2.771  25.945  0.00  0.00    +0.087 C 
BRANCH  13  11
ATOM     10  N   UNL     1      -1.003   1.445  25.430  0.00  0.00    -0.201 NA
ATOM     11  C   UNL     1      -0.534   2.108  25.581  0.00  0.00    +0.242 C 
ATOM     12  O   UNL     1       0.262   2.106  25.367  0.00  0.00    -0.273 OA
BRANCH  10   9
ATOM      9  C   UNL     1      -0.675   0.782  25.066  0.00  0.00    +0.142 C 
BRANCH   9   8
ATOM      3  C   UNL     1      -2.053  -1.244  24.721  0.00  0.00    +0.172 A 
ATOM      4  C   UNL     1      -1.268  -1.316  24.964  0.00  0.00    +0.172 A 
ATOM      7  C   UNL     1      -0.809  -0.641  25.079  0.00  0.00    +0.037 A 
ATOM      8  C   UNL     1      -1.134   0.106  24.951  0.00  0.00    +0.003 A 
ATOM     33  C   UNL     1      -1.919   0.177  24.708  0.00  0.00    +0.001 A 
ATOM     34  C   UNL     1      -2.379  -0.498  24.593  0.00  0.00    +0.040 A 
BRANCH   3   2
ATOM      1  C   UNL     1      -3.305  -1.848  24.389  0.00  0.00    +0.253 C 
ATOM      2  O   UNL     1      -2.513  -1.921  24.606  0.00  0.00    -0.468 OA
ENDBRANCH   3   2
BRANCH   4   5
ATOM      5  O   UNL     1      -0.942  -2.063  25.092  0.00  0.00    -0.468 OA
ATOM      6  C   UNL     1      -0.168  -2.134  25.368  0.00  0.00    +0.253 C 
ENDBRANCH   4   5
ENDBRANCH   9   8
ENDBRANCH  10   9
ENDBRANCH  13  11
ENDBRANCH  14  13
BRANCH  19  20
ATOM     20  C   UNL     1      -2.154   3.761  26.214  0.00  0.00    +0.051 C 
BRANCH  20  21
ATOM     21  C   UNL     1      -2.953   3.776  26.007  0.00  0.00    +0.101 A 
ATOM     22  N   UNL     1      -3.428   4.447  25.957  0.00  0.00    -0.081 NA
ATOM     23  O   UNL     1      -4.185   4.208  25.732  0.00  0.00    -0.354 OA
ATOM     24  C   UNL     1      -4.177   3.388  25.642  0.00  0.00    +0.177 A 
ATOM     25  C   UNL     1      -3.415   3.120  25.812  0.00  0.00    +0.058 A 
BRANCH  24  26
ATOM     26  C   UNL     1      -4.819   2.917  25.422  0.00  0.00    +0.037 A 
ATOM     27  C   UNL     1      -5.484   2.874  25.907  0.00  0.00    +0.005 A 
ATOM     28  C   UNL     1      -6.125   2.403  25.686  0.00  0.00    +0.030 A 
ATOM     29  C   UNL     1      -6.100   1.977  24.979  0.00  0.00    +0.140 A 
ATOM     30  F   UNL     1      -6.741   1.507  24.759  0.00  0.00    -0.204 F 
ATOM     31  C   UNL     1      -5.435   2.022  24.495  0.00  0.00    +0.030 A 
ATOM     32  C   UNL     1      -4.793   2.492  24.715  0.00  0.00    +0.005 A 
ENDBRANCH  24  26
ENDBRANCH  20  21
ENDBRANCH  19  20
TORSDOF 9
ENDMDL
MODEL 6
REMARK VINA RESULT:     -11.5      2.000      3.905
REMARK  Name = 
REMARK  9 active torsions:
REMARK  status: ('A' for Active; 'I' for Inactive)
REMARK    1  A    between atoms: O_2  and  C_3
REMARK    2  A    between atoms: C_4  and  O_5
REMARK    3  A    between atoms: C_8  and  C_9
REMARK    4  A    between atoms: C_9  and  N_10
REMARK    5  A    between atoms: C_11  and  C_13
REMARK    6  A    between atoms: C_13  and  C_14
REMARK    7  A    between atoms: C_19  and  C_20
REMARK    8  A    between atoms: C_20  and  C_21
REMARK    9  A    between atoms: C_24  and  C_26
REMARK                            x       y       z     vdW  Elec       q    Type
REMARK                         _______ _______ _______ _____ _____    ______ ____
ROOT
ATOM     14  C   UNL     1      -2.793  -1.520  25.137  0.00  0.00    +0.012 C 
ATOM     15  C   UNL     1      -3.045  -2.102  24.609  0.00  0.00    +0.019 C 
ATOM     16  C   UNL     1      -2.490  -2.538  24.181  0.00  0.00    +0.089 C 
ATOM     17  N   UNL     1      -1.684  -2.393  24.282  0.00  0.00    -0.218 NA
ATOM     18  C   UNL     1      -1.433  -1.811  24.810  0.00  0.00    +0.089 C 
ATOM     19  C   UNL     1      -1.987  -1.375  25.238  0.00  0.00    +0.024 C 
ENDROOT
BRANCH  14  13
ATOM     13  C   UNL     1      -3.348  -1.084  25.564  0.00  0.00    +0.087 C 
BRANCH  13  11
ATOM     10  N   UNL     1      -4.153   0.069  25.314  0.00  0.00    -0.201 NA
ATOM     11  C   UNL     1      -3.980  -0.726  25.175  0.00  0.00    +0.242 C 
ATOM     12  O   UNL     1      -4.439  -1.161  24.646  0.00  0.00    -0.273 OA
BRANCH  10   9
ATOM      9  C   UNL     1      -4.786   0.428  24.924  0.00  0.00    +0.142 C 
BRANCH   9   8
ATOM      3  C   UNL     1      -5.081   2.881  25.045  0.00  0.00    +0.172 A 
ATOM      4  C   UNL     1      -4.553   2.556  24.501  0.00  0.00    +0.172 A 
ATOM      7  C   UNL     1      -4.455   1.738  24.461  0.00  0.00    +0.037 A 
ATOM      8  C   UNL     1      -4.884   1.246  24.964  0.00  0.00    +0.003 A 
ATOM     33  C   UNL     1      -5.412   1.571  25.508  0.00  0.00    +0.001 A 
ATOM     34  C   UNL     1      -5.511   2.389  25.549  0.00  0.00    +0.040 A 
BRANCH   3   2
ATOM      1  C   UNL     1      -5.668   4.029  25.665  0.00  0.00    +0.253 C 
ATOM      2  O   UNL     1      -5.180   3.700  25.086  0.00  0.00    -0.468 OA
ENDBRANCH   3   2
BRANCH   4   5
ATOM      5  O   UNL     1      -4.124   3.049  23.998  0.00  0.00    -0.468 OA
ATOM      6  C   UNL     1      -3.760   2.737  23.327  0.00  0.00    +0.253 C 
ENDBRANCH   4   5
ENDBRANCH   9   8
ENDBRANCH  10   9
ENDBRANCH  13  11
ENDBRANCH  14  13
BRANCH  19  20
ATOM     20  C   UNL     1      -1.736  -0.793  25.765  0.00  0.00    +0.051 C 
BRANCH  20  21
ATOM     21  C   UNL     1      -1.238  -0.187  25.506  0.00  0.00    +0.101 A 
ATOM     22  N   UNL     1      -0.504  -0.286  25.145  0.00  0.00    -0.081 NA
ATOM     23  O   UNL     1      -0.199   0.463  24.979  0.00  0.00    -0.354 OA
ATOM     24  C   UNL     1      -0.747   1.024  25.237  0.00  0.00    +0.177 A 
ATOM     25  C   UNL     1      -1.389   0.621  25.563  0.00  0.00    +0.058 A 
BRANCH  24  26
ATOM     26  C   UNL     1      -0.666   1.843  25.179  0.00  0.00    +0.037 A 
ATOM     27  C   UNL     1      -0.300   2.175  24.519  0.00  0.00    +0.005 A 
ATOM     28  C   UNL     1      -0.218   2.995  24.461  0.00  0.00    +0.030 A 
ATOM     29  C   UNL     1      -0.504   3.481  25.064  0.00  0.00    +0.140 A 
ATOM     30  F   UNL     1      -0.423   4.300  25.006  0.00  0.00    -0.204 F 
ATOM     31  C   UNL     1      -0.870   3.148  25.724  0.00  0.00    +0.030 A 
ATOM     32  C   UNL     1      -0.951   2.328  25.781  0.00  0.00    +0.005 A 
ENDBRANCH  24  26
ENDBRANCH  20  21
ENDBRANCH  19  20
TORSDOF 9
ENDMDL
MODEL 7
REMARK VINA RESULT:     -11.3      2.067      5.013
REMARK  Name = 
REMARK  9 active torsions:
REMARK  status: ('A' for Active; 'I' for Inactive)
REMARK    1  A    between atoms: O_2  and  C_3
REMARK    2  A    between atoms: C_4  and  O_5
REMARK    3  A    between atoms: C_8  and  C_9
REMARK    4  A    between atoms: C_9  and  N_10
REMARK    5  A    between atoms: C_11  and  C_13
REMARK    6  A    between atoms: C_13  and  C_14
REMARK    7  A    between atoms: C_19  and  C_20
REMARK    8  A    between atoms: C_20  and  C_21
REMARK    9  A    between atoms: C_24  and  C_26
REMARK                            x       y       z     vdW  Elec       q    Type
REMARK                         _______ _______ _______ _____ _____    ______ ____
ROOT
ATOM     14  C   UNL     1      -3.311  -1.824  24.793  0.00  0.00    +0.012 C 
ATOM     15  C   UNL     1      -3.286  -2.439  24.244  0.00  0.00    +0.019 C 
ATOM     16  C   UNL     1      -3.899  -2.530  23.699  0.00  0.00    +0.089 C 
ATOM     17  N   UNL     1      -4.536  -2.006  23.703  0.00  0.00    -0.218 NA
ATOM     18  C   UNL     1      -4.560  -1.391  24.253  0.00  0.00    +0.089 C 
ATOM     19  C   UNL     1      -3.948  -1.300  24.797  0.00  0.00    +0.024 C 
ENDROOT
BRANCH  14  13
ATOM     13  C   UNL     1      -2.698  -1.734  25.337  0.00  0.00    +0.087 C 
BRANCH  13  11
ATOM     10  N   UNL     1      -1.513  -0.996  25.030  0.00  0.00    -0.201 NA
ATOM     11  C   UNL     1      -1.916  -1.715  25.079  0.00  0.00    +0.242 C 
ATOM     12  O   UNL     1      -1.534  -2.415  24.868  0.00  0.00    -0.273 OA
BRANCH  10   9
ATOM      9  C   UNL     1      -0.730  -0.977  24.771  0.00  0.00    +0.142 C 
BRANCH   9   8
ATOM      3  C   UNL     1       0.313   1.178  24.148  0.00  0.00    +0.172 A 
ATOM      4  C   UNL     1       0.483   0.497  23.715  0.00  0.00    +0.172 A 
ATOM      7  C   UNL     1       0.135  -0.221  23.922  0.00  0.00    +0.037 A 
ATOM      8  C   UNL     1      -0.382  -0.259  24.563  0.00  0.00    +0.003 A 
ATOM     33  C   UNL     1      -0.552   0.422  24.997  0.00  0.00    +0.001 A 
ATOM     34  C   UNL     1      -0.204   1.141  24.790  0.00  0.00    +0.040 A 
BRANCH   3   2
ATOM      1  C   UNL     1       0.414   2.596  24.304  0.00  0.00    +0.253 C 
ATOM      2  O   UNL     1       0.661   1.898  23.941  0.00  0.00    -0.468 OA
ENDBRANCH   3   2
BRANCH   4   5
ATOM      5  O   UNL     1       1.001   0.536  23.073  0.00  0.00    -0.468 OA
ATOM      6  C   UNL     1       1.243  -0.158  22.698  0.00  0.00    +0.253 C 
ENDBRANCH   4   5
ENDBRANCH   9   8
ENDBRANCH  10   9
ENDBRANCH  13  11
ENDBRANCH  14  13
BRANCH  19  20
ATOM     20  C   UNL     1      -3.972  -0.685  25.346  0.00  0.00    +0.051 C 
BRANCH  20  21
ATOM     21  C   UNL     1      -4.313   0.038  25.140  0.00  0.00    +0.101 A 
ATOM     22  N   UNL     1      -5.119   0.184  25.047  0.00  0.00    -0.081 NA
ATOM     23  O   UNL     1      -5.211   0.978  24.841  0.00  0.00    -0.354 OA
ATOM     24  C   UNL     1      -4.462   1.322  24.808  0.00  0.00    +0.177 A 
ATOM     25  C   UNL     1      -3.906   0.741  24.993  0.00  0.00    +0.058 A 
BRANCH  24  26
ATOM     26  C   UNL     1      -4.298   2.110  24.622  0.00  0.00    +0.037 A 
ATOM     27  C   UNL     1      -4.576   2.714  25.109  0.00  0.00    +0.005 A 
ATOM     28  C   UNL     1      -4.411   3.502  24.923  0.00  0.00    +0.030 A 
ATOM     29  C   UNL     1      -3.969   3.682  24.250  0.00  0.00    +0.140 A 
ATOM     30  F   UNL     1      -3.804   4.470  24.065  0.00  0.00    -0.204 F 
ATOM     31  C   UNL     1      -3.691   3.077  23.764  0.00  0.00    +0.030 A 
ATOM     32  C   UNL     1      -3.856   2.290  23.950  0.00  0.00    +0.005 A 
ENDBRANCH  24  26
ENDBRANCH  20  21
ENDBRANCH  19  20
TORSDOF 9
ENDMDL
