REMARK  Name = 
REMARK  5 active torsions:
REMARK  status: ('A' for Active; 'I' for Inactive)
REMARK    1  A    between atoms: C_2  and  C_29
REMARK    2  A    between atoms: C_12  and  N_13
REMARK    3  A    between atoms: N_13  and  S_14
REMARK    4  A    between atoms: S_14  and  C_17
REMARK    5  A    between atoms: C_22  and  C_23
REMARK                            x       y       z     vdW  Elec       q    Type
REMARK                         _______ _______ _______ _____ _____    ______ ____
ROOT
ATOM      1  O   UNL     1       0.481  -3.484   0.000  0.00  0.00    -0.270 OA
ATOM      2  C   UNL     1       0.186  -2.670   0.000  0.00  0.00    +0.249 C 
ATOM      3  N   UNL     1       0.813  -2.091   0.000  0.00  0.00    -0.276 N 
ATOM      4  C   UNL     1       1.629  -1.912   0.000  0.00  0.00    +0.096 C 
ATOM      5  C   UNL     1       1.582  -0.925   0.000  0.00  0.00    +0.043 C 
ATOM      6  C   UNL     1       1.713  -0.121   0.000  0.00  0.00    +0.011 C 
ATOM      7  C   UNL     1       1.163  -0.557   0.000  0.00  0.00    +0.058 C 
ATOM      8  C   UNL     1       1.225  -1.510   0.000  0.00  0.00    +0.099 C 
ATOM      9  C   UNL     1       0.244  -0.558   0.000  0.00  0.00    +0.041 A 
ATOM     10  C   UNL     1      -0.397  -0.039   0.000  0.00  0.00    +0.014 A 
ATOM     11  C   UNL     1      -1.167  -0.335   0.000  0.00  0.00    +0.024 A 
ATOM     12  C   UNL     1      -1.213  -1.232   0.000  0.00  0.00    +0.147 A 
ATOM     25  C   UNL     1      -0.655  -1.669   0.000  0.00  0.00    +0.277 A 
ATOM     26  O   UNL     1      -0.734  -2.711   0.000  0.00  0.00    -0.266 OA
ATOM     27  N   UNL     1       0.115  -1.373   0.000  0.00  0.00    -0.298 N 
ATOM     28  C   UNL     1       0.622  -0.936   0.000  0.00  0.00    +0.110 C 
ENDROOT
BRANCH   2  29
ATOM     29  C   UNL     1      -0.614  -2.179   0.000  0.00  0.00    +0.054 A 
ATOM     30  C   UNL     1      -1.301  -2.635   0.000  0.00  0.00    +0.005 A 
ATOM     31  C   UNL     1      -2.040  -2.267   0.000  0.00  0.00    +0.000 A 
ATOM     32  C   UNL     1      -2.091  -1.444   0.000  0.00  0.00    +0.000 A 
ATOM     33  C   UNL     1      -1.403  -0.988   0.000  0.00  0.00    +0.000 A 
ATOM     34  C   UNL     1      -0.664  -1.356   0.000  0.00  0.00    +0.005 A 
ENDBRANCH   2  29
BRANCH  12  13
ATOM     13  N   UNL     1      -1.905  -1.819   0.000  0.00  0.00    -0.092 NA
BRANCH  13  14
ATOM     14  S   UNL     1      -2.731  -1.095   0.000  0.00  0.00    +0.094 S 
ATOM     15  O   UNL     1      -3.515  -1.524   0.000  0.00  0.00    -0.148 OA
ATOM     16  O   UNL     1      -2.606  -0.213   0.000  0.00  0.00    -0.148 OA
BRANCH  14  17
ATOM     17  C   UNL     1      -3.349  -0.407   0.000  0.00  0.00    +0.137 A 
ATOM     18  C   UNL     1      -4.119  -0.703   0.000  0.00  0.00    +0.021 A 
ATOM     19  C   UNL     1      -4.760  -0.184   0.000  0.00  0.00    +0.001 A 
ATOM     20  C   UNL     1      -4.631   0.631   0.000  0.00  0.00    +0.001 A 
ATOM     21  C   UNL     1      -3.861   0.927   0.000  0.00  0.00    +0.012 A 
ATOM     22  C   UNL     1      -3.220   0.408   0.000  0.00  0.00    +0.087 A 
BRANCH  22  23
ATOM     23  C   UNL     1      -2.449   0.704   0.000  0.00  0.00    +0.102 C 
ATOM     24  N   UNL     1      -1.679   0.999   0.000  0.00  0.00    -0.191 NA
ENDBRANCH  22  23
ENDBRANCH  14  17
ENDBRANCH  13  14
ENDBRANCH  12  13
TORSDOF 5
