REMARK  Name = 
REMARK  5 active torsions:
REMARK  status: ('A' for Active; 'I' for Inactive)
REMARK    1  A    between atoms: N_2  and  C_4
REMARK    2  A    between atoms: C_4  and  C_5
REMARK    3  A    between atoms: N_7  and  C_8
REMARK    4  A    between atoms: N_16  and  C_17
REMARK    5  A    between atoms: C_17  and  C_18
REMARK                            x       y       z     vdW  Elec       q    Type
REMARK                         _______ _______ _______ _____ _____    ______ ____
ROOT
ATOM      8  C   UNL     1      -1.296  -1.150   0.000  0.00  0.00    +0.129 A 
ATOM      9  C   UNL     1      -1.167  -0.335   0.000  0.00  0.00    +0.023 A 
ATOM     10  C   UNL     1      -0.397  -0.039   0.000  0.00  0.00    +0.014 A 
ATOM     11  C   UNL     1       0.244  -0.558   0.000  0.00  0.00    +0.041 A 
ATOM     12  C   UNL     1       1.163  -0.557   0.000  0.00  0.00    +0.054 C 
ATOM     13  C   UNL     1       1.713  -0.121   0.000  0.00  0.00    +0.011 C 
ATOM     14  C   UNL     1       1.582  -0.925   0.000  0.00  0.00    +0.039 C 
ATOM     15  C   UNL     1       1.629  -1.912   0.000  0.00  0.00    +0.074 C 
ATOM     16  N   UNL     1       0.813  -2.091   0.000  0.00  0.00    -0.269 NA
ATOM     28  C   UNL     1       1.225  -1.510   0.000  0.00  0.00    +0.078 C 
ATOM     29  C   UNL     1       0.622  -0.936   0.000  0.00  0.00    +0.110 C 
ATOM     30  N   UNL     1       0.115  -1.373   0.000  0.00  0.00    -0.298 N 
ATOM     31  C   UNL     1      -0.655  -1.669   0.000  0.00  0.00    +0.276 A 
ATOM     32  O   UNL     1      -0.784  -2.484   0.000  0.00  0.00    -0.266 OA
ENDROOT
BRANCH   8   7
ATOM      5  C   UNL     1      -2.195  -2.260   0.000  0.00  0.00    +0.262 C 
ATOM      6  O   UNL     1      -1.554  -2.779   0.000  0.00  0.00    -0.271 OA
ATOM      7  N   UNL     1      -2.066  -1.445   0.000  0.00  0.00    -0.173 NA
BRANCH   5   4
ATOM      4  C   UNL     1      -2.965  -2.556   0.000  0.00  0.00    +0.161 C 
BRANCH   4   2
ATOM      1  C   UNL     1      -3.864  -3.667   0.000  0.00  0.00    +0.090 C 
ATOM      2  N   UNL     1      -3.094  -3.371   0.000  0.00  0.00    -0.263 NA
ATOM      3  C   UNL     1      -2.453  -3.890   0.000  0.00  0.00    +0.090 C 
ENDBRANCH   4   2
ENDBRANCH   5   4
ENDBRANCH   8   7
BRANCH  16  17
ATOM     17  C   UNL     1       0.125  -2.547   0.000  0.00  0.00    +0.101 C 
BRANCH  17  18
ATOM     18  C   UNL     1       0.176  -3.370   0.000  0.00  0.00    +0.012 A 
ATOM     19  C   UNL     1      -0.461  -3.896   0.000  0.00  0.00    +0.073 A 
ATOM     20  N   UNL     1      -0.158  -4.663   0.000  0.00  0.00    -0.324 N 
ATOM     21  C   UNL     1      -0.601  -5.359   0.000  0.00  0.00    +0.130 C 
ATOM     22  C   UNL     1       0.665  -4.612   0.000  0.00  0.00    +0.060 A 
ATOM     23  C   UNL     1       0.872  -3.813   0.000  0.00  0.00    +0.015 A 
ATOM     24  C   UNL     1       1.667  -3.593   0.000  0.00  0.00    +0.001 A 
ATOM     25  C   UNL     1       2.255  -4.171   0.000  0.00  0.00    +0.000 A 
ATOM     26  C   UNL     1       2.049  -4.970   0.000  0.00  0.00    +0.001 A 
ATOM     27  C   UNL     1       1.254  -5.190   0.000  0.00  0.00    +0.017 A 
ENDBRANCH  17  18
ENDBRANCH  16  17
TORSDOF 5
