MODEL 1
REMARK VINA RESULT:     -13.2      0.000      0.000
REMARK  Name = 
REMARK  5 active torsions:
REMARK  status: ('A' for Active; 'I' for Inactive)
REMARK    1  A    between atoms: C_7  and  N_10
REMARK    2  A    between atoms: C_14  and  C_15
REMARK    3  A    between atoms: C_17  and  C_20
REMARK    4  A    between atoms: C_23  and  O_24
REMARK    5  A    between atoms: O_24  and  C_25
REMARK                            x       y       z     vdW  Elec       q    Type
REMARK                         _______ _______ _______ _____ _____    ______ ____
ROOT
ATOM     15  C   UNL     1      -1.119   3.028  25.448  0.00  0.00    +0.251 A 
ATOM     16  N   UNL     1      -1.300   2.373  24.980  0.00  0.00    -0.190 NA
ATOM     17  C   UNL     1      -1.182   1.694  25.432  0.00  0.00    +0.205 A 
ATOM     18  N   UNL     1      -0.928   1.928  26.181  0.00  0.00    -0.056 NA
ATOM     19  O   UNL     1      -0.889   2.752  26.192  0.00  0.00    -0.336 OA
ENDROOT
BRANCH  17  20
ATOM     20  C   UNL     1      -1.297   0.917  25.181  0.00  0.00    +0.058 A 
ATOM     21  C   UNL     1      -1.345   0.307  25.735  0.00  0.00    +0.010 A 
ATOM     22  C   UNL     1      -1.460  -0.470  25.485  0.00  0.00    +0.058 A 
ATOM     23  C   UNL     1      -1.528  -0.638  24.681  0.00  0.00    +0.225 A 
ATOM     31  N   UNL     1      -1.481  -0.030  24.126  0.00  0.00    -0.210 NA
ATOM     32  C   UNL     1      -1.365   0.748  24.376  0.00  0.00    +0.105 A 
BRANCH  23  24
ATOM     24  O   UNL     1      -1.644  -1.416  24.430  0.00  0.00    -0.464 OA
BRANCH  24  25
ATOM     25  C   UNL     1      -2.396  -1.753  24.464  0.00  0.00    +0.168 C 
ATOM     26  C   UNL     1      -2.986  -1.497  23.947  0.00  0.00    +0.044 C 
ATOM     27  C   UNL     1      -3.738  -1.834  23.980  0.00  0.00    +0.004 C 
ATOM     28  C   UNL     1      -3.900  -2.427  24.531  0.00  0.00    +0.000 C 
ATOM     29  C   UNL     1      -3.310  -2.683  25.048  0.00  0.00    +0.004 C 
ATOM     30  C   UNL     1      -2.558  -2.346  25.014  0.00  0.00    +0.044 C 
ENDBRANCH  24  25
ENDBRANCH  23  24
ENDBRANCH  17  20
BRANCH  15  14
ATOM     10  N   UNL     1      -1.849   4.268  25.148  0.00  0.00    -0.268 NA
ATOM     11  C   UNL     1      -1.634   5.025  24.902  0.00  0.00    +0.072 C 
ATOM     12  C   UNL     1      -0.813   5.043  24.817  0.00  0.00    +0.019 C 
ATOM     13  C   UNL     1      -0.521   4.296  25.011  0.00  0.00    +0.027 C 
ATOM     14  C   UNL     1      -1.161   3.817  25.217  0.00  0.00    +0.138 C 
BRANCH  10   7
ATOM      1  C   UNL     1      -5.381   2.922  25.144  0.00  0.00    +0.095 C 
ATOM      2  C   UNL     1      -4.920   3.224  25.757  0.00  0.00    +0.226 C 
ATOM      3  O   UNL     1      -5.225   3.266  26.522  0.00  0.00    -0.275 OA
ATOM      4  N   UNL     1      -4.151   3.486  25.605  0.00  0.00    -0.279 N 
ATOM      5  C   UNL     1      -3.689   3.788  26.217  0.00  0.00    +0.095 C 
ATOM      6  C   UNL     1      -2.922   4.049  26.065  0.00  0.00    +0.038 C 
ATOM      7  C   UNL     1      -2.616   4.008  25.300  0.00  0.00    +0.061 C 
ATOM      8  C   UNL     1      -3.078   3.705  24.687  0.00  0.00    +0.038 C 
ATOM      9  C   UNL     1      -3.846   3.444  24.839  0.00  0.00    +0.095 C 
ENDBRANCH  10   7
ENDBRANCH  15  14
TORSDOF 5
ENDMDL
MODEL 2
REMARK VINA RESULT:     -12.3      1.622      3.041
REMARK  Name = 
REMARK  5 active torsions:
REMARK  status: ('A' for Active; 'I' for Inactive)
REMARK    1  A    between atoms: C_7  and  N_10
REMARK    2  A    between atoms: C_14  and  C_15
REMARK    3  A    between atoms: C_17  and  C_20
REMARK    4  A    between atoms: C_23  and  O_24
REMARK    5  A    between atoms: O_24  and  C_25
REMARK                            x       y       z     vdW  Elec       q    Type
REMARK                         _______ _______ _______ _____ _____    ______ ____
ROOT
ATOM     15  C   UNL     1      -3.239   3.124  24.782  0.00  0.00    +0.251 A 
ATOM     16  N   UNL     1      -3.419   2.351  25.007  0.00  0.00    -0.190 NA
ATOM     17  C   UNL     1      -3.670   1.941  24.337  0.00  0.00    +0.205 A 
ATOM     18  N   UNL     1      -3.646   2.461  23.697  0.00  0.00    -0.056 NA
ATOM     19  O   UNL     1      -3.379   3.191  23.971  0.00  0.00    -0.336 OA
ENDROOT
BRANCH  17  20
ATOM     20  C   UNL     1      -3.905   1.150  24.311  0.00  0.00    +0.058 A 
ATOM     21  C   UNL     1      -4.468   0.870  24.844  0.00  0.00    +0.010 A 
ATOM     22  C   UNL     1      -4.703   0.080  24.819  0.00  0.00    +0.058 A 
ATOM     23  C   UNL     1      -4.375  -0.430  24.259  0.00  0.00    +0.225 A 
ATOM     31  N   UNL     1      -3.812  -0.150  23.726  0.00  0.00    -0.210 NA
ATOM     32  C   UNL     1      -3.577   0.640  23.751  0.00  0.00    +0.105 A 
BRANCH  23  24
ATOM     24  O   UNL     1      -4.611  -1.221  24.234  0.00  0.00    -0.464 OA
BRANCH  24  25
ATOM     25  C   UNL     1      -4.079  -1.816  24.442  0.00  0.00    +0.168 C 
ATOM     26  C   UNL     1      -3.779  -1.851  25.210  0.00  0.00    +0.044 C 
ATOM     27  C   UNL     1      -3.248  -2.447  25.418  0.00  0.00    +0.004 C 
ATOM     28  C   UNL     1      -3.017  -3.008  24.859  0.00  0.00    +0.000 C 
ATOM     29  C   UNL     1      -3.317  -2.973  24.091  0.00  0.00    +0.004 C 
ATOM     30  C   UNL     1      -3.849  -2.377  23.882  0.00  0.00    +0.044 C 
ENDBRANCH  24  25
ENDBRANCH  23  24
ENDBRANCH  17  20
BRANCH  15  14
ATOM     10  N   UNL     1      -2.182   3.853  25.498  0.00  0.00    -0.268 NA
ATOM     11  C   UNL     1      -2.162   4.509  25.997  0.00  0.00    +0.072 C 
ATOM     12  C   UNL     1      -2.935   4.785  26.086  0.00  0.00    +0.019 C 
ATOM     13  C   UNL     1      -3.432   4.300  25.641  0.00  0.00    +0.027 C 
ATOM     14  C   UNL     1      -2.967   3.723  25.277  0.00  0.00    +0.138 C 
BRANCH  10   7
ATOM      1  C   UNL     1       0.783   2.212  23.822  0.00  0.00    +0.095 C 
ATOM      2  C   UNL     1       0.420   2.060  24.547  0.00  0.00    +0.226 C 
ATOM      3  O   UNL     1       0.707   1.460  25.034  0.00  0.00    -0.275 OA
ATOM      4  N   UNL     1      -0.231   2.508  24.785  0.00  0.00    -0.279 N 
ATOM      5  C   UNL     1      -0.594   2.356  25.510  0.00  0.00    +0.095 C 
ATOM      6  C   UNL     1      -1.244   2.804  25.747  0.00  0.00    +0.038 C 
ATOM      7  C   UNL     1      -1.532   3.405  25.260  0.00  0.00    +0.061 C 
ATOM      8  C   UNL     1      -1.168   3.557  24.535  0.00  0.00    +0.038 C 
ATOM      9  C   UNL     1      -0.518   3.109  24.297  0.00  0.00    +0.095 C 
ENDBRANCH  10   7
ENDBRANCH  15  14
TORSDOF 5
ENDMDL
MODEL 3
REMARK VINA RESULT:     -11.5      1.465      3.030
REMARK  Name = 
REMARK  5 active torsions:
REMARK  status: ('A' for Active; 'I' for Inactive)
REMARK    1  A    between atoms: C_7  and  N_10
REMARK    2  A    between atoms: C_14  and  C_15
REMARK    3  A    between atoms: C_17  and  C_20
REMARK    4  A    between atoms: C_23  and  O_24
REMARK    5  A    between atoms: O_24  and  C_25
REMARK                            x       y       z     vdW  Elec       q    Type
REMARK                         _______ _______ _______ _____ _____    ______ ____
ROOT
ATOM     15  C   UNL     1      -4.643   2.454  24.827  0.00  0.00    +0.251 A 
ATOM     16  N   UNL     1      -4.548   1.722  25.195  0.00  0.00    -0.190 NA
ATOM     17  C   UNL     1      -4.276   1.185  24.633  0.00  0.00    +0.205 A 
ATOM     18  N   UNL     1      -4.202   1.584  23.914  0.00  0.00    -0.056 NA
ATOM     19  O   UNL     1      -4.429   2.368  24.034  0.00  0.00    -0.336 OA
ENDROOT
BRANCH  17  20
ATOM     20  C   UNL     1      -4.107   0.388  24.763  0.00  0.00    +0.058 A 
ATOM     21  C   UNL     1      -4.396  -0.185  24.244  0.00  0.00    +0.010 A 
ATOM     22  C   UNL     1      -4.227  -0.982  24.373  0.00  0.00    +0.058 A 
ATOM     23  C   UNL     1      -3.769  -1.206  25.022  0.00  0.00    +0.225 A 
ATOM     31  N   UNL     1      -3.480  -0.634  25.541  0.00  0.00    -0.210 NA
ATOM     32  C   UNL     1      -3.649   0.163  25.411  0.00  0.00    +0.105 A 
BRANCH  23  24
ATOM     24  O   UNL     1      -3.600  -2.004  25.151  0.00  0.00    -0.464 OA
BRANCH  24  25
ATOM     25  C   UNL     1      -2.917  -2.338  24.833  0.00  0.00    +0.168 C 
ATOM     26  C   UNL     1      -2.970  -2.850  24.188  0.00  0.00    +0.044 C 
ATOM     27  C   UNL     1      -2.286  -3.184  23.869  0.00  0.00    +0.004 C 
ATOM     28  C   UNL     1      -1.549  -3.006  24.196  0.00  0.00    +0.000 C 
ATOM     29  C   UNL     1      -1.497  -2.493  24.841  0.00  0.00    +0.004 C 
ATOM     30  C   UNL     1      -2.180  -2.159  25.159  0.00  0.00    +0.044 C 
ENDBRANCH  24  25
ENDBRANCH  23  24
ENDBRANCH  17  20
BRANCH  15  14
ATOM     10  N   UNL     1      -4.430   3.769  25.448  0.00  0.00    -0.268 NA
ATOM     11  C   UNL     1      -4.921   4.348  25.769  0.00  0.00    +0.072 C 
ATOM     12  C   UNL     1      -5.701   4.086  25.705  0.00  0.00    +0.019 C 
ATOM     13  C   UNL     1      -5.691   3.344  25.344  0.00  0.00    +0.027 C 
ATOM     14  C   UNL     1      -4.905   3.148  25.185  0.00  0.00    +0.138 C 
BRANCH  10   7
ATOM      1  C   UNL     1      -0.779   4.193  24.565  0.00  0.00    +0.095 C 
ATOM      2  C   UNL     1      -1.138   3.907  25.250  0.00  0.00    +0.226 C 
ATOM      3  O   UNL     1      -0.677   3.657  25.885  0.00  0.00    -0.275 OA
ATOM      4  N   UNL     1      -1.962   3.873  25.300  0.00  0.00    -0.279 N 
ATOM      5  C   UNL     1      -2.322   3.587  25.984  0.00  0.00    +0.095 C 
ATOM      6  C   UNL     1      -3.145   3.553  26.034  0.00  0.00    +0.038 C 
ATOM      7  C   UNL     1      -3.608   3.803  25.399  0.00  0.00    +0.061 C 
ATOM      8  C   UNL     1      -3.247   4.089  24.713  0.00  0.00    +0.038 C 
ATOM      9  C   UNL     1      -2.424   4.124  24.664  0.00  0.00    +0.095 C 
ENDBRANCH  10   7
ENDBRANCH  15  14
TORSDOF 5
ENDMDL
MODEL 4
REMARK VINA RESULT:     -11.1      1.675      5.719
REMARK  Name = 
REMARK  5 active torsions:
REMARK  status: ('A' for Active; 'I' for Inactive)
REMARK    1  A    between atoms: C_7  and  N_10
REMARK    2  A    between atoms: C_14  and  C_15
REMARK    3  A    between atoms: C_17  and  C_20
REMARK    4  A    between atoms: C_23  and  O_24
REMARK    5  A    between atoms: O_24  and  C_25
REMARK                            x       y       z     vdW  Elec       q    Type
REMARK                         _______ _______ _______ _____ _____    ______ ____
ROOT
ATOM     15  C   UNL     1      -3.539  -1.232  24.373  0.00  0.00    +0.251 A 
ATOM     16  N   UNL     1      -3.551  -0.493  24.738  0.00  0.00    -0.190 NA
ATOM     17  C   UNL     1      -3.879   0.048  24.210  0.00  0.00    +0.205 A 
ATOM     18  N   UNL     1      -4.071  -0.357  23.516  0.00  0.00    -0.056 NA
ATOM     19  O   UNL     1      -3.861  -1.148  23.617  0.00  0.00    -0.336 OA
ENDROOT
BRANCH  17  20
ATOM     20  C   UNL     1      -3.996   0.853  24.348  0.00  0.00    +0.058 A 
ATOM     21  C   UNL     1      -4.483   1.098  24.968  0.00  0.00    +0.010 A 
ATOM     22  C   UNL     1      -4.600   1.902  25.108  0.00  0.00    +0.058 A 
ATOM     23  C   UNL     1      -4.232   2.462  24.627  0.00  0.00    +0.225 A 
ATOM     31  N   UNL     1      -3.746   2.218  24.007  0.00  0.00    -0.210 NA
ATOM     32  C   UNL     1      -3.628   1.413  23.868  0.00  0.00    +0.105 A 
BRANCH  23  24
ATOM     24  O   UNL     1      -4.349   3.267  24.767  0.00  0.00    -0.464 OA
BRANCH  24  25
ATOM     25  C   UNL     1      -3.761   3.712  25.136  0.00  0.00    +0.168 C 
ATOM     26  C   UNL     1      -3.176   4.078  24.684  0.00  0.00    +0.044 C 
ATOM     27  C   UNL     1      -2.587   4.523  25.053  0.00  0.00    +0.004 C 
ATOM     28  C   UNL     1      -2.584   4.602  25.874  0.00  0.00    +0.000 C 
ATOM     29  C   UNL     1      -3.169   4.235  26.327  0.00  0.00    +0.004 C 
ATOM     30  C   UNL     1      -3.758   3.790  25.957  0.00  0.00    +0.044 C 
ENDBRANCH  24  25
ENDBRANCH  23  24
ENDBRANCH  17  20
BRANCH  15  14
ATOM     10  N   UNL     1      -2.463  -2.132  24.814  0.00  0.00    -0.268 NA
ATOM     11  C   UNL     1      -2.435  -2.880  25.160  0.00  0.00    +0.072 C 
ATOM     12  C   UNL     1      -3.210  -3.144  25.263  0.00  0.00    +0.019 C 
ATOM     13  C   UNL     1      -3.718  -2.558  24.980  0.00  0.00    +0.027 C 
ATOM     14  C   UNL     1      -3.257  -1.933  24.703  0.00  0.00    +0.138 C 
BRANCH  10   7
ATOM      1  C   UNL     1       0.471  -0.324  23.261  0.00  0.00    +0.095 C 
ATOM      2  C   UNL     1       0.136  -0.263  24.013  0.00  0.00    +0.226 C 
ATOM      3  O   UNL     1       0.450   0.263  24.564  0.00  0.00    -0.275 OA
ATOM      4  N   UNL     1      -0.515  -0.731  24.213  0.00  0.00    -0.279 N 
ATOM      5  C   UNL     1      -0.850  -0.671  24.964  0.00  0.00    +0.095 C 
ATOM      6  C   UNL     1      -1.499  -1.138  25.164  0.00  0.00    +0.038 C 
ATOM      7  C   UNL     1      -1.814  -1.665  24.614  0.00  0.00    +0.061 C 
ATOM      8  C   UNL     1      -1.479  -1.725  23.862  0.00  0.00    +0.038 C 
ATOM      9  C   UNL     1      -0.829  -1.258  23.661  0.00  0.00    +0.095 C 
ENDBRANCH  10   7
ENDBRANCH  15  14
TORSDOF 5
ENDMDL
MODEL 5
REMARK VINA RESULT:     -10.8      1.443      4.763
REMARK  Name = 
REMARK  5 active torsions:
REMARK  status: ('A' for Active; 'I' for Inactive)
REMARK    1  A    between atoms: C_7  and  N_10
REMARK    2  A    between atoms: C_14  and  C_15
REMARK    3  A    between atoms: C_17  and  C_20
REMARK    4  A    between atoms: C_23  and  O_24
REMARK    5  A    between atoms: O_24  and  C_25
REMARK                            x       y       z     vdW  Elec       q    Type
REMARK                         _______ _______ _______ _____ _____    ______ ____
ROOT
ATOM     15  C   UNL     1      -2.168  -1.034  25.100  0.00  0.00    +0.251 A 
ATOM     16  N   UNL     1      -1.897  -0.311  24.808  0.00  0.00    -0.190 NA
ATOM     17  C   UNL     1      -1.395   0.021  25.371  0.00  0.00    +0.205 A 
ATOM     18  N   UNL     1      -1.355  -0.497  26.013  0.00  0.00    -0.056 NA
ATOM     19  O   UNL     1      -1.833  -1.148  25.846  0.00  0.00    -0.336 OA
ENDROOT
BRANCH  17  20
ATOM     20  C   UNL     1      -1.001   0.743  25.306  0.00  0.00    +0.058 A 
ATOM     21  C   UNL     1      -0.965   1.252  25.954  0.00  0.00    +0.010 A 
ATOM     22  C   UNL     1      -0.572   1.974  25.890  0.00  0.00    +0.058 A 
ATOM     23  C   UNL     1      -0.214   2.187  25.178  0.00  0.00    +0.225 A 
ATOM     31  N   UNL     1      -0.250   1.678  24.530  0.00  0.00    -0.210 NA
ATOM     32  C   UNL     1      -0.644   0.955  24.594  0.00  0.00    +0.105 A 
BRANCH  23  24
ATOM     24  O   UNL     1       0.180   2.909  25.114  0.00  0.00    -0.464 OA
BRANCH  24  25
ATOM     25  C   UNL     1      -0.245   3.597  24.949  0.00  0.00    +0.168 C 
ATOM     26  C   UNL     1      -0.727   3.933  25.528  0.00  0.00    +0.044 C 
ATOM     27  C   UNL     1      -1.152   4.621  25.363  0.00  0.00    +0.004 C 
ATOM     28  C   UNL     1      -1.094   4.973  24.619  0.00  0.00    +0.000 C 
ATOM     29  C   UNL     1      -0.611   4.637  24.039  0.00  0.00    +0.004 C 
ATOM     30  C   UNL     1      -0.187   3.949  24.204  0.00  0.00    +0.044 C 
ENDBRANCH  24  25
ENDBRANCH  23  24
ENDBRANCH  17  20
BRANCH  15  14
ATOM     10  N   UNL     1      -3.468  -1.394  24.515  0.00  0.00    -0.268 NA
ATOM     11  C   UNL     1      -3.773  -2.063  24.141  0.00  0.00    +0.072 C 
ATOM     12  C   UNL     1      -3.177  -2.633  24.110  0.00  0.00    +0.019 C 
ATOM     13  C   UNL     1      -2.503  -2.316  24.466  0.00  0.00    +0.027 C 
ATOM     14  C   UNL     1      -2.683  -1.551  24.717  0.00  0.00    +0.138 C 
BRANCH  10   7
ATOM      1  C   UNL     1      -5.149   1.992  24.520  0.00  0.00    +0.095 C 
ATOM      2  C   UNL     1      -5.099   1.413  25.106  0.00  0.00    +0.226 C 
ATOM      3  O   UNL     1      -5.457   1.536  25.839  0.00  0.00    -0.275 OA
ATOM      4  N   UNL     1      -4.691   0.710  24.958  0.00  0.00    -0.279 N 
ATOM      5  C   UNL     1      -4.641   0.132  25.543  0.00  0.00    +0.095 C 
ATOM      6  C   UNL     1      -4.233  -0.570  25.396  0.00  0.00    +0.038 C 
ATOM      7  C   UNL     1      -3.875  -0.693  24.663  0.00  0.00    +0.061 C 
ATOM      8  C   UNL     1      -3.926  -0.114  24.077  0.00  0.00    +0.038 C 
ATOM      9  C   UNL     1      -4.333   0.588  24.225  0.00  0.00    +0.095 C 
ENDBRANCH  10   7
ENDBRANCH  15  14
TORSDOF 5
ENDMDL
