MODEL 1
REMARK VINA RESULT:     -11.5      0.000      0.000
REMARK  Name = 
REMARK  6 active torsions:
REMARK  status: ('A' for Active; 'I' for Inactive)
REMARK    1  A    between atoms: C_2  and  C_3
REMARK    2  A    between atoms: C_3  and  S_4
REMARK    3  A    between atoms: S_4  and  N_7
REMARK    4  A    between atoms: N_7  and  C_8
REMARK    5  A    between atoms: C_10  and  C_14
REMARK    6  A    between atoms: C_16  and  C_19
REMARK                            x       y       z     vdW  Elec       q    Type
REMARK                         _______ _______ _______ _____ _____    ______ ____
ROOT
ATOM      8  C   UNL     1      -3.817   3.166  25.416  0.00  0.00    +0.115 C 
ATOM      9  C   UNL     1      -3.470   2.510  25.054  0.00  0.00    +0.046 C 
ATOM     10  C   UNL     1      -4.071   1.976  24.868  0.00  0.00    +0.139 C 
ATOM     11  N   UNL     1      -4.788   2.302  25.114  0.00  0.00    -0.264 NA
ATOM     12  C   UNL     1      -5.531   1.954  25.035  0.00  0.00    +0.090 C 
ATOM     13  C   UNL     1      -4.630   3.038  25.453  0.00  0.00    +0.092 C 
ENDROOT
BRANCH  10  14
ATOM     14  C   UNL     1      -3.971   1.244  24.500  0.00  0.00    +0.251 A 
ATOM     15  N   UNL     1      -3.913   0.514  24.879  0.00  0.00    -0.190 NA
ATOM     16  C   UNL     1      -3.819  -0.067  24.301  0.00  0.00    +0.203 A 
ATOM     17  N   UNL     1      -3.818   0.304  23.564  0.00  0.00    -0.056 NA
ATOM     18  O   UNL     1      -3.913   1.115  23.686  0.00  0.00    -0.336 OA
BRANCH  16  19
ATOM     19  C   UNL     1      -3.738  -0.877  24.436  0.00  0.00    +0.039 A 
ATOM     20  C   UNL     1      -3.310  -1.146  25.087  0.00  0.00    +0.003 A 
ATOM     21  C   UNL     1      -3.230  -1.956  25.222  0.00  0.00    -0.004 A 
ATOM     22  C   UNL     1      -3.578  -2.497  24.705  0.00  0.00    -0.022 A 
ATOM     23  C   UNL     1      -3.498  -3.306  24.840  0.00  0.00    +0.031 C 
ATOM     24  C   UNL     1      -4.006  -2.228  24.054  0.00  0.00    -0.004 A 
ATOM     25  C   UNL     1      -4.086  -1.418  23.919  0.00  0.00    +0.003 A 
ENDBRANCH  16  19
ENDBRANCH  10  14
BRANCH   8   7
ATOM      7  N   UNL     1      -3.418   3.833  25.692  0.00  0.00    -0.082 NA
BRANCH   7   4
ATOM      4  S   UNL     1      -2.666   4.013  25.405  0.00  0.00    +0.057 S 
ATOM      5  O   UNL     1      -2.331   3.687  26.084  0.00  0.00    -0.156 OA
ATOM      6  O   UNL     1      -3.003   4.340  24.727  0.00  0.00    -0.156 OA
BRANCH   4   3
ATOM      3  C   UNL     1      -1.914   4.193  25.120  0.00  0.00    +0.171 C 
BRANCH   3   2
ATOM      1  C   UNL     1      -0.860   5.140  24.930  0.00  0.00    +0.002 C 
ATOM      2  C   UNL     1      -1.575   4.927  25.284  0.00  0.00    +0.027 C 
ENDBRANCH   3   2
ENDBRANCH   4   3
ENDBRANCH   7   4
ENDBRANCH   8   7
TORSDOF 6
ENDMDL
MODEL 2
REMARK VINA RESULT:     -11.2      2.583      5.810
REMARK  Name = 
REMARK  6 active torsions:
REMARK  status: ('A' for Active; 'I' for Inactive)
REMARK    1  A    between atoms: C_2  and  C_3
REMARK    2  A    between atoms: C_3  and  S_4
REMARK    3  A    between atoms: S_4  and  N_7
REMARK    4  A    between atoms: N_7  and  C_8
REMARK    5  A    between atoms: C_10  and  C_14
REMARK    6  A    between atoms: C_16  and  C_19
REMARK                            x       y       z     vdW  Elec       q    Type
REMARK                         _______ _______ _______ _____ _____    ______ ____
ROOT
ATOM      8  C   UNL     1      -1.402  -0.787  25.131  0.00  0.00    +0.115 C 
ATOM      9  C   UNL     1      -1.457  -0.073  25.540  0.00  0.00    +0.046 C 
ATOM     10  C   UNL     1      -0.919   0.455  25.204  0.00  0.00    +0.139 C 
ATOM     11  N   UNL     1      -0.532   0.067  24.588  0.00  0.00    -0.264 NA
ATOM     12  C   UNL     1       0.051   0.389  24.102  0.00  0.00    +0.090 C 
ATOM     13  C   UNL     1      -0.831  -0.701  24.542  0.00  0.00    +0.092 C 
ENDROOT
BRANCH  10  14
ATOM     14  C   UNL     1      -0.790   1.234  25.443  0.00  0.00    +0.251 A 
ATOM     15  N   UNL     1      -1.198   1.898  25.173  0.00  0.00    -0.190 NA
ATOM     16  C   UNL     1      -0.891   2.560  25.558  0.00  0.00    +0.203 A 
ATOM     17  N   UNL     1      -0.293   2.306  26.066  0.00  0.00    -0.056 NA
ATOM     18  O   UNL     1      -0.231   1.485  25.995  0.00  0.00    -0.336 OA
BRANCH  16  19
ATOM     19  C   UNL     1      -1.138   3.341  25.453  0.00  0.00    +0.039 A 
ATOM     20  C   UNL     1      -0.650   3.879  25.063  0.00  0.00    +0.003 A 
ATOM     21  C   UNL     1      -0.897   4.658  24.958  0.00  0.00    -0.004 A 
ATOM     22  C   UNL     1      -1.633   4.900  25.243  0.00  0.00    -0.022 A 
ATOM     23  C   UNL     1      -1.880   5.680  25.138  0.00  0.00    +0.031 C 
ATOM     24  C   UNL     1      -2.121   4.362  25.633  0.00  0.00    -0.004 A 
ATOM     25  C   UNL     1      -1.874   3.582  25.738  0.00  0.00    +0.003 A 
ENDBRANCH  16  19
ENDBRANCH  10  14
BRANCH   8   7
ATOM      7  N   UNL     1      -1.843  -1.467  25.283  0.00  0.00    -0.082 NA
BRANCH   7   4
ATOM      4  S   UNL     1      -2.530  -1.620  24.854  0.00  0.00    +0.057 S 
ATOM      5  O   UNL     1      -2.965  -1.174  25.395  0.00  0.00    -0.156 OA
ATOM      6  O   UNL     1      -2.095  -2.065  24.314  0.00  0.00    -0.156 OA
BRANCH   4   3
ATOM      3  C   UNL     1      -3.218  -1.771  24.426  0.00  0.00    +0.171 C 
BRANCH   3   2
ATOM      1  C   UNL     1      -4.215  -2.690  23.971  0.00  0.00    +0.002 C 
ATOM      2  C   UNL     1      -3.553  -2.525  24.436  0.00  0.00    +0.027 C 
ENDBRANCH   3   2
ENDBRANCH   4   3
ENDBRANCH   7   4
ENDBRANCH   8   7
TORSDOF 6
ENDMDL
MODEL 3
REMARK VINA RESULT:     -11.0      2.250      2.797
REMARK  Name = 
REMARK  6 active torsions:
REMARK  status: ('A' for Active; 'I' for Inactive)
REMARK    1  A    between atoms: C_2  and  C_3
REMARK    2  A    between atoms: C_3  and  S_4
REMARK    3  A    between atoms: S_4  and  N_7
REMARK    4  A    between atoms: N_7  and  C_8
REMARK    5  A    between atoms: C_10  and  C_14
REMARK    6  A    between atoms: C_16  and  C_19
REMARK                            x       y       z     vdW  Elec       q    Type
REMARK                         _______ _______ _______ _____ _____    ______ ____
ROOT
ATOM      8  C   UNL     1      -0.307   2.092  25.186  0.00  0.00    +0.115 C 
ATOM      9  C   UNL     1      -0.841   1.541  25.488  0.00  0.00    +0.046 C 
ATOM     10  C   UNL     1      -0.764   0.846  25.050  0.00  0.00    +0.139 C 
ATOM     11  N   UNL     1      -0.183   0.968  24.478  0.00  0.00    -0.264 NA
ATOM     12  C   UNL     1       0.072   0.417  23.920  0.00  0.00    +0.090 C 
ATOM     13  C   UNL     1       0.100   1.739  24.563  0.00  0.00    +0.092 C 
ENDROOT
BRANCH  10  14
ATOM     14  C   UNL     1      -1.194   0.151  25.164  0.00  0.00    +0.251 A 
ATOM     15  N   UNL     1      -1.817  -0.117  24.695  0.00  0.00    -0.190 NA
ATOM     16  C   UNL     1      -2.084  -0.832  25.009  0.00  0.00    +0.203 A 
ATOM     17  N   UNL     1      -1.625  -1.006  25.672  0.00  0.00    -0.056 NA
ATOM     18  O   UNL     1      -1.075  -0.399  25.768  0.00  0.00    -0.336 OA
BRANCH  16  19
ATOM     19  C   UNL     1      -2.701  -1.292  24.712  0.00  0.00    +0.039 A 
ATOM     20  C   UNL     1      -2.640  -2.115  24.713  0.00  0.00    +0.003 A 
ATOM     21  C   UNL     1      -3.257  -2.574  24.416  0.00  0.00    -0.004 A 
ATOM     22  C   UNL     1      -3.935  -2.212  24.118  0.00  0.00    -0.022 A 
ATOM     23  C   UNL     1      -4.552  -2.671  23.820  0.00  0.00    +0.031 C 
ATOM     24  C   UNL     1      -3.996  -1.389  24.116  0.00  0.00    -0.004 A 
ATOM     25  C   UNL     1      -3.379  -0.929  24.414  0.00  0.00    +0.003 A 
ENDBRANCH  16  19
ENDBRANCH  10  14
BRANCH   8   7
ATOM      7  N   UNL     1      -0.199   2.862  25.461  0.00  0.00    -0.082 NA
BRANCH   7   4
ATOM      4  S   UNL     1      -0.752   3.447  25.279  0.00  0.00    +0.057 S 
ATOM      5  O   UNL     1      -1.134   3.307  25.996  0.00  0.00    -0.156 OA
ATOM      6  O   UNL     1      -0.369   3.587  24.562  0.00  0.00    -0.156 OA
BRANCH   4   3
ATOM      3  C   UNL     1      -1.305   4.031  25.098  0.00  0.00    +0.171 C 
BRANCH   3   2
ATOM      1  C   UNL     1      -1.665   5.415  25.100  0.00  0.00    +0.002 C 
ATOM      2  C   UNL     1      -1.086   4.826  25.119  0.00  0.00    +0.027 C 
ENDBRANCH   3   2
ENDBRANCH   4   3
ENDBRANCH   7   4
ENDBRANCH   8   7
TORSDOF 6
ENDMDL
MODEL 4
REMARK VINA RESULT:     -10.1      1.638      5.006
REMARK  Name = 
REMARK  6 active torsions:
REMARK  status: ('A' for Active; 'I' for Inactive)
REMARK    1  A    between atoms: C_2  and  C_3
REMARK    2  A    between atoms: C_3  and  S_4
REMARK    3  A    between atoms: S_4  and  N_7
REMARK    4  A    between atoms: N_7  and  C_8
REMARK    5  A    between atoms: C_10  and  C_14
REMARK    6  A    between atoms: C_16  and  C_19
REMARK                            x       y       z     vdW  Elec       q    Type
REMARK                         _______ _______ _______ _____ _____    ______ ____
ROOT
ATOM      8  C   UNL     1      -4.450   0.001  24.699  0.00  0.00    +0.115 C 
ATOM      9  C   UNL     1      -3.948   0.587  24.406  0.00  0.00    +0.046 C 
ATOM     10  C   UNL     1      -4.228   1.316  24.672  0.00  0.00    +0.139 C 
ATOM     11  N   UNL     1      -4.901   1.181  25.128  0.00  0.00    -0.264 NA
ATOM     12  C   UNL     1      -5.358   1.757  25.502  0.00  0.00    +0.090 C 
ATOM     13  C   UNL     1      -5.039   0.367  25.145  0.00  0.00    +0.092 C 
ENDROOT
BRANCH  10  14
ATOM     14  C   UNL     1      -3.892   2.052  24.509  0.00  0.00    +0.251 A 
ATOM     15  N   UNL     1      -3.183   2.340  24.816  0.00  0.00    -0.190 NA
ATOM     16  C   UNL     1      -3.059   3.096  24.507  0.00  0.00    +0.203 A 
ATOM     17  N   UNL     1      -3.692   3.274  24.009  0.00  0.00    -0.056 NA
ATOM     18  O   UNL     1      -4.207   2.629  24.010  0.00  0.00    -0.336 OA
BRANCH  16  19
ATOM     19  C   UNL     1      -2.415   3.586  24.669  0.00  0.00    +0.039 A 
ATOM     20  C   UNL     1      -2.528   4.292  25.080  0.00  0.00    +0.003 A 
ATOM     21  C   UNL     1      -1.885   4.782  25.241  0.00  0.00    -0.004 A 
ATOM     22  C   UNL     1      -1.128   4.567  24.991  0.00  0.00    -0.022 A 
ATOM     23  C   UNL     1      -0.485   5.057  25.152  0.00  0.00    +0.031 C 
ATOM     24  C   UNL     1      -1.016   3.861  24.579  0.00  0.00    -0.004 A 
ATOM     25  C   UNL     1      -1.660   3.370  24.418  0.00  0.00    +0.003 A 
ENDBRANCH  16  19
ENDBRANCH  10  14
BRANCH   8   7
ATOM      7  N   UNL     1      -4.375  -0.810  24.569  0.00  0.00    -0.082 NA
BRANCH   7   4
ATOM      4  S   UNL     1      -3.641  -1.176  24.652  0.00  0.00    +0.057 S 
ATOM      5  O   UNL     1      -3.520  -1.116  23.838  0.00  0.00    -0.156 OA
ATOM      6  O   UNL     1      -3.763  -1.236  25.465  0.00  0.00    -0.156 OA
BRANCH   4   3
ATOM      3  C   UNL     1      -2.906  -1.541  24.734  0.00  0.00    +0.171 C 
BRANCH   3   2
ATOM      1  C   UNL     1      -2.066  -2.677  24.516  0.00  0.00    +0.002 C 
ATOM      2  C   UNL     1      -2.819  -2.339  24.541  0.00  0.00    +0.027 C 
ENDBRANCH   3   2
ENDBRANCH   4   3
ENDBRANCH   7   4
ENDBRANCH   8   7
TORSDOF 6
ENDMDL
