MODEL 1
REMARK VINA RESULT:     -10.9      0.000      0.000
REMARK  Name = 
REMARK  7 active torsions:
REMARK  status: ('A' for Active; 'I' for Inactive)
REMARK    1  A    between atoms: C_2  and  C_5
REMARK    2  A    between atoms: C_5  and  C_6
REMARK    3  A    between atoms: N_8  and  C_9
REMARK    4  A    between atoms: C_9  and  C_10
REMARK    5  A    between atoms: C_13  and  N_14
REMARK    6  A    between atoms: N_14  and  C_15
REMARK    7  A    between atoms: C_15  and  C_16
REMARK                            x       y       z     vdW  Elec       q    Type
REMARK                         _______ _______ _______ _____ _____    ______ ____
ROOT
ATOM     10  C   UNL     1      -3.805   2.161  24.653  0.00  0.00    +0.169 C 
ATOM     11  O   UNL     1      -4.389   2.000  25.212  0.00  0.00    -0.350 OA
ATOM     12  C   UNL     1      -4.570   1.197  25.167  0.00  0.00    +0.162 C 
ATOM     13  C   UNL     1      -4.098   0.861  24.580  0.00  0.00    +0.135 C 
ATOM     23  C   UNL     1      -3.625   1.457  24.262  0.00  0.00    +0.199 C 
ATOM     24  O   UNL     1      -3.069   1.366  23.659  0.00  0.00    -0.219 OA
ENDROOT
BRANCH  10   9
ATOM      9  C   UNL     1      -3.461   2.897  24.509  0.00  0.00    +0.147 C 
BRANCH   9   8
ATOM      6  C   UNL     1      -2.602   3.963  24.920  0.00  0.00    +0.241 C 
ATOM      7  O   UNL     1      -2.822   4.397  24.254  0.00  0.00    -0.273 OA
ATOM      8  N   UNL     1      -2.922   3.212  25.047  0.00  0.00    -0.203 NA
BRANCH   6   5
ATOM      5  C   UNL     1      -2.062   4.278  25.459  0.00  0.00    +0.087 C 
BRANCH   5   2
ATOM      1  C   UNL     1      -0.788   5.177  24.919  0.00  0.00    +0.000 C 
ATOM      2  C   UNL     1      -1.425   4.728  25.189  0.00  0.00    +0.009 C 
ATOM      3  C   UNL     1      -1.891   5.408  25.222  0.00  0.00    +0.000 C 
ATOM      4  C   UNL     1      -0.959   4.048  25.156  0.00  0.00    +0.000 C 
ENDBRANCH   5   2
ENDBRANCH   6   5
ENDBRANCH   9   8
ENDBRANCH  10   9
BRANCH  13  14
ATOM     14  N   UNL     1      -4.098   0.068  24.351  0.00  0.00    -0.209 NA
BRANCH  14  15
ATOM     15  C   UNL     1      -4.075  -0.526  24.923  0.00  0.00    +0.118 C 
BRANCH  15  16
ATOM     16  C   UNL     1      -3.965  -1.312  24.697  0.00  0.00    +0.034 A 
ATOM     17  C   UNL     1      -3.565  -1.833  25.197  0.00  0.00    +0.193 A 
ATOM     18  O   UNL     1      -3.275  -1.568  25.922  0.00  0.00    -0.287 OA
ATOM     19  C   UNL     1      -3.455  -2.618  24.970  0.00  0.00    +0.042 A 
ATOM     20  C   UNL     1      -3.744  -2.883  24.244  0.00  0.00    +0.003 A 
ATOM     21  C   UNL     1      -4.144  -2.362  23.745  0.00  0.00    -0.000 A 
ATOM     22  C   UNL     1      -4.254  -1.576  23.972  0.00  0.00    +0.000 A 
ENDBRANCH  15  16
ENDBRANCH  14  15
ENDBRANCH  13  14
TORSDOF 7
ENDMDL
MODEL 2
REMARK VINA RESULT:     -10.3      1.608      5.853
REMARK  Name = 
REMARK  7 active torsions:
REMARK  status: ('A' for Active; 'I' for Inactive)
REMARK    1  A    between atoms: C_2  and  C_5
REMARK    2  A    between atoms: C_5  and  C_6
REMARK    3  A    between atoms: N_8  and  C_9
REMARK    4  A    between atoms: C_9  and  C_10
REMARK    5  A    between atoms: C_13  and  N_14
REMARK    6  A    between atoms: N_14  and  C_15
REMARK    7  A    between atoms: C_15  and  C_16
REMARK                            x       y       z     vdW  Elec       q    Type
REMARK                         _______ _______ _______ _____ _____    ______ ____
ROOT
ATOM     10  C   UNL     1      -1.434   0.326  24.990  0.00  0.00    +0.169 C 
ATOM     11  O   UNL     1      -1.117   0.452  25.741  0.00  0.00    -0.350 OA
ATOM     12  C   UNL     1      -0.955   1.257  25.816  0.00  0.00    +0.162 C 
ATOM     13  C   UNL     1      -1.171   1.628  25.112  0.00  0.00    +0.135 C 
ATOM     23  C   UNL     1      -1.467   1.053  24.601  0.00  0.00    +0.199 C 
ATOM     24  O   UNL     1      -1.747   1.182  23.836  0.00  0.00    -0.219 OA
ENDROOT
BRANCH  10   9
ATOM      9  C   UNL     1      -1.675  -0.400  24.681  0.00  0.00    +0.147 C 
BRANCH   9   8
ATOM      6  C   UNL     1      -2.588  -1.500  24.685  0.00  0.00    +0.241 C 
ATOM      7  O   UNL     1      -2.075  -1.928  24.202  0.00  0.00    -0.273 OA
ATOM      8  N   UNL     1      -2.388  -0.736  24.925  0.00  0.00    -0.203 NA
BRANCH   6   5
ATOM      5  C   UNL     1      -3.301  -1.836  24.930  0.00  0.00    +0.087 C 
BRANCH   5   2
ATOM      1  C   UNL     1      -4.198  -2.727  23.870  0.00  0.00    +0.000 C 
ATOM      2  C   UNL     1      -3.750  -2.281  24.400  0.00  0.00    +0.009 C 
ATOM      3  C   UNL     1      -4.122  -1.594  24.137  0.00  0.00    +0.000 C 
ATOM      4  C   UNL     1      -3.377  -2.969  24.663  0.00  0.00    +0.000 C 
ENDBRANCH   5   2
ENDBRANCH   6   5
ENDBRANCH   9   8
ENDBRANCH  10   9
BRANCH  13  14
ATOM     14  N   UNL     1      -1.103   2.434  24.948  0.00  0.00    -0.209 NA
BRANCH  14  15
ATOM     15  C   UNL     1      -1.375   2.991  25.494  0.00  0.00    +0.118 C 
BRANCH  15  16
ATOM     16  C   UNL     1      -1.335   3.795  25.316  0.00  0.00    +0.034 A 
ATOM     17  C   UNL     1      -1.950   4.298  25.540  0.00  0.00    +0.193 A 
ATOM     18  O   UNL     1      -2.604   3.996  25.942  0.00  0.00    -0.287 OA
ATOM     19  C   UNL     1      -1.910   5.102  25.363  0.00  0.00    +0.042 A 
ATOM     20  C   UNL     1      -1.255   5.405  24.961  0.00  0.00    +0.003 A 
ATOM     21  C   UNL     1      -0.641   4.902  24.737  0.00  0.00    -0.000 A 
ATOM     22  C   UNL     1      -0.681   4.097  24.915  0.00  0.00    +0.000 A 
ENDBRANCH  15  16
ENDBRANCH  14  15
ENDBRANCH  13  14
TORSDOF 7
ENDMDL
MODEL 3
REMARK VINA RESULT:      -9.0      1.811      2.194
REMARK  Name = 
REMARK  7 active torsions:
REMARK  status: ('A' for Active; 'I' for Inactive)
REMARK    1  A    between atoms: C_2  and  C_5
REMARK    2  A    between atoms: C_5  and  C_6
REMARK    3  A    between atoms: N_8  and  C_9
REMARK    4  A    between atoms: C_9  and  C_10
REMARK    5  A    between atoms: C_13  and  N_14
REMARK    6  A    between atoms: N_14  and  C_15
REMARK    7  A    between atoms: C_15  and  C_16
REMARK                            x       y       z     vdW  Elec       q    Type
REMARK                         _______ _______ _______ _____ _____    ______ ____
ROOT
ATOM     10  C   UNL     1      -1.014   1.063  25.073  0.00  0.00    +0.169 C 
ATOM     11  O   UNL     1      -0.537   0.654  24.538  0.00  0.00    -0.350 OA
ATOM     12  C   UNL     1      -0.869  -0.092  24.421  0.00  0.00    +0.162 C 
ATOM     13  C   UNL     1      -1.550  -0.144  24.883  0.00  0.00    +0.135 C 
ATOM     23  C   UNL     1      -1.640   0.570  25.286  0.00  0.00    +0.199 C 
ATOM     24  O   UNL     1      -2.248   0.758  25.810  0.00  0.00    -0.219 OA
ENDROOT
BRANCH  10   9
ATOM      9  C   UNL     1      -0.887   1.831  25.346  0.00  0.00    +0.147 C 
BRANCH   9   8
ATOM      6  C   UNL     1      -0.915   3.243  25.129  0.00  0.00    +0.241 C 
ATOM      7  O   UNL     1      -0.645   3.367  25.898  0.00  0.00    -0.273 OA
ATOM      8  N   UNL     1      -1.036   2.474  24.853  0.00  0.00    -0.203 NA
BRANCH   6   5
ATOM      5  C   UNL     1      -1.065   3.887  24.634  0.00  0.00    +0.087 C 
BRANCH   5   2
ATOM      1  C   UNL     1      -1.538   5.329  25.280  0.00  0.00    +0.000 C 
ATOM      2  C   UNL     1      -1.301   4.608  24.957  0.00  0.00    +0.009 C 
ATOM      3  C   UNL     1      -2.053   4.299  25.096  0.00  0.00    +0.000 C 
ATOM      4  C   UNL     1      -0.549   4.917  24.818  0.00  0.00    +0.000 C 
ENDBRANCH   5   2
ENDBRANCH   6   5
ENDBRANCH   9   8
ENDBRANCH  10   9
BRANCH  13  14
ATOM     14  N   UNL     1      -2.054  -0.796  24.934  0.00  0.00    -0.209 NA
BRANCH  14  15
ATOM     15  C   UNL     1      -2.544  -0.989  24.298  0.00  0.00    +0.118 C 
BRANCH  15  16
ATOM     16  C   UNL     1      -3.016  -1.664  24.333  0.00  0.00    +0.034 A 
ATOM     17  C   UNL     1      -3.755  -1.670  23.963  0.00  0.00    +0.193 A 
ATOM     18  O   UNL     1      -4.019  -1.001  23.559  0.00  0.00    -0.287 OA
ATOM     19  C   UNL     1      -4.227  -2.345  23.997  0.00  0.00    +0.042 A 
ATOM     20  C   UNL     1      -3.963  -3.014  24.401  0.00  0.00    +0.003 A 
ATOM     21  C   UNL     1      -3.225  -3.008  24.770  0.00  0.00    -0.000 A 
ATOM     22  C   UNL     1      -2.752  -2.333  24.736  0.00  0.00    +0.000 A 
ENDBRANCH  15  16
ENDBRANCH  14  15
ENDBRANCH  13  14
TORSDOF 7
ENDMDL
