MODEL 1
REMARK VINA RESULT:     -12.6      0.000      0.000
REMARK  Name = 
REMARK  7 active torsions:
REMARK  status: ('A' for Active; 'I' for Inactive)
REMARK    1  A    between atoms: C_2  and  C_4
REMARK    2  A    between atoms: N_7  and  C_10
REMARK    3  A    between atoms: C_12  and  C_16
REMARK    4  A    between atoms: C_19  and  C_21
REMARK    5  A    between atoms: N_25  and  C_26
REMARK    6  A    between atoms: C_26  and  C_27
REMARK    7  A    between atoms: C_30  and  C_33
REMARK                            x       y       z     vdW  Elec       q    Type
REMARK                         _______ _______ _______ _____ _____    ______ ____
ROOT
ATOM     16  C   UNL     1      -0.444   2.603  24.919  0.00  0.00    +0.203 A 
ATOM     17  N   UNL     1       0.236   2.431  25.354  0.00  0.00    -0.056 NA
ATOM     18  O   UNL     1       0.527   1.703  25.094  0.00  0.00    -0.336 OA
ATOM     19  C   UNL     1       0.027   1.426  24.499  0.00  0.00    +0.251 A 
ATOM     20  N   UNL     1      -0.573   1.983  24.391  0.00  0.00    -0.190 NA
ENDROOT
BRANCH  16  12
ATOM     10  C   UNL     1      -2.197   3.879  25.172  0.00  0.00    +0.132 A 
ATOM     11  C   UNL     1      -1.728   3.204  25.092  0.00  0.00    +0.037 A 
ATOM     12  C   UNL     1      -0.912   3.277  24.999  0.00  0.00    +0.043 A 
ATOM     13  C   UNL     1      -0.564   4.025  24.986  0.00  0.00    +0.024 A 
ATOM     14  C   UNL     1      -1.032   4.700  25.065  0.00  0.00    +0.100 A 
ATOM     15  N   UNL     1      -1.849   4.626  25.159  0.00  0.00    -0.229 NA
BRANCH  10   7
ATOM      4  C   UNL     1      -4.646   3.659  25.451  0.00  0.00    +0.083 C 
ATOM      5  C   UNL     1      -4.308   3.590  24.702  0.00  0.00    +0.031 C 
ATOM      6  C   UNL     1      -3.492   3.663  24.608  0.00  0.00    +0.093 C 
ATOM      7  N   UNL     1      -3.014   3.805  25.265  0.00  0.00    -0.293 N 
ATOM      8  C   UNL     1      -3.351   3.874  26.015  0.00  0.00    +0.093 C 
ATOM      9  C   UNL     1      -4.167   3.801  26.107  0.00  0.00    +0.031 C 
BRANCH   4   2
ATOM      1  N   UNL     1      -5.819   2.844  25.486  0.00  0.00    -0.088 NA
ATOM      2  C   UNL     1      -5.463   3.586  25.544  0.00  0.00    +0.260 C 
ATOM      3  O   UNL     1      -5.923   4.253  25.693  0.00  0.00    -0.272 OA
ENDBRANCH   4   2
ENDBRANCH  10   7
ENDBRANCH  16  12
BRANCH  19  21
ATOM     21  C   UNL     1       0.112   0.718  24.085  0.00  0.00    +0.138 C 
ATOM     22  C   UNL     1       0.565   0.606  23.404  0.00  0.00    +0.027 C 
ATOM     23  C   UNL     1       0.492  -0.183  23.177  0.00  0.00    +0.019 C 
ATOM     24  C   UNL     1      -0.006  -0.559  23.716  0.00  0.00    +0.073 C 
ATOM     25  N   UNL     1      -0.241  -0.002  24.278  0.00  0.00    -0.263 NA
BRANCH  25  26
ATOM     26  C   UNL     1      -0.741  -0.141  24.919  0.00  0.00    +0.099 C 
BRANCH  26  27
ATOM     27  C   UNL     1      -1.320  -0.726  24.872  0.00  0.00    -0.006 A 
ATOM     28  C   UNL     1      -2.100  -0.522  24.697  0.00  0.00    -0.003 A 
ATOM     29  C   UNL     1      -2.679  -1.108  24.650  0.00  0.00    +0.006 A 
ATOM     30  C   UNL     1      -2.478  -1.898  24.778  0.00  0.00    +0.080 A 
ATOM     31  C   UNL     1      -1.698  -2.102  24.952  0.00  0.00    +0.006 A 
ATOM     32  C   UNL     1      -1.119  -1.516  24.999  0.00  0.00    -0.003 A 
BRANCH  30  33
ATOM     33  C   UNL     1      -3.057  -2.484  24.731  0.00  0.00    +0.388 C 
ATOM     34  O   UNL     1      -3.212  -2.854  24.009  0.00  0.00    -0.241 OA
ATOM     35  O   UNL     1      -3.481  -2.699  25.405  0.00  0.00    -0.241 OA
ENDBRANCH  30  33
ENDBRANCH  26  27
ENDBRANCH  25  26
ENDBRANCH  19  21
TORSDOF 7
ENDMDL
MODEL 2
REMARK VINA RESULT:     -12.3      0.965      4.985
REMARK  Name = 
REMARK  7 active torsions:
REMARK  status: ('A' for Active; 'I' for Inactive)
REMARK    1  A    between atoms: C_2  and  C_4
REMARK    2  A    between atoms: N_7  and  C_10
REMARK    3  A    between atoms: C_12  and  C_16
REMARK    4  A    between atoms: C_19  and  C_21
REMARK    5  A    between atoms: N_25  and  C_26
REMARK    6  A    between atoms: C_26  and  C_27
REMARK    7  A    between atoms: C_30  and  C_33
REMARK                            x       y       z     vdW  Elec       q    Type
REMARK                         _______ _______ _______ _____ _____    ______ ____
ROOT
ATOM     16  C   UNL     1      -0.222   1.827  24.829  0.00  0.00    +0.203 A 
ATOM     17  N   UNL     1       0.283   2.097  25.423  0.00  0.00    -0.056 NA
ATOM     18  O   UNL     1       0.069   2.873  25.607  0.00  0.00    -0.336 OA
ATOM     19  C   UNL     1      -0.568   3.082  25.126  0.00  0.00    +0.251 A 
ATOM     20  N   UNL     1      -0.748   2.435  24.646  0.00  0.00    -0.190 NA
ENDROOT
BRANCH  16  12
ATOM     10  C   UNL     1      -0.788  -0.210  24.287  0.00  0.00    +0.132 A 
ATOM     11  C   UNL     1      -0.806   0.537  24.636  0.00  0.00    +0.037 A 
ATOM     12  C   UNL     1      -0.204   1.079  24.481  0.00  0.00    +0.043 A 
ATOM     13  C   UNL     1       0.417   0.875  23.976  0.00  0.00    +0.024 A 
ATOM     14  C   UNL     1       0.435   0.127  23.628  0.00  0.00    +0.100 A 
ATOM     15  N   UNL     1      -0.168  -0.416  23.783  0.00  0.00    -0.229 NA
BRANCH  10   7
ATOM      4  C   UNL     1      -2.593  -1.837  24.753  0.00  0.00    +0.083 C 
ATOM      5  C   UNL     1      -2.780  -1.060  24.551  0.00  0.00    +0.031 C 
ATOM      6  C   UNL     1      -2.179  -0.517  24.395  0.00  0.00    +0.093 C 
ATOM      7  N   UNL     1      -1.390  -0.753  24.442  0.00  0.00    -0.293 N 
ATOM      8  C   UNL     1      -1.203  -1.531  24.644  0.00  0.00    +0.093 C 
ATOM      9  C   UNL     1      -1.805  -2.072  24.799  0.00  0.00    +0.031 C 
BRANCH   4   2
ATOM      1  N   UNL     1      -3.523  -2.819  24.291  0.00  0.00    -0.088 NA
ATOM      2  C   UNL     1      -3.196  -2.379  24.908  0.00  0.00    +0.260 C 
ATOM      3  O   UNL     1      -3.472  -2.481  25.678  0.00  0.00    -0.272 OA
ENDBRANCH   4   2
ENDBRANCH  10   7
ENDBRANCH  16  12
BRANCH  19  21
ATOM     21  C   UNL     1      -0.957   3.809  25.126  0.00  0.00    +0.138 C 
ATOM     22  C   UNL     1      -0.664   4.515  24.815  0.00  0.00    +0.027 C 
ATOM     23  C   UNL     1      -1.233   5.101  24.933  0.00  0.00    +0.019 C 
ATOM     24  C   UNL     1      -1.878   4.756  25.316  0.00  0.00    +0.073 C 
ATOM     25  N   UNL     1      -1.707   3.958  25.435  0.00  0.00    -0.263 NA
BRANCH  25  26
ATOM     26  C   UNL     1      -2.200   3.406  25.799  0.00  0.00    +0.099 C 
BRANCH  26  27
ATOM     27  C   UNL     1      -3.019   3.477  25.734  0.00  0.00    -0.006 A 
ATOM     28  C   UNL     1      -3.446   3.874  26.318  0.00  0.00    -0.003 A 
ATOM     29  C   UNL     1      -4.266   3.945  26.253  0.00  0.00    +0.006 A 
ATOM     30  C   UNL     1      -4.658   3.620  25.604  0.00  0.00    +0.080 A 
ATOM     31  C   UNL     1      -4.230   3.224  25.020  0.00  0.00    +0.006 A 
ATOM     32  C   UNL     1      -3.411   3.152  25.085  0.00  0.00    -0.003 A 
BRANCH  30  33
ATOM     33  C   UNL     1      -5.477   3.692  25.539  0.00  0.00    +0.388 C 
ATOM     34  O   UNL     1      -5.942   3.020  25.422  0.00  0.00    -0.241 OA
ATOM     35  O   UNL     1      -5.831   4.435  25.590  0.00  0.00    -0.241 OA
ENDBRANCH  30  33
ENDBRANCH  26  27
ENDBRANCH  25  26
ENDBRANCH  19  21
TORSDOF 7
ENDMDL
MODEL 3
REMARK VINA RESULT:     -11.5      1.562      4.713
REMARK  Name = 
REMARK  7 active torsions:
REMARK  status: ('A' for Active; 'I' for Inactive)
REMARK    1  A    between atoms: C_2  and  C_4
REMARK    2  A    between atoms: N_7  and  C_10
REMARK    3  A    between atoms: C_12  and  C_16
REMARK    4  A    between atoms: C_19  and  C_21
REMARK    5  A    between atoms: N_25  and  C_26
REMARK    6  A    between atoms: C_26  and  C_27
REMARK    7  A    between atoms: C_30  and  C_33
REMARK                            x       y       z     vdW  Elec       q    Type
REMARK                         _______ _______ _______ _____ _____    ______ ____
ROOT
ATOM     16  C   UNL     1      -4.009   3.063  25.509  0.00  0.00    +0.203 A 
ATOM     17  N   UNL     1      -4.121   3.612  26.116  0.00  0.00    -0.056 NA
ATOM     18  O   UNL     1      -3.465   4.113  26.131  0.00  0.00    -0.336 OA
ATOM     19  C   UNL     1      -2.949   3.874  25.533  0.00  0.00    +0.251 A 
ATOM     20  N   UNL     1      -3.285   3.225  25.150  0.00  0.00    -0.190 NA
ENDROOT
BRANCH  16  12
ATOM     10  C   UNL     1      -4.766   1.095  24.949  0.00  0.00    +0.132 A 
ATOM     11  C   UNL     1      -4.244   1.699  25.159  0.00  0.00    +0.037 A 
ATOM     12  C   UNL     1      -4.530   2.459  25.300  0.00  0.00    +0.043 A 
ATOM     13  C   UNL     1      -5.337   2.616  25.231  0.00  0.00    +0.024 A 
ATOM     14  C   UNL     1      -5.859   2.012  25.022  0.00  0.00    +0.100 A 
ATOM     15  N   UNL     1      -5.573   1.251  24.881  0.00  0.00    -0.229 NA
BRANCH  10   7
ATOM      4  C   UNL     1      -3.908  -1.188  24.526  0.00  0.00    +0.083 C 
ATOM      5  C   UNL     1      -4.132  -0.708  23.894  0.00  0.00    +0.031 C 
ATOM      6  C   UNL     1      -4.418   0.053  24.034  0.00  0.00    +0.093 C 
ATOM      7  N   UNL     1      -4.480   0.333  24.808  0.00  0.00    -0.293 N 
ATOM      8  C   UNL     1      -4.255  -0.148  25.440  0.00  0.00    +0.093 C 
ATOM      9  C   UNL     1      -3.970  -0.908  25.299  0.00  0.00    +0.031 C 
BRANCH   4   2
ATOM      1  N   UNL     1      -2.852  -2.147  24.602  0.00  0.00    -0.088 NA
ATOM      2  C   UNL     1      -3.623  -1.949  24.384  0.00  0.00    +0.260 C 
ATOM      3  O   UNL     1      -4.106  -2.512  24.024  0.00  0.00    -0.272 OA
ENDBRANCH   4   2
ENDBRANCH  10   7
ENDBRANCH  16  12
BRANCH  19  21
ATOM     21  C   UNL     1      -2.223   4.222  25.352  0.00  0.00    +0.138 C 
ATOM     22  C   UNL     1      -2.105   5.008  25.127  0.00  0.00    +0.027 C 
ATOM     23  C   UNL     1      -1.298   5.118  24.999  0.00  0.00    +0.019 C 
ATOM     24  C   UNL     1      -0.916   4.401  25.145  0.00  0.00    +0.073 C 
ATOM     25  N   UNL     1      -1.489   3.847  25.363  0.00  0.00    -0.263 NA
BRANCH  25  26
ATOM     26  C   UNL     1      -1.350   3.058  25.558  0.00  0.00    +0.099 C 
BRANCH  26  27
ATOM     27  C   UNL     1      -0.785   2.624  25.144  0.00  0.00    -0.006 A 
ATOM     28  C   UNL     1      -0.948   2.354  24.382  0.00  0.00    -0.003 A 
ATOM     29  C   UNL     1      -0.382   1.919  23.967  0.00  0.00    +0.006 A 
ATOM     30  C   UNL     1       0.347   1.754  24.316  0.00  0.00    +0.080 A 
ATOM     31  C   UNL     1       0.511   2.024  25.078  0.00  0.00    +0.006 A 
ATOM     32  C   UNL     1      -0.055   2.459  25.492  0.00  0.00    -0.003 A 
BRANCH  30  33
ATOM     33  C   UNL     1       0.913   1.320  23.901  0.00  0.00    +0.388 C 
ATOM     34  O   UNL     1       1.675   1.622  23.801  0.00  0.00    -0.241 OA
ATOM     35  O   UNL     1       0.717   0.582  23.586  0.00  0.00    -0.241 OA
ENDBRANCH  30  33
ENDBRANCH  26  27
ENDBRANCH  25  26
ENDBRANCH  19  21
TORSDOF 7
ENDMDL
MODEL 4
REMARK VINA RESULT:     -11.3      1.425      4.236
REMARK  Name = 
REMARK  7 active torsions:
REMARK  status: ('A' for Active; 'I' for Inactive)
REMARK    1  A    between atoms: C_2  and  C_4
REMARK    2  A    between atoms: N_7  and  C_10
REMARK    3  A    between atoms: C_12  and  C_16
REMARK    4  A    between atoms: C_19  and  C_21
REMARK    5  A    between atoms: N_25  and  C_26
REMARK    6  A    between atoms: C_26  and  C_27
REMARK    7  A    between atoms: C_30  and  C_33
REMARK                            x       y       z     vdW  Elec       q    Type
REMARK                         _______ _______ _______ _____ _____    ______ ____
ROOT
ATOM     16  C   UNL     1      -3.332   3.518  25.522  0.00  0.00    +0.203 A 
ATOM     17  N   UNL     1      -3.860   3.873  26.049  0.00  0.00    -0.056 NA
ATOM     18  O   UNL     1      -4.567   3.448  26.026  0.00  0.00    -0.336 OA
ATOM     19  C   UNL     1      -4.476   2.831  25.486  0.00  0.00    +0.251 A 
ATOM     20  N   UNL     1      -3.713   2.875  25.174  0.00  0.00    -0.190 NA
ENDROOT
BRANCH  16  12
ATOM     10  C   UNL     1      -1.227   3.469  24.949  0.00  0.00    +0.132 A 
ATOM     11  C   UNL     1      -2.000   3.223  25.101  0.00  0.00    +0.037 A 
ATOM     12  C   UNL     1      -2.560   3.765  25.370  0.00  0.00    +0.043 A 
ATOM     13  C   UNL     1      -2.348   4.554  25.487  0.00  0.00    +0.024 A 
ATOM     14  C   UNL     1      -1.576   4.800  25.335  0.00  0.00    +0.100 A 
ATOM     15  N   UNL     1      -1.015   4.258  25.066  0.00  0.00    -0.229 NA
BRANCH  10   7
ATOM      4  C   UNL     1       0.455   1.843  24.143  0.00  0.00    +0.083 C 
ATOM      5  C   UNL     1      -0.030   2.237  23.604  0.00  0.00    +0.031 C 
ATOM      6  C   UNL     1      -0.591   2.779  23.872  0.00  0.00    +0.093 C 
ATOM      7  N   UNL     1      -0.666   2.927  24.680  0.00  0.00    -0.293 N 
ATOM      8  C   UNL     1      -0.181   2.534  25.219  0.00  0.00    +0.093 C 
ATOM      9  C   UNL     1       0.380   1.992  24.950  0.00  0.00    +0.031 C 
BRANCH   4   2
ATOM      1  N   UNL     1       0.785   0.535  23.673  0.00  0.00    -0.088 NA
ATOM      2  C   UNL     1       1.016   1.301  23.873  0.00  0.00    +0.260 C 
ATOM      3  O   UNL     1       1.806   1.525  23.804  0.00  0.00    -0.272 OA
ENDBRANCH   4   2
ENDBRANCH  10   7
ENDBRANCH  16  12
BRANCH  19  21
ATOM     21  C   UNL     1      -5.048   2.269  25.291  0.00  0.00    +0.138 C 
ATOM     22  C   UNL     1      -5.860   2.404  25.232  0.00  0.00    +0.027 C 
ATOM     23  C   UNL     1      -6.222   1.692  25.025  0.00  0.00    +0.019 C 
ATOM     24  C   UNL     1      -5.634   1.117  24.956  0.00  0.00    +0.073 C 
ATOM     25  N   UNL     1      -4.908   1.474  25.120  0.00  0.00    -0.263 NA
BRANCH  25  26
ATOM     26  C   UNL     1      -4.172   1.101  25.114  0.00  0.00    +0.099 C 
BRANCH  26  27
ATOM     27  C   UNL     1      -4.113   0.309  24.895  0.00  0.00    -0.006 A 
ATOM     28  C   UNL     1      -4.091   0.102  24.097  0.00  0.00    -0.003 A 
ATOM     29  C   UNL     1      -4.032  -0.692  23.877  0.00  0.00    +0.006 A 
ATOM     30  C   UNL     1      -3.995  -1.278  24.456  0.00  0.00    +0.080 A 
ATOM     31  C   UNL     1      -4.016  -1.071  25.254  0.00  0.00    +0.006 A 
ATOM     32  C   UNL     1      -4.076  -0.278  25.474  0.00  0.00    -0.003 A 
BRANCH  30  33
ATOM     33  C   UNL     1      -3.935  -2.071  24.237  0.00  0.00    +0.388 C 
ATOM     34  O   UNL     1      -3.389  -2.564  24.611  0.00  0.00    -0.241 OA
ATOM     35  O   UNL     1      -4.423  -2.371  23.642  0.00  0.00    -0.241 OA
ENDBRANCH  30  33
ENDBRANCH  26  27
ENDBRANCH  25  26
ENDBRANCH  19  21
TORSDOF 7
ENDMDL
MODEL 5
REMARK VINA RESULT:     -10.9      1.723      3.707
REMARK  Name = 
REMARK  7 active torsions:
REMARK  status: ('A' for Active; 'I' for Inactive)
REMARK    1  A    between atoms: C_2  and  C_4
REMARK    2  A    between atoms: N_7  and  C_10
REMARK    3  A    between atoms: C_12  and  C_16
REMARK    4  A    between atoms: C_19  and  C_21
REMARK    5  A    between atoms: N_25  and  C_26
REMARK    6  A    between atoms: C_26  and  C_27
REMARK    7  A    between atoms: C_30  and  C_33
REMARK                            x       y       z     vdW  Elec       q    Type
REMARK                         _______ _______ _______ _____ _____    ______ ____
ROOT
ATOM     16  C   UNL     1      -4.636   1.033  25.284  0.00  0.00    +0.203 A 
ATOM     17  N   UNL     1      -4.942   0.531  25.863  0.00  0.00    -0.056 NA
ATOM     18  O   UNL     1      -4.739  -0.243  25.663  0.00  0.00    -0.336 OA
ATOM     19  C   UNL     1      -4.308  -0.220  24.960  0.00  0.00    +0.251 A 
ATOM     20  N   UNL     1      -4.245   0.569  24.726  0.00  0.00    -0.190 NA
ENDROOT
BRANCH  16  12
ATOM     10  C   UNL     1      -4.108   3.150  25.220  0.00  0.00    +0.132 A 
ATOM     11  C   UNL     1      -4.035   2.328  25.238  0.00  0.00    +0.037 A 
ATOM     12  C   UNL     1      -4.709   1.855  25.266  0.00  0.00    +0.043 A 
ATOM     13  C   UNL     1      -5.458   2.202  25.278  0.00  0.00    +0.024 A 
ATOM     14  C   UNL     1      -5.531   3.024  25.260  0.00  0.00    +0.100 A 
ATOM     15  N   UNL     1      -4.855   3.498  25.231  0.00  0.00    -0.229 NA
BRANCH  10   7
ATOM      4  C   UNL     1      -2.084   4.571  25.134  0.00  0.00    +0.083 C 
ATOM      5  C   UNL     1      -2.446   4.326  24.434  0.00  0.00    +0.031 C 
ATOM      6  C   UNL     1      -3.120   3.852  24.463  0.00  0.00    +0.093 C 
ATOM      7  N   UNL     1      -3.433   3.624  25.191  0.00  0.00    -0.293 N 
ATOM      8  C   UNL     1      -3.070   3.869  25.891  0.00  0.00    +0.093 C 
ATOM      9  C   UNL     1      -2.396   4.343  25.862  0.00  0.00    +0.031 C 
BRANCH   4   2
ATOM      1  N   UNL     1      -0.666   4.699  25.006  0.00  0.00    -0.088 NA
ATOM      2  C   UNL     1      -1.409   5.045  25.104  0.00  0.00    +0.260 C 
ATOM      3  O   UNL     1      -1.476   5.864  25.172  0.00  0.00    -0.272 OA
ENDBRANCH   4   2
ENDBRANCH  10   7
ENDBRANCH  16  12
BRANCH  19  21
ATOM     21  C   UNL     1      -3.996  -0.870  24.560  0.00  0.00    +0.138 C 
ATOM     22  C   UNL     1      -4.409  -1.370  24.050  0.00  0.00    +0.027 C 
ATOM     23  C   UNL     1      -3.884  -1.944  23.775  0.00  0.00    +0.019 C 
ATOM     24  C   UNL     1      -3.147  -1.799  24.116  0.00  0.00    +0.073 C 
ATOM     25  N   UNL     1      -3.216  -1.136  24.601  0.00  0.00    -0.263 NA
BRANCH  25  26
ATOM     26  C   UNL     1      -2.611  -0.797  25.048  0.00  0.00    +0.099 C 
BRANCH  26  27
ATOM     27  C   UNL     1      -1.853  -0.726  24.731  0.00  0.00    -0.006 A 
ATOM     28  C   UNL     1      -1.337  -1.369  24.748  0.00  0.00    -0.003 A 
ATOM     29  C   UNL     1      -0.578  -1.298  24.430  0.00  0.00    +0.006 A 
ATOM     30  C   UNL     1      -0.337  -0.583  24.095  0.00  0.00    +0.080 A 
ATOM     31  C   UNL     1      -0.854   0.059  24.078  0.00  0.00    +0.006 A 
ATOM     32  C   UNL     1      -1.611  -0.012  24.395  0.00  0.00    -0.003 A 
BRANCH  30  33
ATOM     33  C   UNL     1       0.422  -0.512  23.778  0.00  0.00    +0.388 C 
ATOM     34  O   UNL     1       1.046  -0.947  24.099  0.00  0.00    -0.241 OA
ATOM     35  O   UNL     1       0.555  -0.007  23.139  0.00  0.00    -0.241 OA
ENDBRANCH  30  33
ENDBRANCH  26  27
ENDBRANCH  25  26
ENDBRANCH  19  21
TORSDOF 7
ENDMDL
MODEL 6
REMARK VINA RESULT:     -10.6      1.697      4.096
REMARK  Name = 
REMARK  7 active torsions:
REMARK  status: ('A' for Active; 'I' for Inactive)
REMARK    1  A    between atoms: C_2  and  C_4
REMARK    2  A    between atoms: N_7  and  C_10
REMARK    3  A    between atoms: C_12  and  C_16
REMARK    4  A    between atoms: C_19  and  C_21
REMARK    5  A    between atoms: N_25  and  C_26
REMARK    6  A    between atoms: C_26  and  C_27
REMARK    7  A    between atoms: C_30  and  C_33
REMARK                            x       y       z     vdW  Elec       q    Type
REMARK                         _______ _______ _______ _____ _____    ______ ____
ROOT
ATOM     16  C   UNL     1      -1.074  -0.375  24.471  0.00  0.00    +0.203 A 
ATOM     17  N   UNL     1      -0.919  -1.099  24.836  0.00  0.00    -0.056 NA
ATOM     18  O   UNL     1      -1.623  -1.528  24.859  0.00  0.00    -0.336 OA
ATOM     19  C   UNL     1      -2.213  -1.069  24.510  0.00  0.00    +0.251 A 
ATOM     20  N   UNL     1      -1.873  -0.356  24.270  0.00  0.00    -0.190 NA
ENDROOT
BRANCH  16  12
ATOM     10  C   UNL     1      -0.171   1.609  24.362  0.00  0.00    +0.132 A 
ATOM     11  C   UNL     1      -0.720   1.009  24.500  0.00  0.00    +0.037 A 
ATOM     12  C   UNL     1      -0.525   0.226  24.333  0.00  0.00    +0.043 A 
ATOM     13  C   UNL     1       0.219   0.041  24.027  0.00  0.00    +0.024 A 
ATOM     14  C   UNL     1       0.768   0.641  23.888  0.00  0.00    +0.100 A 
ATOM     15  N   UNL     1       0.573   1.426  24.056  0.00  0.00    -0.229 NA
BRANCH  10   7
ATOM      4  C   UNL     1      -0.755   3.961  24.863  0.00  0.00    +0.083 C 
ATOM      5  C   UNL     1      -0.451   3.476  25.457  0.00  0.00    +0.031 C 
ATOM      6  C   UNL     1      -0.256   2.692  25.290  0.00  0.00    +0.093 C 
ATOM      7  N   UNL     1      -0.366   2.394  24.529  0.00  0.00    -0.293 N 
ATOM      8  C   UNL     1      -0.671   2.879  23.935  0.00  0.00    +0.093 C 
ATOM      9  C   UNL     1      -0.865   3.662  24.103  0.00  0.00    +0.031 C 
BRANCH   4   2
ATOM      1  N   UNL     1      -1.667   4.922  25.399  0.00  0.00    -0.088 NA
ATOM      2  C   UNL     1      -0.950   4.745  25.032  0.00  0.00    +0.260 C 
ATOM      3  O   UNL     1      -0.429   5.352  24.832  0.00  0.00    -0.272 OA
ENDBRANCH   4   2
ENDBRANCH  10   7
ENDBRANCH  16  12
BRANCH  19  21
ATOM     21  C   UNL     1      -3.004  -1.285  24.417  0.00  0.00    +0.138 C 
ATOM     22  C   UNL     1      -3.283  -1.933  23.988  0.00  0.00    +0.027 C 
ATOM     23  C   UNL     1      -4.105  -1.939  24.042  0.00  0.00    +0.019 C 
ATOM     24  C   UNL     1      -4.336  -1.295  24.503  0.00  0.00    +0.073 C 
ATOM     25  N   UNL     1      -3.655  -0.891  24.735  0.00  0.00    -0.263 NA
BRANCH  25  26
ATOM     26  C   UNL     1      -3.630  -0.212  25.203  0.00  0.00    +0.099 C 
BRANCH  26  27
ATOM     27  C   UNL     1      -4.230   0.351  25.146  0.00  0.00    -0.006 A 
ATOM     28  C   UNL     1      -4.198   0.932  24.562  0.00  0.00    -0.003 A 
ATOM     29  C   UNL     1      -4.799   1.495  24.506  0.00  0.00    +0.006 A 
ATOM     30  C   UNL     1      -5.432   1.476  25.034  0.00  0.00    +0.080 A 
ATOM     31  C   UNL     1      -5.465   0.894  25.618  0.00  0.00    +0.006 A 
ATOM     32  C   UNL     1      -4.864   0.332  25.675  0.00  0.00    -0.003 A 
BRANCH  30  33
ATOM     33  C   UNL     1      -6.033   2.039  24.978  0.00  0.00    +0.388 C 
ATOM     34  O   UNL     1      -5.916   2.799  25.277  0.00  0.00    -0.241 OA
ATOM     35  O   UNL     1      -6.751   1.841  24.622  0.00  0.00    -0.241 OA
ENDBRANCH  30  33
ENDBRANCH  26  27
ENDBRANCH  25  26
ENDBRANCH  19  21
TORSDOF 7
ENDMDL
