REMARK  Name = 
REMARK  7 active torsions:
REMARK  status: ('A' for Active; 'I' for Inactive)
REMARK    1  A    between atoms: C_2  and  C_3
REMARK    2  A    between atoms: C_3  and  S_4
REMARK    3  A    between atoms: S_4  and  N_7
REMARK    4  A    between atoms: C_12  and  C_13
REMARK    5  A    between atoms: C_13  and  O_15
REMARK    6  A    between atoms: N_19  and  C_20
REMARK    7  A    between atoms: C_20  and  C_21
REMARK                            x       y       z     vdW  Elec       q    Type
REMARK                         _______ _______ _______ _____ _____    ______ ____
ROOT
ATOM      7  N   UNL     1       2.070   1.110   0.000  0.00  0.00    -0.144 NA
ATOM      8  C   UNL     1       1.356   0.698   0.000  0.00  0.00    +0.141 C 
ATOM      9  C   UNL     1       0.641   1.110   0.000  0.00  0.00    +0.070 A 
ATOM     10  C   UNL     1       0.641   1.935   0.000  0.00  0.00    +0.076 A 
ATOM     11  C   UNL     1       1.356   2.348   0.000  0.00  0.00    +0.076 C 
ATOM     12  C   UNL     1       2.070   1.935   0.000  0.00  0.00    +0.184 C 
ATOM     17  N   UNL     1      -0.143   2.190   0.000  0.00  0.00    -0.229 NA
ATOM     18  C   UNL     1      -0.628   1.523   0.000  0.00  0.00    +0.178 A 
ATOM     19  N   UNL     1      -0.143   0.856   0.000  0.00  0.00    -0.307 N 
ENDROOT
BRANCH   7   4
ATOM      4  S   UNL     1       2.784   0.698   0.000  0.00  0.00    +0.045 S 
ATOM      5  O   UNL     1       3.197   1.412   0.000  0.00  0.00    -0.157 OA
ATOM      6  O   UNL     1       2.372  -0.017   0.000  0.00  0.00    -0.157 OA
BRANCH   4   3
ATOM      3  C   UNL     1       3.499   0.285   0.000  0.00  0.00    +0.169 C 
BRANCH   3   2
ATOM      1  C   UNL     1       4.928   0.285   0.000  0.00  0.00    +0.002 C 
ATOM      2  C   UNL     1       4.213   0.698   0.000  0.00  0.00    +0.027 C 
ENDBRANCH   3   2
ENDBRANCH   4   3
ENDBRANCH   7   4
BRANCH  12  13
ATOM     13  C   UNL     1       2.784   2.348   0.000  0.00  0.00    +0.334 C 
ATOM     14  O   UNL     1       3.499   1.935   0.000  0.00  0.00    -0.249 OA
BRANCH  13  15
ATOM     15  O   UNL     1       2.784   3.173   0.000  0.00  0.00    -0.443 OA
ATOM     16  C   UNL     1       3.499   3.585   0.000  0.00  0.00    +0.256 C 
ENDBRANCH  13  15
ENDBRANCH  12  13
BRANCH  19  20
ATOM     20  C   UNL     1      -0.398   0.071   0.000  0.00  0.00    +0.134 C 
BRANCH  20  21
ATOM     21  C   UNL     1      -1.205  -0.101   0.000  0.00  0.00    +0.000 A 
ATOM     22  C   UNL     1      -1.460  -0.885   0.000  0.00  0.00    -0.002 A 
ATOM     23  C   UNL     1      -2.267  -1.057   0.000  0.00  0.00    +0.011 A 
ATOM     24  C   UNL     1      -2.819  -0.444   0.000  0.00  0.00    +0.058 A 
ATOM     25 CL   UNL     1      -3.626  -0.615   0.000  0.00  0.00    -0.082 Cl
ATOM     26  C   UNL     1      -2.564   0.341   0.000  0.00  0.00    +0.011 A 
ATOM     27  C   UNL     1      -1.758   0.512   0.000  0.00  0.00    -0.002 A 
ENDBRANCH  20  21
ENDBRANCH  19  20
TORSDOF 7
