MODEL 1
REMARK VINA RESULT:     -15.1      0.000      0.000
REMARK  Name = 
REMARK  5 active torsions:
REMARK  status: ('A' for Active; 'I' for Inactive)
REMARK    1  A    between atoms: C_2  and  C_3
REMARK    2  A    between atoms: C_11  and  C_12
REMARK    3  A    between atoms: C_12  and  C_13
REMARK    4  A    between atoms: N_15  and  C_16
REMARK    5  A    between atoms: C_28  and  C_30
REMARK                            x       y       z     vdW  Elec       q    Type
REMARK                         _______ _______ _______ _____ _____    ______ ____
ROOT
ATOM      1  C   UNL     1      -2.959  -2.982  24.623  0.00  0.00    +0.005 C 
ATOM      2  C   UNL     1      -3.026  -2.167  24.518  0.00  0.00    +0.059 C 
ATOM      5  C   UNL     1      -3.754  -2.410  24.217  0.00  0.00    +0.154 C 
ATOM      6  O   UNL     1      -3.949  -3.212  24.205  0.00  0.00    -0.223 OA
ATOM      7  C   UNL     1      -4.289  -1.851  23.928  0.00  0.00    +0.033 C 
ATOM      8  C   UNL     1      -4.094  -1.050  23.940  0.00  0.00    +0.003 C 
ATOM      9  C   UNL     1      -3.366  -0.807  24.241  0.00  0.00    +0.006 C 
ATOM     10  C   UNL     1      -3.900  -0.249  23.952  0.00  0.00    +0.000 C 
ATOM     11  C   UNL     1      -3.171  -0.005  24.253  0.00  0.00    +0.050 C 
ATOM     23  C   UNL     1      -2.443   0.238  24.553  0.00  0.00    +0.062 A 
ATOM     24  C   UNL     1      -1.908  -0.321  24.843  0.00  0.00    +0.022 A 
ATOM     25  C   UNL     1      -2.103  -1.122  24.831  0.00  0.00    +0.034 C 
ATOM     26  C   UNL     1      -2.832  -1.366  24.530  0.00  0.00    +0.010 C 
ATOM     27  S   UNL     1      -1.237   0.081  25.104  0.00  0.00    -0.071 S 
ATOM     28  C   UNL     1      -1.355   0.887  24.976  0.00  0.00    +0.111 A 
ATOM     29  N   UNL     1      -2.100   0.984  24.636  0.00  0.00    -0.243 NA
ENDROOT
BRANCH  28  30
ATOM     30  C   UNL     1      -0.822   1.491  25.157  0.00  0.00    +0.031 A 
ATOM     31  C   UNL     1      -0.215   1.763  24.670  0.00  0.00    +0.037 A 
ATOM     32  S   UNL     1       0.179   2.368  25.068  0.00  0.00    -0.086 S 
ATOM     33  C   UNL     1      -0.185   2.469  25.802  0.00  0.00    +0.036 A 
ATOM     34  C   UNL     1      -0.803   1.927  25.856  0.00  0.00    +0.010 A 
ENDBRANCH  28  30
BRANCH   2   3
ATOM      3  C   UNL     1      -2.275  -2.207  24.855  0.00  0.00    +0.184 C 
ATOM      4  O   UNL     1      -1.920  -2.941  24.986  0.00  0.00    -0.220 OA
ENDBRANCH   2   3
BRANCH  11  12
ATOM     12  C   UNL     1      -3.705   0.553  23.964  0.00  0.00    +0.093 C 
BRANCH  12  13
ATOM     13  C   UNL     1      -4.071   1.082  24.482  0.00  0.00    +0.246 C 
ATOM     14  O   UNL     1      -4.189   0.871  25.270  0.00  0.00    -0.273 OA
ATOM     15  N   UNL     1      -4.318   1.820  24.211  0.00  0.00    -0.179 NA
BRANCH  15  16
ATOM     16  C   UNL     1      -4.684   2.349  24.729  0.00  0.00    +0.077 A 
ATOM     17  C   UNL     1      -4.269   3.006  25.006  0.00  0.00    +0.059 A 
ATOM     18  C   UNL     1      -4.635   3.535  25.524  0.00  0.00    +0.197 A 
ATOM     19  O   UNL     1      -4.221   4.193  25.801  0.00  0.00    -0.287 OA
ATOM     20  C   UNL     1      -5.413   3.406  25.764  0.00  0.00    +0.042 A 
ATOM     21  C   UNL     1      -5.827   2.748  25.486  0.00  0.00    +0.005 A 
ATOM     22  C   UNL     1      -5.462   2.220  24.969  0.00  0.00    +0.017 A 
ENDBRANCH  15  16
ENDBRANCH  12  13
ENDBRANCH  11  12
TORSDOF 5
ENDMDL
MODEL 2
REMARK VINA RESULT:     -14.4      1.889      4.766
REMARK  Name = 
REMARK  5 active torsions:
REMARK  status: ('A' for Active; 'I' for Inactive)
REMARK    1  A    between atoms: C_2  and  C_3
REMARK    2  A    between atoms: C_11  and  C_12
REMARK    3  A    between atoms: C_12  and  C_13
REMARK    4  A    between atoms: N_15  and  C_16
REMARK    5  A    between atoms: C_28  and  C_30
REMARK                            x       y       z     vdW  Elec       q    Type
REMARK                         _______ _______ _______ _____ _____    ______ ____
ROOT
ATOM      1  C   UNL     1      -5.827   3.070  25.800  0.00  0.00    +0.005 C 
ATOM      2  C   UNL     1      -5.246   2.682  25.362  0.00  0.00    +0.059 C 
ATOM      5  C   UNL     1      -5.057   3.466  25.188  0.00  0.00    +0.154 C 
ATOM      6  O   UNL     1      -5.503   4.080  25.512  0.00  0.00    -0.223 OA
ATOM      7  C   UNL     1      -4.423   3.636  24.688  0.00  0.00    +0.033 C 
ATOM      8  C   UNL     1      -3.977   3.023  24.363  0.00  0.00    +0.003 C 
ATOM      9  C   UNL     1      -4.165   2.239  24.538  0.00  0.00    +0.006 C 
ATOM     10  C   UNL     1      -3.532   2.410  24.039  0.00  0.00    +0.000 C 
ATOM     11  C   UNL     1      -3.720   1.625  24.213  0.00  0.00    +0.050 C 
ATOM     23  C   UNL     1      -3.908   0.842  24.388  0.00  0.00    +0.062 A 
ATOM     24  C   UNL     1      -4.543   0.671  24.888  0.00  0.00    +0.022 A 
ATOM     25  C   UNL     1      -4.988   1.285  25.212  0.00  0.00    +0.034 C 
ATOM     26  C   UNL     1      -4.800   2.069  25.038  0.00  0.00    +0.010 C 
ATOM     27  S   UNL     1      -4.597  -0.149  24.960  0.00  0.00    -0.071 S 
ATOM     28  C   UNL     1      -3.997  -0.486  24.505  0.00  0.00    +0.111 A 
ATOM     29  N   UNL     1      -3.571   0.126  24.152  0.00  0.00    -0.243 NA
ENDROOT
BRANCH  28  30
ATOM     30  C   UNL     1      -3.848  -1.292  24.418  0.00  0.00    +0.031 A 
ATOM     31  C   UNL     1      -3.333  -1.743  24.879  0.00  0.00    +0.037 A 
ATOM     32  S   UNL     1      -3.355  -2.519  24.602  0.00  0.00    -0.086 S 
ATOM     33  C   UNL     1      -3.884  -2.548  23.969  0.00  0.00    +0.036 A 
ATOM     34  C   UNL     1      -4.189  -1.791  23.856  0.00  0.00    +0.010 A 
ENDBRANCH  28  30
BRANCH   2   3
ATOM      3  C   UNL     1      -5.636   2.033  25.689  0.00  0.00    +0.184 C 
ATOM      4  O   UNL     1      -6.242   2.149  26.238  0.00  0.00    -0.220 OA
ENDBRANCH   2   3
BRANCH  11  12
ATOM     12  C   UNL     1      -3.086   1.796  23.714  0.00  0.00    +0.093 C 
BRANCH  12  13
ATOM     13  C   UNL     1      -2.313   1.642  23.961  0.00  0.00    +0.246 C 
ATOM     14  O   UNL     1      -2.139   1.594  24.766  0.00  0.00    -0.273 OA
ATOM     15  N   UNL     1      -1.716   1.536  23.403  0.00  0.00    -0.179 NA
BRANCH  15  16
ATOM     16  C   UNL     1      -0.943   1.382  23.649  0.00  0.00    +0.077 A 
ATOM     17  C   UNL     1      -0.621   0.630  23.544  0.00  0.00    +0.059 A 
ATOM     18  C   UNL     1       0.152   0.475  23.790  0.00  0.00    +0.197 A 
ATOM     19  O   UNL     1       0.476  -0.277  23.686  0.00  0.00    -0.287 OA
ATOM     20  C   UNL     1       0.601   1.073  24.140  0.00  0.00    +0.042 A 
ATOM     21  C   UNL     1       0.277   1.825  24.244  0.00  0.00    +0.005 A 
ATOM     22  C   UNL     1      -0.495   1.979  23.999  0.00  0.00    +0.017 A 
ENDBRANCH  15  16
ENDBRANCH  12  13
ENDBRANCH  11  12
TORSDOF 5
ENDMDL
MODEL 3
REMARK VINA RESULT:     -13.9      1.504      3.325
REMARK  Name = 
REMARK  5 active torsions:
REMARK  status: ('A' for Active; 'I' for Inactive)
REMARK    1  A    between atoms: C_2  and  C_3
REMARK    2  A    between atoms: C_11  and  C_12
REMARK    3  A    between atoms: C_12  and  C_13
REMARK    4  A    between atoms: N_15  and  C_16
REMARK    5  A    between atoms: C_28  and  C_30
REMARK                            x       y       z     vdW  Elec       q    Type
REMARK                         _______ _______ _______ _____ _____    ______ ____
ROOT
ATOM      1  C   UNL     1      -3.871  -2.729  23.921  0.00  0.00    +0.005 C 
ATOM      2  C   UNL     1      -3.570  -2.041  24.261  0.00  0.00    +0.059 C 
ATOM      5  C   UNL     1      -2.930  -2.548  24.374  0.00  0.00    +0.154 C 
ATOM      6  O   UNL     1      -2.971  -3.330  24.114  0.00  0.00    -0.223 OA
ATOM      7  C   UNL     1      -2.246  -2.273  24.747  0.00  0.00    +0.033 C 
ATOM      8  C   UNL     1      -2.205  -1.492  25.007  0.00  0.00    +0.003 C 
ATOM      9  C   UNL     1      -2.845  -0.985  24.895  0.00  0.00    +0.006 C 
ATOM     10  C   UNL     1      -2.163  -0.711  25.267  0.00  0.00    +0.000 C 
ATOM     11  C   UNL     1      -2.803  -0.203  25.155  0.00  0.00    +0.050 C 
ATOM     23  C   UNL     1      -3.444   0.304  25.043  0.00  0.00    +0.062 A 
ATOM     24  C   UNL     1      -4.127   0.029  24.669  0.00  0.00    +0.022 A 
ATOM     25  C   UNL     1      -4.169  -0.752  24.409  0.00  0.00    +0.034 C 
ATOM     26  C   UNL     1      -3.528  -1.260  24.521  0.00  0.00    +0.010 C 
ATOM     27  S   UNL     1      -4.667   0.653  24.636  0.00  0.00    -0.071 S 
ATOM     28  C   UNL     1      -4.318   1.312  24.987  0.00  0.00    +0.111 A 
ATOM     29  N   UNL     1      -3.562   1.097  25.239  0.00  0.00    -0.243 NA
ENDROOT
BRANCH  28  30
ATOM     30  C   UNL     1      -4.664   2.056  25.072  0.00  0.00    +0.031 A 
ATOM     31  C   UNL     1      -5.215   2.272  25.647  0.00  0.00    +0.037 A 
ATOM     32  S   UNL     1      -5.411   3.064  25.528  0.00  0.00    -0.086 S 
ATOM     33  C   UNL     1      -4.980   3.338  24.879  0.00  0.00    +0.036 A 
ATOM     34  C   UNL     1      -4.519   2.716  24.599  0.00  0.00    +0.010 A 
ENDBRANCH  28  30
BRANCH   2   3
ATOM      3  C   UNL     1      -4.315  -1.773  24.031  0.00  0.00    +0.184 C 
ATOM      4  O   UNL     1      -4.814  -2.265  23.594  0.00  0.00    -0.220 OA
ENDBRANCH   2   3
BRANCH  11  12
ATOM     12  C   UNL     1      -2.121   0.072  25.528  0.00  0.00    +0.093 C 
BRANCH  12  13
ATOM     13  C   UNL     1      -1.661   0.657  25.170  0.00  0.00    +0.246 C 
ATOM     14  O   UNL     1      -1.653   0.728  24.348  0.00  0.00    -0.273 OA
ATOM     15  N   UNL     1      -1.211   1.168  25.633  0.00  0.00    -0.179 NA
BRANCH  15  16
ATOM     16  C   UNL     1      -0.752   1.753  25.275  0.00  0.00    +0.077 A 
ATOM     17  C   UNL     1      -0.954   2.547  25.365  0.00  0.00    +0.059 A 
ATOM     18  C   UNL     1      -0.495   3.133  25.008  0.00  0.00    +0.197 A 
ATOM     19  O   UNL     1      -0.698   3.928  25.098  0.00  0.00    -0.287 OA
ATOM     20  C   UNL     1       0.166   2.923  24.561  0.00  0.00    +0.042 A 
ATOM     21  C   UNL     1       0.367   2.128  24.471  0.00  0.00    +0.005 A 
ATOM     22  C   UNL     1      -0.091   1.543  24.828  0.00  0.00    +0.017 A 
ENDBRANCH  15  16
ENDBRANCH  12  13
ENDBRANCH  11  12
TORSDOF 5
ENDMDL
MODEL 4
REMARK VINA RESULT:     -13.7      1.049      4.220
REMARK  Name = 
REMARK  5 active torsions:
REMARK  status: ('A' for Active; 'I' for Inactive)
REMARK    1  A    between atoms: C_2  and  C_3
REMARK    2  A    between atoms: C_11  and  C_12
REMARK    3  A    between atoms: C_12  and  C_13
REMARK    4  A    between atoms: N_15  and  C_16
REMARK    5  A    between atoms: C_28  and  C_30
REMARK                            x       y       z     vdW  Elec       q    Type
REMARK                         _______ _______ _______ _____ _____    ______ ____
ROOT
ATOM      1  C   UNL     1      -4.807   3.818  25.903  0.00  0.00    +0.005 C 
ATOM      2  C   UNL     1      -4.482   3.182  25.489  0.00  0.00    +0.059 C 
ATOM      5  C   UNL     1      -5.283   2.998  25.429  0.00  0.00    +0.154 C 
ATOM      6  O   UNL     1      -5.849   3.492  25.772  0.00  0.00    -0.223 OA
ATOM      7  C   UNL     1      -5.521   2.317  25.026  0.00  0.00    +0.033 C 
ATOM      8  C   UNL     1      -4.957   1.823  24.684  0.00  0.00    +0.003 C 
ATOM      9  C   UNL     1      -4.156   2.008  24.744  0.00  0.00    +0.006 C 
ATOM     10  C   UNL     1      -4.393   1.328  24.342  0.00  0.00    +0.000 C 
ATOM     11  C   UNL     1      -3.591   1.513  24.402  0.00  0.00    +0.050 C 
ATOM     23  C   UNL     1      -2.790   1.698  24.462  0.00  0.00    +0.062 A 
ATOM     24  C   UNL     1      -2.552   2.379  24.865  0.00  0.00    +0.022 A 
ATOM     25  C   UNL     1      -3.116   2.873  25.207  0.00  0.00    +0.034 C 
ATOM     26  C   UNL     1      -3.918   2.688  25.147  0.00  0.00    +0.010 C 
ATOM     27  S   UNL     1      -1.728   2.418  24.834  0.00  0.00    -0.071 S 
ATOM     28  C   UNL     1      -1.457   1.763  24.413  0.00  0.00    +0.111 A 
ATOM     29  N   UNL     1      -2.112   1.319  24.183  0.00  0.00    -0.243 NA
ENDROOT
BRANCH  28  30
ATOM     30  C   UNL     1      -0.668   1.584  24.250  0.00  0.00    +0.031 A 
ATOM     31  C   UNL     1      -0.396   0.930  23.828  0.00  0.00    +0.037 A 
ATOM     32  S   UNL     1       0.427   0.969  23.797  0.00  0.00    -0.086 S 
ATOM     33  C   UNL     1       0.664   1.650  24.201  0.00  0.00    +0.036 A 
ATOM     34  C   UNL     1      -0.012   2.029  24.480  0.00  0.00    +0.010 A 
ENDBRANCH  28  30
BRANCH   2   3
ATOM      3  C   UNL     1      -3.794   3.589  25.693  0.00  0.00    +0.184 C 
ATOM      4  O   UNL     1      -3.837   4.259  26.173  0.00  0.00    -0.220 OA
ENDBRANCH   2   3
BRANCH  11  12
ATOM     12  C   UNL     1      -3.828   0.833  23.999  0.00  0.00    +0.093 C 
BRANCH  12  13
ATOM     13  C   UNL     1      -3.673   0.088  24.320  0.00  0.00    +0.246 C 
ATOM     14  O   UNL     1      -3.601  -0.002  25.137  0.00  0.00    -0.273 OA
ATOM     15  N   UNL     1      -3.589  -0.564  23.824  0.00  0.00    -0.179 NA
BRANCH  15  16
ATOM     16  C   UNL     1      -3.434  -1.309  24.143  0.00  0.00    +0.077 A 
ATOM     17  C   UNL     1      -2.654  -1.563  24.234  0.00  0.00    +0.059 A 
ATOM     18  C   UNL     1      -2.498  -2.309  24.553  0.00  0.00    +0.197 A 
ATOM     19  O   UNL     1      -1.718  -2.564  24.644  0.00  0.00    -0.287 OA
ATOM     20  C   UNL     1      -3.122  -2.798  24.783  0.00  0.00    +0.042 A 
ATOM     21  C   UNL     1      -3.901  -2.542  24.692  0.00  0.00    +0.005 A 
ATOM     22  C   UNL     1      -4.057  -1.798  24.373  0.00  0.00    +0.017 A 
ENDBRANCH  15  16
ENDBRANCH  12  13
ENDBRANCH  11  12
TORSDOF 5
ENDMDL
MODEL 5
REMARK VINA RESULT:     -12.6      1.961      5.112
REMARK  Name = 
REMARK  5 active torsions:
REMARK  status: ('A' for Active; 'I' for Inactive)
REMARK    1  A    between atoms: C_2  and  C_3
REMARK    2  A    between atoms: C_11  and  C_12
REMARK    3  A    between atoms: C_12  and  C_13
REMARK    4  A    between atoms: N_15  and  C_16
REMARK    5  A    between atoms: C_28  and  C_30
REMARK                            x       y       z     vdW  Elec       q    Type
REMARK                         _______ _______ _______ _____ _____    ______ ____
ROOT
ATOM      1  C   UNL     1      -0.878   4.544  25.071  0.00  0.00    +0.005 C 
ATOM      2  C   UNL     1      -1.323   3.879  24.871  0.00  0.00    +0.059 C 
ATOM      5  C   UNL     1      -0.598   3.672  24.537  0.00  0.00    +0.154 C 
ATOM      6  O   UNL     1       0.046   4.184  24.596  0.00  0.00    -0.223 OA
ATOM      7  C   UNL     1      -0.517   2.951  24.143  0.00  0.00    +0.033 C 
ATOM      8  C   UNL     1      -1.160   2.438  24.083  0.00  0.00    +0.003 C 
ATOM      9  C   UNL     1      -1.884   2.645  24.418  0.00  0.00    +0.006 C 
ATOM     10  C   UNL     1      -1.803   1.926  24.024  0.00  0.00    +0.000 C 
ATOM     11  C   UNL     1      -2.529   2.133  24.358  0.00  0.00    +0.050 C 
ATOM     23  C   UNL     1      -3.253   2.340  24.693  0.00  0.00    +0.062 A 
ATOM     24  C   UNL     1      -3.335   3.061  25.087  0.00  0.00    +0.022 A 
ATOM     25  C   UNL     1      -2.691   3.573  25.147  0.00  0.00    +0.034 C 
ATOM     26  C   UNL     1      -1.966   3.367  24.812  0.00  0.00    +0.010 C 
ATOM     27  S   UNL     1      -4.111   3.115  25.360  0.00  0.00    -0.071 S 
ATOM     28  C   UNL     1      -4.510   2.429  25.135  0.00  0.00    +0.111 A 
ATOM     29  N   UNL     1      -3.980   1.951  24.723  0.00  0.00    -0.243 NA
ENDROOT
BRANCH  28  30
ATOM     30  C   UNL     1      -5.300   2.253  25.294  0.00  0.00    +0.031 A 
ATOM     31  C   UNL     1      -5.672   2.310  26.028  0.00  0.00    +0.037 A 
ATOM     32  S   UNL     1      -6.458   2.081  25.935  0.00  0.00    -0.086 S 
ATOM     33  C   UNL     1      -6.573   1.882  25.141  0.00  0.00    +0.036 A 
ATOM     34  C   UNL     1      -5.858   1.989  24.746  0.00  0.00    +0.010 A 
ENDBRANCH  28  30
BRANCH   2   3
ATOM      3  C   UNL     1      -1.893   4.317  25.275  0.00  0.00    +0.184 C 
ATOM      4  O   UNL     1      -1.722   5.085  25.527  0.00  0.00    -0.220 OA
ENDBRANCH   2   3
BRANCH  11  12
ATOM     12  C   UNL     1      -2.447   1.413  23.964  0.00  0.00    +0.093 C 
BRANCH  12  13
ATOM     13  C   UNL     1      -2.492   0.704  24.386  0.00  0.00    +0.246 C 
ATOM     14  O   UNL     1      -2.257   0.679  25.176  0.00  0.00    -0.273 OA
ATOM     15  N   UNL     1      -2.772   0.023  24.017  0.00  0.00    -0.179 NA
BRANCH  15  16
ATOM     16  C   UNL     1      -2.818  -0.686  24.437  0.00  0.00    +0.077 A 
ATOM     17  C   UNL     1      -2.174  -1.201  24.447  0.00  0.00    +0.059 A 
ATOM     18  C   UNL     1      -2.219  -1.910  24.867  0.00  0.00    +0.197 A 
ATOM     19  O   UNL     1      -1.574  -2.425  24.877  0.00  0.00    -0.287 OA
ATOM     20  C   UNL     1      -2.908  -2.103  25.278  0.00  0.00    +0.042 A 
ATOM     21  C   UNL     1      -3.552  -1.587  25.267  0.00  0.00    +0.005 A 
ATOM     22  C   UNL     1      -3.507  -0.879  24.848  0.00  0.00    +0.017 A 
ENDBRANCH  15  16
ENDBRANCH  12  13
ENDBRANCH  11  12
TORSDOF 5
ENDMDL
MODEL 6
REMARK VINA RESULT:     -12.4      1.589      4.281
REMARK  Name = 
REMARK  5 active torsions:
REMARK  status: ('A' for Active; 'I' for Inactive)
REMARK    1  A    between atoms: C_2  and  C_3
REMARK    2  A    between atoms: C_11  and  C_12
REMARK    3  A    between atoms: C_12  and  C_13
REMARK    4  A    between atoms: N_15  and  C_16
REMARK    5  A    between atoms: C_28  and  C_30
REMARK                            x       y       z     vdW  Elec       q    Type
REMARK                         _______ _______ _______ _____ _____    ______ ____
ROOT
ATOM      1  C   UNL     1      -6.268   2.605  25.761  0.00  0.00    +0.005 C 
ATOM      2  C   UNL     1      -5.543   2.401  25.423  0.00  0.00    +0.059 C 
ATOM      5  C   UNL     1      -5.988   1.738  25.218  0.00  0.00    +0.154 C 
ATOM      6  O   UNL     1      -6.780   1.685  25.444  0.00  0.00    -0.223 OA
ATOM      7  C   UNL     1      -5.640   1.125  24.787  0.00  0.00    +0.033 C 
ATOM      8  C   UNL     1      -4.849   1.177  24.562  0.00  0.00    +0.003 C 
ATOM      9  C   UNL     1      -4.405   1.840  24.767  0.00  0.00    +0.006 C 
ATOM     10  C   UNL     1      -4.058   1.229  24.337  0.00  0.00    +0.000 C 
ATOM     11  C   UNL     1      -3.612   1.892  24.541  0.00  0.00    +0.050 C 
ATOM     23  C   UNL     1      -3.168   2.556  24.746  0.00  0.00    +0.062 A 
ATOM     24  C   UNL     1      -3.515   3.169  25.177  0.00  0.00    +0.022 A 
ATOM     25  C   UNL     1      -4.307   3.117  25.402  0.00  0.00    +0.034 C 
ATOM     26  C   UNL     1      -4.752   2.453  25.198  0.00  0.00    +0.010 C 
ATOM     27  S   UNL     1      -2.943   3.750  25.298  0.00  0.00    -0.071 S 
ATOM     28  C   UNL     1      -2.243   3.498  24.943  0.00  0.00    +0.111 A 
ATOM     29  N   UNL     1      -2.382   2.761  24.602  0.00  0.00    -0.243 NA
ENDROOT
BRANCH  28  30
ATOM     30  C   UNL     1      -1.529   3.912  24.930  0.00  0.00    +0.031 A 
ATOM     31  C   UNL     1      -0.775   3.578  24.896  0.00  0.00    +0.037 A 
ATOM     32  S   UNL     1      -0.224   4.190  24.895  0.00  0.00    -0.086 S 
ATOM     33  C   UNL     1      -0.637   4.905  24.929  0.00  0.00    +0.036 A 
ATOM     34  C   UNL     1      -1.442   4.732  24.950  0.00  0.00    +0.010 A 
ENDBRANCH  28  30
BRANCH   2   3
ATOM      3  C   UNL     1      -5.350   3.136  25.745  0.00  0.00    +0.184 C 
ATOM      4  O   UNL     1      -5.933   3.591  26.112  0.00  0.00    -0.220 OA
ENDBRANCH   2   3
BRANCH  11  12
ATOM     12  C   UNL     1      -3.265   1.280  24.111  0.00  0.00    +0.093 C 
BRANCH  12  13
ATOM     13  C   UNL     1      -2.745   0.758  24.482  0.00  0.00    +0.246 C 
ATOM     14  O   UNL     1      -2.744   0.692  25.304  0.00  0.00    -0.273 OA
ATOM     15  N   UNL     1      -2.226   0.303  24.031  0.00  0.00    -0.179 NA
BRANCH  15  16
ATOM     16  C   UNL     1      -1.705  -0.219  24.401  0.00  0.00    +0.077 A 
ATOM     17  C   UNL     1      -1.919  -1.009  24.503  0.00  0.00    +0.059 A 
ATOM     18  C   UNL     1      -1.398  -1.532  24.874  0.00  0.00    +0.197 A 
ATOM     19  O   UNL     1      -1.611  -2.323  24.975  0.00  0.00    -0.287 OA
ATOM     20  C   UNL     1      -0.665  -1.264  25.142  0.00  0.00    +0.042 A 
ATOM     21  C   UNL     1      -0.453  -0.473  25.040  0.00  0.00    +0.005 A 
ATOM     22  C   UNL     1      -0.973   0.049  24.670  0.00  0.00    +0.017 A 
ENDBRANCH  15  16
ENDBRANCH  12  13
ENDBRANCH  11  12
TORSDOF 5
ENDMDL
MODEL 7
REMARK VINA RESULT:     -11.9      1.686      3.612
REMARK  Name = 
REMARK  5 active torsions:
REMARK  status: ('A' for Active; 'I' for Inactive)
REMARK    1  A    between atoms: C_2  and  C_3
REMARK    2  A    between atoms: C_11  and  C_12
REMARK    3  A    between atoms: C_12  and  C_13
REMARK    4  A    between atoms: N_15  and  C_16
REMARK    5  A    between atoms: C_28  and  C_30
REMARK                            x       y       z     vdW  Elec       q    Type
REMARK                         _______ _______ _______ _____ _____    ______ ____
ROOT
ATOM      1  C   UNL     1       0.449   2.183  24.379  0.00  0.00    +0.005 C 
ATOM      2  C   UNL     1      -0.346   1.978  24.295  0.00  0.00    +0.059 C 
ATOM      5  C   UNL     1      -0.380   2.775  24.084  0.00  0.00    +0.154 C 
ATOM      6  O   UNL     1       0.307   3.232  24.084  0.00  0.00    -0.223 OA
ATOM      7  C   UNL     1      -1.102   3.115  23.871  0.00  0.00    +0.033 C 
ATOM      8  C   UNL     1      -1.788   2.658  23.871  0.00  0.00    +0.003 C 
ATOM      9  C   UNL     1      -1.754   1.862  24.082  0.00  0.00    +0.006 C 
ATOM     10  C   UNL     1      -2.475   2.201  23.870  0.00  0.00    +0.000 C 
ATOM     11  C   UNL     1      -2.441   1.404  24.082  0.00  0.00    +0.050 C 
ATOM     23  C   UNL     1      -2.407   0.608  24.293  0.00  0.00    +0.062 A 
ATOM     24  C   UNL     1      -1.685   0.268  24.505  0.00  0.00    +0.022 A 
ATOM     25  C   UNL     1      -0.998   0.725  24.506  0.00  0.00    +0.034 C 
ATOM     26  C   UNL     1      -1.032   1.522  24.294  0.00  0.00    +0.010 C 
ATOM     27  S   UNL     1      -1.821  -0.525  24.686  0.00  0.00    -0.071 S 
ATOM     28  C   UNL     1      -2.626  -0.676  24.586  0.00  0.00    +0.111 A 
ATOM     29  N   UNL     1      -2.987   0.024  24.343  0.00  0.00    -0.243 NA
ENDROOT
BRANCH  28  30
ATOM     30  C   UNL     1      -3.002  -1.400  24.708  0.00  0.00    +0.031 A 
ATOM     31  C   UNL     1      -3.189  -1.953  24.126  0.00  0.00    +0.037 A 
ATOM     32  S   UNL     1      -3.561  -2.592  24.490  0.00  0.00    -0.086 S 
ATOM     33  C   UNL     1      -3.603  -2.434  25.300  0.00  0.00    +0.036 A 
ATOM     34  C   UNL     1      -3.258  -1.697  25.433  0.00  0.00    +0.010 A 
ENDBRANCH  28  30
BRANCH   2   3
ATOM      3  C   UNL     1      -0.035   1.253  24.535  0.00  0.00    +0.184 C 
ATOM      4  O   UNL     1       0.780   1.163  24.626  0.00  0.00    -0.220 OA
ENDBRANCH   2   3
BRANCH  11  12
ATOM     12  C   UNL     1      -3.162   1.744  23.870  0.00  0.00    +0.093 C 
BRANCH  12  13
ATOM     13  C   UNL     1      -3.729   1.905  24.448  0.00  0.00    +0.246 C 
ATOM     14  O   UNL     1      -3.507   1.947  25.242  0.00  0.00    -0.273 OA
ATOM     15  N   UNL     1      -4.516   2.022  24.233  0.00  0.00    -0.179 NA
BRANCH  15  16
ATOM     16  C   UNL     1      -5.082   2.183  24.811  0.00  0.00    +0.077 A 
ATOM     17  C   UNL     1      -5.217   2.960  25.050  0.00  0.00    +0.059 A 
ATOM     18  C   UNL     1      -5.784   3.122  25.628  0.00  0.00    +0.197 A 
ATOM     19  O   UNL     1      -5.920   3.900  25.867  0.00  0.00    -0.287 OA
ATOM     20  C   UNL     1      -6.215   2.505  25.966  0.00  0.00    +0.042 A 
ATOM     21  C   UNL     1      -6.079   1.727  25.726  0.00  0.00    +0.005 A 
ATOM     22  C   UNL     1      -5.513   1.566  25.149  0.00  0.00    +0.017 A 
ENDBRANCH  15  16
ENDBRANCH  12  13
ENDBRANCH  11  12
TORSDOF 5
ENDMDL
