REMARK  Name = 
REMARK  10 active torsions:
REMARK  status: ('A' for Active; 'I' for Inactive)
REMARK    1  A    between atoms: O_2  and  C_3
REMARK    2  A    between atoms: C_3  and  C_5
REMARK    3  A    between atoms: C_5  and  C_6
REMARK    4  A    between atoms: C_5  and  N_15
REMARK    5  A    between atoms: C_6  and  C_7
REMARK    6  A    between atoms: C_10  and  O_11
REMARK    7  A    between atoms: C_16  and  C_18
REMARK    8  A    between atoms: N_23  and  S_24
REMARK    9  A    between atoms: S_24  and  C_27
REMARK   10  A    between atoms: N_35  and  C_36
REMARK                            x       y       z     vdW  Elec       q    Type
REMARK                         _______ _______ _______ _____ _____    ______ ____
ROOT
ATOM     18  C   UNL     1       1.157  -5.362   0.000  0.00  0.00    +0.177 C 
ATOM     19  C   UNL     1       1.569  -4.648   0.000  0.00  0.00    +0.122 C 
ATOM     20  N   UNL     1       2.394  -4.648   0.000  0.00  0.00    -0.259 N 
ATOM     21  C   UNL     1       2.807  -5.362   0.000  0.00  0.00    +0.114 C 
ATOM     22  C   UNL     1       2.394  -6.077   0.000  0.00  0.00    +0.118 C 
ATOM     23  N   UNL     1       1.569  -6.077   0.000  0.00  0.00    -0.145 NA
ATOM     33  C   UNL     1       2.807  -3.934   0.000  0.00  0.00    +0.328 C 
ATOM     34  O   UNL     1       3.632  -3.934   0.000  0.00  0.00    -0.250 OA
ATOM     35  N   UNL     1       2.394  -3.219   0.000  0.00  0.00    -0.162 NA
ENDROOT
BRANCH  35  36
ATOM     36  C   UNL     1       2.807  -2.505   0.000  0.00  0.00    +0.075 A 
ATOM     37  C   UNL     1       2.394  -1.790   0.000  0.00  0.00    +0.017 A 
ATOM     38  C   UNL     1       2.807  -1.076   0.000  0.00  0.00    +0.001 A 
ATOM     39  C   UNL     1       3.632  -1.076   0.000  0.00  0.00    +0.000 A 
ATOM     40  C   UNL     1       4.044  -1.790   0.000  0.00  0.00    +0.001 A 
ATOM     41  C   UNL     1       3.632  -2.505   0.000  0.00  0.00    +0.017 A 
ENDBRANCH  35  36
BRANCH  18  16
ATOM     15  N   UNL     1      -0.081  -6.077   0.000  0.00  0.00    -0.194 NA
ATOM     16  C   UNL     1       0.332  -5.362   0.000  0.00  0.00    +0.260 C 
ATOM     17  O   UNL     1      -0.081  -4.648   0.000  0.00  0.00    -0.272 OA
BRANCH  15   5
ATOM      5  C   UNL     1      -0.906  -6.077   0.000  0.00  0.00    +0.198 C 
BRANCH   5   3
ATOM      3  C   UNL     1      -1.318  -5.362   0.000  0.00  0.00    +0.337 C 
ATOM      4  O   UNL     1      -0.906  -4.648   0.000  0.00  0.00    -0.248 OA
BRANCH   3   2
ATOM      1  C   UNL     1      -2.556  -4.648   0.000  0.00  0.00    +0.256 C 
ATOM      2  O   UNL     1      -2.143  -5.362   0.000  0.00  0.00    -0.443 OA
ENDBRANCH   3   2
ENDBRANCH   5   3
BRANCH   5   6
ATOM      6  C   UNL     1      -1.318  -6.791   0.000  0.00  0.00    +0.059 C 
BRANCH   6   7
ATOM      7  C   UNL     1      -2.143  -6.791   0.000  0.00  0.00    -0.020 A 
ATOM      8  C   UNL     1      -2.556  -7.506   0.000  0.00  0.00    -0.001 A 
ATOM      9  C   UNL     1      -3.381  -7.506   0.000  0.00  0.00    +0.037 A 
ATOM     10  C   UNL     1      -3.793  -6.791   0.000  0.00  0.00    +0.139 A 
ATOM     13  C   UNL     1      -3.381  -6.077   0.000  0.00  0.00    +0.037 A 
ATOM     14  C   UNL     1      -2.556  -6.077   0.000  0.00  0.00    -0.001 A 
BRANCH  10  11
ATOM     11  O   UNL     1      -4.618  -6.791   0.000  0.00  0.00    -0.471 OA
ATOM     12  C   UNL     1      -5.031  -6.077   0.000  0.00  0.00    +0.252 C 
ENDBRANCH  10  11
ENDBRANCH   6   7
ENDBRANCH   5   6
ENDBRANCH  15   5
ENDBRANCH  18  16
BRANCH  23  24
ATOM     24  S   UNL     1       1.157  -6.791   0.000  0.00  0.00    +0.064 S 
ATOM     25  O   UNL     1       0.744  -7.506   0.000  0.00  0.00    -0.153 OA
ATOM     26  O   UNL     1       0.442  -6.379   0.000  0.00  0.00    -0.153 OA
BRANCH  24  27
ATOM     27  C   UNL     1       1.871  -7.204   0.000  0.00  0.00    +0.122 A 
ATOM     28  C   UNL     1       2.586  -6.791   0.000  0.00  0.00    +0.020 A 
ATOM     29  C   UNL     1       3.300  -7.204   0.000  0.00  0.00    +0.001 A 
ATOM     30  C   UNL     1       3.300  -8.029   0.000  0.00  0.00    +0.000 A 
ATOM     31  C   UNL     1       2.586  -8.441   0.000  0.00  0.00    +0.001 A 
ATOM     32  C   UNL     1       1.871  -8.029   0.000  0.00  0.00    +0.020 A 
ENDBRANCH  24  27
ENDBRANCH  23  24
TORSDOF 10
