MODEL 1
REMARK VINA RESULT:     -13.7      0.000      0.000
REMARK  Name = 
REMARK  7 active torsions:
REMARK  status: ('A' for Active; 'I' for Inactive)
REMARK    1  A    between atoms: C_5  and  C_8
REMARK    2  A    between atoms: C_10  and  C_11
REMARK    3  A    between atoms: C_11  and  C_12
REMARK    4  A    between atoms: C_17  and  C_18
REMARK    5  A    between atoms: C_18  and  C_19
REMARK    6  A    between atoms: N_21  and  C_22
REMARK    7  A    between atoms: C_22  and  C_23
REMARK                            x       y       z     vdW  Elec       q    Type
REMARK                         _______ _______ _______ _____ _____    ______ ____
ROOT
ATOM     12  C   UNL     1      -4.770   2.232  24.766  0.00  0.00    +0.024 C 
ATOM     13  C   UNL     1      -5.435   2.115  25.242  0.00  0.00    +0.089 C 
ATOM     14  N   UNL     1      -5.737   2.740  25.689  0.00  0.00    -0.218 NA
ATOM     15  C   UNL     1      -5.376   3.480  25.661  0.00  0.00    +0.089 C 
ATOM     16  C   UNL     1      -4.711   3.597  25.185  0.00  0.00    +0.019 C 
ATOM     17  C   UNL     1      -4.409   2.972  24.738  0.00  0.00    +0.012 C 
ENDROOT
BRANCH  12  11
ATOM     11  C   UNL     1      -4.468   1.608  24.320  0.00  0.00    +0.051 C 
BRANCH  11  10
ATOM      8  C   UNL     1      -4.192  -0.455  24.795  0.00  0.00    +0.177 A 
ATOM      9  C   UNL     1      -4.174   0.169  24.256  0.00  0.00    +0.058 A 
ATOM     10  C   UNL     1      -4.408   0.855  24.651  0.00  0.00    +0.101 A 
ATOM     29  N   UNL     1      -4.569   0.655  25.435  0.00  0.00    -0.081 NA
ATOM     30  O   UNL     1      -4.436  -0.155  25.524  0.00  0.00    -0.354 OA
BRANCH   8   5
ATOM      1  F   UNL     1      -3.421  -3.599  24.152  0.00  0.00    -0.204 F 
ATOM      2  C   UNL     1      -3.614  -2.813  24.313  0.00  0.00    +0.140 A 
ATOM      3  C   UNL     1      -4.117  -2.399  23.807  0.00  0.00    +0.030 A 
ATOM      4  C   UNL     1      -4.310  -1.613  23.967  0.00  0.00    +0.005 A 
ATOM      5  C   UNL     1      -3.999  -1.241  24.634  0.00  0.00    +0.037 A 
ATOM      6  C   UNL     1      -3.496  -1.654  25.141  0.00  0.00    +0.005 A 
ATOM      7  C   UNL     1      -3.303  -2.440  24.980  0.00  0.00    +0.030 A 
ENDBRANCH   8   5
ENDBRANCH  11  10
ENDBRANCH  12  11
BRANCH  17  18
ATOM     18  C   UNL     1      -3.745   3.090  24.263  0.00  0.00    +0.087 C 
BRANCH  18  19
ATOM     19  C   UNL     1      -3.098   3.510  24.554  0.00  0.00    +0.242 C 
ATOM     20  O   UNL     1      -3.159   4.322  24.688  0.00  0.00    -0.273 OA
ATOM     21  N   UNL     1      -2.389   3.118  24.713  0.00  0.00    -0.201 NA
BRANCH  21  22
ATOM     22  C   UNL     1      -1.742   3.539  25.004  0.00  0.00    +0.141 C 
BRANCH  22  23
ATOM     23  C   UNL     1      -1.063   3.137  25.246  0.00  0.00    -0.001 A 
ATOM     24  C   UNL     1      -0.918   3.015  26.048  0.00  0.00    -0.003 A 
ATOM     25  C   UNL     1      -0.239   2.614  26.289  0.00  0.00    -0.000 A 
ATOM     26  C   UNL     1       0.296   2.332  25.727  0.00  0.00    -0.000 A 
ATOM     27  C   UNL     1       0.150   2.454  24.924  0.00  0.00    -0.000 A 
ATOM     28  C   UNL     1      -0.529   2.856  24.683  0.00  0.00    -0.003 A 
ENDBRANCH  22  23
ENDBRANCH  21  22
ENDBRANCH  18  19
ENDBRANCH  17  18
TORSDOF 7
ENDMDL
MODEL 2
REMARK VINA RESULT:     -13.5      1.511      3.533
REMARK  Name = 
REMARK  7 active torsions:
REMARK  status: ('A' for Active; 'I' for Inactive)
REMARK    1  A    between atoms: C_5  and  C_8
REMARK    2  A    between atoms: C_10  and  C_11
REMARK    3  A    between atoms: C_11  and  C_12
REMARK    4  A    between atoms: C_17  and  C_18
REMARK    5  A    between atoms: C_18  and  C_19
REMARK    6  A    between atoms: N_21  and  C_22
REMARK    7  A    between atoms: C_22  and  C_23
REMARK                            x       y       z     vdW  Elec       q    Type
REMARK                         _______ _______ _______ _____ _____    ______ ____
ROOT
ATOM     12  C   UNL     1      -0.832   1.895  24.903  0.00  0.00    +0.024 C 
ATOM     13  C   UNL     1      -0.260   1.693  25.463  0.00  0.00    +0.089 C 
ATOM     14  N   UNL     1      -0.081   2.215  26.076  0.00  0.00    -0.218 NA
ATOM     15  C   UNL     1      -0.473   2.939  26.130  0.00  0.00    +0.089 C 
ATOM     16  C   UNL     1      -1.044   3.141  25.570  0.00  0.00    +0.019 C 
ATOM     17  C   UNL     1      -1.223   2.619  24.956  0.00  0.00    +0.012 C 
ENDROOT
BRANCH  12  11
ATOM     11  C   UNL     1      -1.011   1.373  24.290  0.00  0.00    +0.051 C 
BRANCH  11  10
ATOM      8  C   UNL     1      -1.619  -0.637  24.670  0.00  0.00    +0.177 A 
ATOM      9  C   UNL     1      -1.798   0.153  24.517  0.00  0.00    +0.058 A 
ATOM     10  C   UNL     1      -1.088   0.567  24.443  0.00  0.00    +0.101 A 
ATOM     29  N   UNL     1      -0.469   0.032  24.550  0.00  0.00    -0.081 NA
ATOM     30  O   UNL     1      -0.797  -0.713  24.690  0.00  0.00    -0.354 OA
BRANCH   8   5
ATOM      1  F   UNL     1      -3.801  -3.071  25.120  0.00  0.00    -0.204 F 
ATOM      2  C   UNL     1      -3.255  -2.463  25.007  0.00  0.00    +0.140 A 
ATOM      3  C   UNL     1      -2.556  -2.606  24.595  0.00  0.00    +0.030 A 
ATOM      4  C   UNL     1      -2.010  -1.998  24.482  0.00  0.00    +0.005 A 
ATOM      5  C   UNL     1      -2.164  -1.246  24.782  0.00  0.00    +0.037 A 
ATOM      6  C   UNL     1      -2.864  -1.101  25.195  0.00  0.00    +0.005 A 
ATOM      7  C   UNL     1      -3.409  -1.709  25.308  0.00  0.00    +0.030 A 
ENDBRANCH   8   5
ENDBRANCH  11  10
ENDBRANCH  12  11
BRANCH  17  18
ATOM     18  C   UNL     1      -1.795   2.821  24.397  0.00  0.00    +0.087 C 
BRANCH  18  19
ATOM     19  C   UNL     1      -2.465   3.244  24.626  0.00  0.00    +0.242 C 
ATOM     20  O   UNL     1      -2.405   4.047  24.805  0.00  0.00    -0.273 OA
ATOM     21  N   UNL     1      -3.195   2.863  24.675  0.00  0.00    -0.201 NA
BRANCH  21  22
ATOM     22  C   UNL     1      -3.866   3.286  24.904  0.00  0.00    +0.141 C 
BRANCH  22  23
ATOM     23  C   UNL     1      -4.565   2.886  25.082  0.00  0.00    -0.001 A 
ATOM     24  C   UNL     1      -4.832   2.279  24.591  0.00  0.00    -0.003 A 
ATOM     25  C   UNL     1      -5.530   1.880  24.769  0.00  0.00    -0.000 A 
ATOM     26  C   UNL     1      -5.965   2.087  25.440  0.00  0.00    -0.000 A 
ATOM     27  C   UNL     1      -5.698   2.693  25.931  0.00  0.00    -0.000 A 
ATOM     28  C   UNL     1      -4.999   3.093  25.753  0.00  0.00    -0.003 A 
ENDBRANCH  22  23
ENDBRANCH  21  22
ENDBRANCH  18  19
ENDBRANCH  17  18
TORSDOF 7
ENDMDL
MODEL 3
REMARK VINA RESULT:     -13.3      3.036      6.190
REMARK  Name = 
REMARK  7 active torsions:
REMARK  status: ('A' for Active; 'I' for Inactive)
REMARK    1  A    between atoms: C_5  and  C_8
REMARK    2  A    between atoms: C_10  and  C_11
REMARK    3  A    between atoms: C_11  and  C_12
REMARK    4  A    between atoms: C_17  and  C_18
REMARK    5  A    between atoms: C_18  and  C_19
REMARK    6  A    between atoms: N_21  and  C_22
REMARK    7  A    between atoms: C_22  and  C_23
REMARK                            x       y       z     vdW  Elec       q    Type
REMARK                         _______ _______ _______ _____ _____    ______ ____
ROOT
ATOM     12  C   UNL     1      -0.447   0.520  24.693  0.00  0.00    +0.024 C 
ATOM     13  C   UNL     1      -0.046   0.941  24.107  0.00  0.00    +0.089 C 
ATOM     14  N   UNL     1       0.373   0.537  23.521  0.00  0.00    -0.218 NA
ATOM     15  C   UNL     1       0.392  -0.287  23.521  0.00  0.00    +0.089 C 
ATOM     16  C   UNL     1      -0.008  -0.709  24.108  0.00  0.00    +0.019 C 
ATOM     17  C   UNL     1      -0.427  -0.305  24.693  0.00  0.00    +0.012 C 
ENDROOT
BRANCH  12  11
ATOM     11  C   UNL     1      -0.865   0.923  25.278  0.00  0.00    +0.051 C 
BRANCH  11  10
ATOM      8  C   UNL     1      -0.793   3.048  25.464  0.00  0.00    +0.177 A 
ATOM      9  C   UNL     1      -1.161   2.361  25.196  0.00  0.00    +0.058 A 
ATOM     10  C   UNL     1      -0.701   1.717  25.430  0.00  0.00    +0.101 A 
ATOM     29  N   UNL     1      -0.048   2.007  25.842  0.00  0.00    -0.081 NA
ATOM     30  O   UNL     1      -0.104   2.830  25.863  0.00  0.00    -0.354 OA
BRANCH   8   5
ATOM      1  F   UNL     1      -1.881   6.132  25.018  0.00  0.00    -0.204 F 
ATOM      2  C   UNL     1      -1.609   5.361  25.130  0.00  0.00    +0.140 A 
ATOM      3  C   UNL     1      -2.075   4.812  25.532  0.00  0.00    +0.030 A 
ATOM      4  C   UNL     1      -1.804   4.041  25.643  0.00  0.00    +0.005 A 
ATOM      5  C   UNL     1      -1.065   3.819  25.353  0.00  0.00    +0.037 A 
ATOM      6  C   UNL     1      -0.597   4.367  24.950  0.00  0.00    +0.005 A 
ATOM      7  C   UNL     1      -0.869   5.138  24.839  0.00  0.00    +0.030 A 
ENDBRANCH   8   5
ENDBRANCH  11  10
ENDBRANCH  12  11
BRANCH  17  18
ATOM     18  C   UNL     1      -0.827  -0.727  25.279  0.00  0.00    +0.087 C 
BRANCH  18  19
ATOM     19  C   UNL     1      -1.191  -1.444  25.095  0.00  0.00    +0.242 C 
ATOM     20  O   UNL     1      -0.749  -2.140  25.084  0.00  0.00    -0.273 OA
ATOM     21  N   UNL     1      -1.998  -1.464  24.923  0.00  0.00    -0.201 NA
BRANCH  21  22
ATOM     22  C   UNL     1      -2.361  -2.181  24.739  0.00  0.00    +0.141 C 
BRANCH  22  23
ATOM     23  C   UNL     1      -3.125  -2.189  24.427  0.00  0.00    -0.001 A 
ATOM     24  C   UNL     1      -3.491  -2.905  24.244  0.00  0.00    -0.003 A 
ATOM     25  C   UNL     1      -4.253  -2.912  23.932  0.00  0.00    -0.000 A 
ATOM     26  C   UNL     1      -4.653  -2.202  23.801  0.00  0.00    -0.000 A 
ATOM     27  C   UNL     1      -4.287  -1.485  23.984  0.00  0.00    -0.000 A 
ATOM     28  C   UNL     1      -3.524  -1.478  24.297  0.00  0.00    -0.003 A 
ENDBRANCH  22  23
ENDBRANCH  21  22
ENDBRANCH  18  19
ENDBRANCH  17  18
TORSDOF 7
ENDMDL
MODEL 4
REMARK VINA RESULT:     -13.2      1.885      4.565
REMARK  Name = 
REMARK  7 active torsions:
REMARK  status: ('A' for Active; 'I' for Inactive)
REMARK    1  A    between atoms: C_5  and  C_8
REMARK    2  A    between atoms: C_10  and  C_11
REMARK    3  A    between atoms: C_11  and  C_12
REMARK    4  A    between atoms: C_17  and  C_18
REMARK    5  A    between atoms: C_18  and  C_19
REMARK    6  A    between atoms: N_21  and  C_22
REMARK    7  A    between atoms: C_22  and  C_23
REMARK                            x       y       z     vdW  Elec       q    Type
REMARK                         _______ _______ _______ _____ _____    ______ ____
ROOT
ATOM     12  C   UNL     1      -1.176   2.526  24.829  0.00  0.00    +0.024 C 
ATOM     13  C   UNL     1      -1.022   3.124  25.376  0.00  0.00    +0.089 C 
ATOM     14  N   UNL     1      -0.452   3.011  25.962  0.00  0.00    -0.218 NA
ATOM     15  C   UNL     1      -0.037   2.300  26.002  0.00  0.00    +0.089 C 
ATOM     16  C   UNL     1      -0.190   1.701  25.455  0.00  0.00    +0.019 C 
ATOM     17  C   UNL     1      -0.760   1.815  24.868  0.00  0.00    +0.012 C 
ENDROOT
BRANCH  12  11
ATOM     11  C   UNL     1      -1.745   2.639  24.243  0.00  0.00    +0.051 C 
BRANCH  11  10
ATOM      8  C   UNL     1      -3.790   2.901  24.799  0.00  0.00    +0.177 A 
ATOM      9  C   UNL     1      -3.146   2.414  24.629  0.00  0.00    +0.058 A 
ATOM     10  C   UNL     1      -2.502   2.897  24.447  0.00  0.00    +0.101 A 
ATOM     29  N   UNL     1      -2.747   3.682  24.505  0.00  0.00    -0.081 NA
ATOM     30  O   UNL     1      -3.543   3.685  24.722  0.00  0.00    -0.354 OA
BRANCH   8   5
ATOM      1  F   UNL     1      -6.818   1.893  25.638  0.00  0.00    -0.204 F 
ATOM      2  C   UNL     1      -6.061   2.145  25.429  0.00  0.00    +0.140 A 
ATOM      3  C   UNL     1      -5.630   1.731  24.860  0.00  0.00    +0.030 A 
ATOM      4  C   UNL     1      -4.873   1.983  24.650  0.00  0.00    +0.005 A 
ATOM      5  C   UNL     1      -4.547   2.649  25.009  0.00  0.00    +0.037 A 
ATOM      6  C   UNL     1      -4.976   3.064  25.578  0.00  0.00    +0.005 A 
ATOM      7  C   UNL     1      -5.733   2.812  25.788  0.00  0.00    +0.030 A 
ENDBRANCH   8   5
ENDBRANCH  11  10
ENDBRANCH  12  11
BRANCH  17  18
ATOM     18  C   UNL     1      -0.914   1.216  24.322  0.00  0.00    +0.087 C 
BRANCH  18  19
ATOM     19  C   UNL     1      -0.848   0.425  24.546  0.00  0.00    +0.242 C 
ATOM     20  O   UNL     1      -0.104   0.093  24.673  0.00  0.00    -0.273 OA
ATOM     21  N   UNL     1      -1.527  -0.033  24.645  0.00  0.00    -0.201 NA
BRANCH  21  22
ATOM     22  C   UNL     1      -1.461  -0.824  24.870  0.00  0.00    +0.141 C 
BRANCH  22  23
ATOM     23  C   UNL     1      -2.138  -1.288  24.950  0.00  0.00    -0.001 A 
ATOM     24  C   UNL     1      -2.741  -1.056  25.463  0.00  0.00    -0.003 A 
ATOM     25  C   UNL     1      -3.418  -1.519  25.543  0.00  0.00    -0.000 A 
ATOM     26  C   UNL     1      -3.493  -2.218  25.110  0.00  0.00    -0.000 A 
ATOM     27  C   UNL     1      -2.890  -2.451  24.597  0.00  0.00    -0.000 A 
ATOM     28  C   UNL     1      -2.213  -1.987  24.517  0.00  0.00    -0.003 A 
ENDBRANCH  22  23
ENDBRANCH  21  22
ENDBRANCH  18  19
ENDBRANCH  17  18
TORSDOF 7
ENDMDL
MODEL 5
REMARK VINA RESULT:     -13.2      2.374      3.645
REMARK  Name = 
REMARK  7 active torsions:
REMARK  status: ('A' for Active; 'I' for Inactive)
REMARK    1  A    between atoms: C_5  and  C_8
REMARK    2  A    between atoms: C_10  and  C_11
REMARK    3  A    between atoms: C_11  and  C_12
REMARK    4  A    between atoms: C_17  and  C_18
REMARK    5  A    between atoms: C_18  and  C_19
REMARK    6  A    between atoms: N_21  and  C_22
REMARK    7  A    between atoms: C_22  and  C_23
REMARK                            x       y       z     vdW  Elec       q    Type
REMARK                         _______ _______ _______ _____ _____    ______ ____
ROOT
ATOM     12  C   UNL     1      -0.297  -0.002  24.615  0.00  0.00    +0.024 C 
ATOM     13  C   UNL     1      -0.003  -0.439  23.980  0.00  0.00    +0.089 C 
ATOM     14  N   UNL     1       0.424  -0.062  23.382  0.00  0.00    -0.218 NA
ATOM     15  C   UNL     1       0.556   0.751  23.419  0.00  0.00    +0.089 C 
ATOM     16  C   UNL     1       0.262   1.188  24.054  0.00  0.00    +0.019 C 
ATOM     17  C   UNL     1      -0.165   0.811  24.652  0.00  0.00    +0.012 C 
ENDROOT
BRANCH  12  11
ATOM     11  C   UNL     1      -0.724  -0.378  25.212  0.00  0.00    +0.051 C 
BRANCH  11  10
ATOM      8  C   UNL     1      -2.244  -1.771  24.661  0.00  0.00    +0.177 A 
ATOM      9  C   UNL     1      -1.982  -0.997  24.773  0.00  0.00    +0.058 A 
ATOM     10  C   UNL     1      -1.200  -1.027  25.033  0.00  0.00    +0.101 A 
ATOM     29  N   UNL     1      -0.978  -1.820  25.083  0.00  0.00    -0.081 NA
ATOM     30  O   UNL     1      -1.624  -2.280  24.853  0.00  0.00    -0.354 OA
BRANCH   8   5
ATOM      1  F   UNL     1      -5.246  -2.676  23.631  0.00  0.00    -0.204 F 
ATOM      2  C   UNL     1      -4.496  -2.450  23.888  0.00  0.00    +0.140 A 
ATOM      3  C   UNL     1      -3.954  -3.021  24.136  0.00  0.00    +0.030 A 
ATOM      4  C   UNL     1      -3.204  -2.795  24.393  0.00  0.00    +0.005 A 
ATOM      5  C   UNL     1      -2.995  -1.997  24.404  0.00  0.00    +0.037 A 
ATOM      6  C   UNL     1      -3.535  -1.425  24.157  0.00  0.00    +0.005 A 
ATOM      7  C   UNL     1      -4.286  -1.651  23.899  0.00  0.00    +0.030 A 
ENDBRANCH   8   5
ENDBRANCH  11  10
ENDBRANCH  12  11
BRANCH  17  18
ATOM     18  C   UNL     1      -0.459   1.249  25.287  0.00  0.00    +0.087 C 
BRANCH  18  19
ATOM     19  C   UNL     1      -0.224   2.033  25.392  0.00  0.00    +0.242 C 
ATOM     20  O   UNL     1       0.562   2.208  25.565  0.00  0.00    -0.273 OA
ATOM     21  N   UNL     1      -0.778   2.641  25.323  0.00  0.00    -0.201 NA
BRANCH  21  22
ATOM     22  C   UNL     1      -0.543   3.425  25.428  0.00  0.00    +0.141 C 
BRANCH  22  23
ATOM     23  C   UNL     1      -1.099   4.033  25.378  0.00  0.00    -0.001 A 
ATOM     24  C   UNL     1      -1.860   3.922  25.675  0.00  0.00    -0.003 A 
ATOM     25  C   UNL     1      -2.415   4.530  25.625  0.00  0.00    -0.000 A 
ATOM     26  C   UNL     1      -2.210   5.250  25.278  0.00  0.00    -0.000 A 
ATOM     27  C   UNL     1      -1.448   5.360  24.981  0.00  0.00    -0.000 A 
ATOM     28  C   UNL     1      -0.892   4.753  25.031  0.00  0.00    -0.003 A 
ENDBRANCH  22  23
ENDBRANCH  21  22
ENDBRANCH  18  19
ENDBRANCH  17  18
TORSDOF 7
ENDMDL
MODEL 6
REMARK VINA RESULT:     -13.0      2.427      5.371
REMARK  Name = 
REMARK  7 active torsions:
REMARK  status: ('A' for Active; 'I' for Inactive)
REMARK    1  A    between atoms: C_5  and  C_8
REMARK    2  A    between atoms: C_10  and  C_11
REMARK    3  A    between atoms: C_11  and  C_12
REMARK    4  A    between atoms: C_17  and  C_18
REMARK    5  A    between atoms: C_18  and  C_19
REMARK    6  A    between atoms: N_21  and  C_22
REMARK    7  A    between atoms: C_22  and  C_23
REMARK                            x       y       z     vdW  Elec       q    Type
REMARK                         _______ _______ _______ _____ _____    ______ ____
ROOT
ATOM     12  C   UNL     1      -1.618   0.114  24.807  0.00  0.00    +0.024 C 
ATOM     13  C   UNL     1      -1.085  -0.126  25.390  0.00  0.00    +0.089 C 
ATOM     14  N   UNL     1      -1.313  -0.687  25.952  0.00  0.00    -0.218 NA
ATOM     15  C   UNL     1      -2.073  -1.007  25.931  0.00  0.00    +0.089 C 
ATOM     16  C   UNL     1      -2.605  -0.767  25.348  0.00  0.00    +0.019 C 
ATOM     17  C   UNL     1      -2.378  -0.207  24.786  0.00  0.00    +0.012 C 
ENDROOT
BRANCH  12  11
ATOM     11  C   UNL     1      -1.391   0.673  24.246  0.00  0.00    +0.051 C 
BRANCH  11  10
ATOM      8  C   UNL     1      -0.875   2.670  24.797  0.00  0.00    +0.177 A 
ATOM      9  C   UNL     1      -1.424   2.115  24.530  0.00  0.00    +0.058 A 
ATOM     10  C   UNL     1      -1.046   1.383  24.487  0.00  0.00    +0.101 A 
ATOM     29  N   UNL     1      -0.263   1.485  24.726  0.00  0.00    -0.081 NA
ATOM     30  O   UNL     1      -0.157   2.281  24.918  0.00  0.00    -0.354 OA
BRANCH   8   5
ATOM      1  F   UNL     1      -1.447   5.882  25.291  0.00  0.00    -0.204 F 
ATOM      2  C   UNL     1      -1.304   5.079  25.168  0.00  0.00    +0.140 A 
ATOM      3  C   UNL     1      -0.659   4.840  24.712  0.00  0.00    +0.030 A 
ATOM      4  C   UNL     1      -0.516   4.037  24.588  0.00  0.00    +0.005 A 
ATOM      5  C   UNL     1      -1.018   3.473  24.920  0.00  0.00    +0.037 A 
ATOM      6  C   UNL     1      -1.663   3.711  25.377  0.00  0.00    +0.005 A 
ATOM      7  C   UNL     1      -1.806   4.515  25.500  0.00  0.00    +0.030 A 
ENDBRANCH   8   5
ENDBRANCH  11  10
ENDBRANCH  12  11
BRANCH  17  18
ATOM     18  C   UNL     1      -2.911   0.033  24.204  0.00  0.00    +0.087 C 
BRANCH  18  19
ATOM     19  C   UNL     1      -3.712   0.106  24.383  0.00  0.00    +0.242 C 
ATOM     20  O   UNL     1      -4.194  -0.563  24.401  0.00  0.00    -0.273 OA
ATOM     21  N   UNL     1      -4.032   0.850  24.544  0.00  0.00    -0.201 NA
BRANCH  21  22
ATOM     22  C   UNL     1      -4.834   0.923  24.723  0.00  0.00    +0.141 C 
BRANCH  22  23
ATOM     23  C   UNL     1      -5.128   1.635  25.018  0.00  0.00    -0.001 A 
ATOM     24  C   UNL     1      -4.968   2.343  24.625  0.00  0.00    -0.003 A 
ATOM     25  C   UNL     1      -5.262   3.054  24.920  0.00  0.00    -0.000 A 
ATOM     26  C   UNL     1      -5.716   3.060  25.610  0.00  0.00    -0.000 A 
ATOM     27  C   UNL     1      -5.876   2.352  26.002  0.00  0.00    -0.000 A 
ATOM     28  C   UNL     1      -5.582   1.640  25.707  0.00  0.00    -0.003 A 
ENDBRANCH  22  23
ENDBRANCH  21  22
ENDBRANCH  18  19
ENDBRANCH  17  18
TORSDOF 7
ENDMDL
MODEL 7
REMARK VINA RESULT:     -13.0      1.573      4.588
REMARK  Name = 
REMARK  7 active torsions:
REMARK  status: ('A' for Active; 'I' for Inactive)
REMARK    1  A    between atoms: C_5  and  C_8
REMARK    2  A    between atoms: C_10  and  C_11
REMARK    3  A    between atoms: C_11  and  C_12
REMARK    4  A    between atoms: C_17  and  C_18
REMARK    5  A    between atoms: C_18  and  C_19
REMARK    6  A    between atoms: N_21  and  C_22
REMARK    7  A    between atoms: C_22  and  C_23
REMARK                            x       y       z     vdW  Elec       q    Type
REMARK                         _______ _______ _______ _____ _____    ______ ____
ROOT
ATOM     12  C   UNL     1      -4.576   3.004  24.944  0.00  0.00    +0.024 C 
ATOM     13  C   UNL     1      -4.823   3.600  25.459  0.00  0.00    +0.089 C 
ATOM     14  N   UNL     1      -5.448   3.462  25.980  0.00  0.00    -0.218 NA
ATOM     15  C   UNL     1      -5.826   2.729  25.987  0.00  0.00    +0.089 C 
ATOM     16  C   UNL     1      -5.579   2.133  25.471  0.00  0.00    +0.019 C 
ATOM     17  C   UNL     1      -4.954   2.271  24.950  0.00  0.00    +0.012 C 
ENDROOT
BRANCH  12  11
ATOM     11  C   UNL     1      -3.951   3.142  24.423  0.00  0.00    +0.051 C 
BRANCH  11  10
ATOM      8  C   UNL     1      -1.984   3.441  25.197  0.00  0.00    +0.177 A 
ATOM      9  C   UNL     1      -2.594   2.942  24.953  0.00  0.00    +0.058 A 
ATOM     10  C   UNL     1      -3.227   3.413  24.710  0.00  0.00    +0.101 A 
ATOM     29  N   UNL     1      -3.008   4.203  24.804  0.00  0.00    -0.081 NA
ATOM     30  O   UNL     1      -2.240   4.220  25.105  0.00  0.00    -0.354 OA
BRANCH   8   5
ATOM      1  F   UNL     1       0.961   2.487  26.340  0.00  0.00    -0.204 F 
ATOM      2  C   UNL     1       0.224   2.725  26.054  0.00  0.00    +0.140 A 
ATOM      3  C   UNL     1       0.176   3.197  25.379  0.00  0.00    +0.030 A 
ATOM      4  C   UNL     1      -0.560   3.435  25.093  0.00  0.00    +0.005 A 
ATOM      5  C   UNL     1      -1.248   3.202  25.483  0.00  0.00    +0.037 A 
ATOM      6  C   UNL     1      -1.201   2.730  26.158  0.00  0.00    +0.005 A 
ATOM      7  C   UNL     1      -0.465   2.492  26.444  0.00  0.00    +0.030 A 
ENDBRANCH   8   5
ENDBRANCH  11  10
ENDBRANCH  12  11
BRANCH  17  18
ATOM     18  C   UNL     1      -4.708   1.675  24.436  0.00  0.00    +0.087 C 
BRANCH  18  19
ATOM     19  C   UNL     1      -4.948   0.896  24.561  0.00  0.00    +0.242 C 
ATOM     20  O   UNL     1      -5.750   0.720  24.639  0.00  0.00    -0.273 OA
ATOM     21  N   UNL     1      -4.386   0.294  24.608  0.00  0.00    -0.201 NA
BRANCH  21  22
ATOM     22  C   UNL     1      -4.627  -0.485  24.734  0.00  0.00    +0.141 C 
BRANCH  22  23
ATOM     23  C   UNL     1      -4.070  -1.093  24.741  0.00  0.00    -0.001 A 
ATOM     24  C   UNL     1      -3.490  -1.117  25.327  0.00  0.00    -0.003 A 
ATOM     25  C   UNL     1      -2.934  -1.725  25.334  0.00  0.00    -0.000 A 
ATOM     26  C   UNL     1      -2.955  -2.311  24.753  0.00  0.00    -0.000 A 
ATOM     27  C   UNL     1      -3.535  -2.287  24.166  0.00  0.00    -0.000 A 
ATOM     28  C   UNL     1      -4.092  -1.679  24.159  0.00  0.00    -0.003 A 
ENDBRANCH  22  23
ENDBRANCH  21  22
ENDBRANCH  18  19
ENDBRANCH  17  18
TORSDOF 7
ENDMDL
