REMARK  Name = 
REMARK  12 active torsions:
REMARK  status: ('A' for Active; 'I' for Inactive)
REMARK    1  A    between atoms: O_2  and  C_3
REMARK    2  A    between atoms: C_3  and  C_5
REMARK    3  A    between atoms: C_5  and  C_6
REMARK    4  A    between atoms: C_6  and  C_9
REMARK    5  A    between atoms: C_9  and  C_10
REMARK    6  A    between atoms: N_12  and  C_13
REMARK    7  A    between atoms: C_13  and  C_14
REMARK    8  A    between atoms: C_16  and  C_17
REMARK    9  A    between atoms: C_17  and  C_18
REMARK   10  A    between atoms: C_20  and  C_23
REMARK   11  A    between atoms: C_26  and  O_27
REMARK   12  A    between atoms: O_27  and  C_28
REMARK                            x       y       z     vdW  Elec       q    Type
REMARK                         _______ _______ _______ _____ _____    ______ ____
ROOT
ATOM     14  C   UNL     1       0.438  -3.868   0.000  0.00  0.00    +0.170 C 
ATOM     15  O   UNL     1       1.105  -4.352   0.000  0.00  0.00    -0.351 OA
ATOM     16  C   UNL     1       0.851  -5.137   0.000  0.00  0.00    +0.157 C 
ATOM     34  C   UNL     1       0.025  -5.137   0.000  0.00  0.00    +0.212 C 
ATOM     35  O   UNL     1      -0.459  -5.804   0.000  0.00  0.00    -0.218 OA
ATOM     36  C   UNL     1      -0.229  -4.352   0.000  0.00  0.00    +0.213 C 
ATOM     37  O   UNL     1      -1.014  -4.098   0.000  0.00  0.00    -0.218 OA
ENDROOT
BRANCH  14  13
ATOM     13  C   UNL     1       0.438  -3.042   0.000  0.00  0.00    +0.147 C 
BRANCH  13  12
ATOM     10  C   UNL     1      -0.276  -1.805   0.000  0.00  0.00    +0.241 C 
ATOM     11  O   UNL     1       0.438  -1.393   0.000  0.00  0.00    -0.273 OA
ATOM     12  N   UNL     1      -0.276  -2.630   0.000  0.00  0.00    -0.203 NA
BRANCH  10   9
ATOM      9  C   UNL     1      -0.991  -1.393   0.000  0.00  0.00    +0.087 C 
BRANCH   9   6
ATOM      6  C   UNL     1      -0.991  -0.568   0.000  0.00  0.00    +0.019 C 
ATOM      7  C   UNL     1      -1.816  -0.568   0.000  0.00  0.00    +0.001 C 
ATOM      8  C   UNL     1      -0.166  -0.568   0.000  0.00  0.00    +0.001 C 
BRANCH   6   5
ATOM      5  C   UNL     1      -0.991   0.258   0.000  0.00  0.00    +0.110 C 
BRANCH   5   3
ATOM      3  C   UNL     1      -1.705   0.670   0.000  0.00  0.00    +0.317 C 
ATOM      4  O   UNL     1      -2.420   0.258   0.000  0.00  0.00    -0.250 OA
BRANCH   3   2
ATOM      1  C   UNL     1      -2.420   1.907   0.000  0.00  0.00    +0.256 C 
ATOM      2  O   UNL     1      -1.705   1.495   0.000  0.00  0.00    -0.444 OA
ENDBRANCH   3   2
ENDBRANCH   5   3
ENDBRANCH   6   5
ENDBRANCH   9   6
ENDBRANCH  10   9
ENDBRANCH  13  12
ENDBRANCH  14  13
BRANCH  16  17
ATOM     17  C   UNL     1       1.335  -5.804   0.000  0.00  0.00    +0.120 C 
BRANCH  17  18
ATOM     18  C   UNL     1       1.000  -6.558   0.000  0.00  0.00    +0.239 A 
ATOM     19  N   UNL     1       1.412  -7.273   0.000  0.00  0.00    -0.191 NA
ATOM     20  C   UNL     1       0.860  -7.886   0.000  0.00  0.00    +0.203 A 
ATOM     21  N   UNL     1       0.107  -7.550   0.000  0.00  0.00    -0.056 NA
ATOM     22  O   UNL     1       0.193  -6.730   0.000  0.00  0.00    -0.337 OA
BRANCH  20  23
ATOM     23  C   UNL     1       1.032  -8.693   0.000  0.00  0.00    +0.039 A 
ATOM     24  C   UNL     1       1.817  -8.948   0.000  0.00  0.00    +0.006 A 
ATOM     25  C   UNL     1       1.988  -9.755   0.000  0.00  0.00    +0.037 A 
ATOM     26  C   UNL     1       1.375 -10.307   0.000  0.00  0.00    +0.147 A 
ATOM     32  C   UNL     1       0.590 -10.052   0.000  0.00  0.00    +0.037 A 
ATOM     33  C   UNL     1       0.419  -9.245   0.000  0.00  0.00    +0.006 A 
BRANCH  26  27
ATOM     27  O   UNL     1       1.546 -11.114   0.000  0.00  0.00    -0.404 OA
BRANCH  27  28
ATOM     28  C   UNL     1       2.331 -11.368   0.000  0.00  0.00    +0.575 C 
ATOM     29  F   UNL     1       3.116 -11.623   0.000  0.00  0.00    -0.133 F 
ATOM     30  F   UNL     1       2.076 -12.153   0.000  0.00  0.00    -0.133 F 
ATOM     31  F   UNL     1       2.586 -10.584   0.000  0.00  0.00    -0.133 F 
ENDBRANCH  27  28
ENDBRANCH  26  27
ENDBRANCH  20  23
ENDBRANCH  17  18
ENDBRANCH  16  17
TORSDOF 12
