REMARK  Name = 
REMARK  8 active torsions:
REMARK  status: ('A' for Active; 'I' for Inactive)
REMARK    1  A    between atoms: C_2  and  C_4
REMARK    2  A    between atoms: C_4  and  C_5
REMARK    3  A    between atoms: C_5  and  N_6
REMARK    4  A    between atoms: C_7  and  C_9
REMARK    5  A    between atoms: C_11  and  N_12
REMARK    6  A    between atoms: N_12  and  S_13
REMARK    7  A    between atoms: S_13  and  C_16
REMARK    8  A    between atoms: C_18  and  C_22
REMARK                            x       y       z     vdW  Elec       q    Type
REMARK                         _______ _______ _______ _____ _____    ______ ____
ROOT
ATOM      9  C   UNL     1       7.145  -7.425   0.000  0.00  0.00    +0.033 C 
ATOM     10  C   UNL     1       7.859  -7.013   0.000  0.00  0.00    -0.004 C 
ATOM     11  C   UNL     1       8.574  -7.425   0.000  0.00  0.00    +0.152 C 
ATOM     26  C   UNL     1       8.574  -8.250   0.000  0.00  0.00    +0.204 C 
ATOM     27  O   UNL     1       9.288  -8.662   0.000  0.00  0.00    -0.218 OA
ATOM     28  C   UNL     1       7.859  -8.662   0.000  0.00  0.00    +0.188 C 
ATOM     29  O   UNL     1       7.859  -9.488   0.000  0.00  0.00    -0.220 OA
ATOM     30  C   UNL     1       7.145  -8.250   0.000  0.00  0.00    +0.066 C 
ENDROOT
BRANCH   9   7
ATOM      6  N   UNL     1       5.716  -7.425   0.000  0.00  0.00    -0.201 NA
ATOM      7  C   UNL     1       6.430  -7.013   0.000  0.00  0.00    +0.261 C 
ATOM      8  O   UNL     1       6.430  -6.188   0.000  0.00  0.00    -0.269 OA
BRANCH   6   5
ATOM      5  C   UNL     1       5.001  -7.013   0.000  0.00  0.00    +0.125 C 
BRANCH   5   4
ATOM      4  C   UNL     1       4.287  -7.425   0.000  0.00  0.00    +0.112 C 
BRANCH   4   2
ATOM      1  N   UNL     1       2.858  -7.425   0.000  0.00  0.00    -0.088 NA
ATOM      2  C   UNL     1       3.572  -7.013   0.000  0.00  0.00    +0.263 C 
ATOM      3  O   UNL     1       3.572  -6.188   0.000  0.00  0.00    -0.272 OA
ENDBRANCH   4   2
ENDBRANCH   5   4
ENDBRANCH   6   5
ENDBRANCH   9   7
BRANCH  11  12
ATOM     12  N   UNL     1       9.288  -7.013   0.000  0.00  0.00    -0.072 NA
BRANCH  12  13
ATOM     13  S   UNL     1      10.003  -7.425   0.000  0.00  0.00    +0.077 S 
ATOM     14  O   UNL     1       9.590  -8.139   0.000  0.00  0.00    -0.152 OA
ATOM     15  O   UNL     1      10.415  -6.710   0.000  0.00  0.00    -0.152 OA
BRANCH  13  16
ATOM     16  C   UNL     1      10.717  -7.838   0.000  0.00  0.00    +0.124 A 
ATOM     17  C   UNL     1      11.431  -7.425   0.000  0.00  0.00    +0.024 A 
ATOM     18  C   UNL     1      12.146  -7.838   0.000  0.00  0.00    +0.073 A 
ATOM     19  C   UNL     1      12.146  -8.662   0.000  0.00  0.00    +0.004 A 
ATOM     20  C   UNL     1      11.431  -9.075   0.000  0.00  0.00    +0.001 A 
ATOM     21  C   UNL     1      10.717  -8.662   0.000  0.00  0.00    +0.020 A 
BRANCH  18  22
ATOM     22  C   UNL     1      12.861  -7.425   0.000  0.00  0.00    +0.419 C 
ATOM     23  F   UNL     1      13.575  -7.013   0.000  0.00  0.00    -0.166 F 
ATOM     24  F   UNL     1      13.273  -8.139   0.000  0.00  0.00    -0.166 F 
ATOM     25  F   UNL     1      12.448  -6.710   0.000  0.00  0.00    -0.166 F 
ENDBRANCH  18  22
ENDBRANCH  13  16
ENDBRANCH  12  13
ENDBRANCH  11  12
TORSDOF 8
