MODEL 1
REMARK VINA RESULT:     -13.9      0.000      0.000
REMARK  Name = 
REMARK  5 active torsions:
REMARK  status: ('A' for Active; 'I' for Inactive)
REMARK    1  A    between atoms: C_2  and  N_4
REMARK    2  A    between atoms: N_7  and  C_8
REMARK    3  A    between atoms: C_10  and  C_13
REMARK    4  A    between atoms: N_16  and  C_20
REMARK    5  A    between atoms: C_23  and  C_26
REMARK                            x       y       z     vdW  Elec       q    Type
REMARK                         _______ _______ _______ _____ _____    ______ ____
ROOT
ATOM     13  C   UNL     1      -4.334   1.513  24.831  0.00  0.00    +0.010 A 
ATOM     14  C   UNL     1      -3.902   0.841  24.622  0.00  0.00    +0.058 A 
ATOM     15  C   UNL     1      -3.148   0.834  24.288  0.00  0.00    +0.052 C 
ATOM     16  N   UNL     1      -4.357   0.179  24.806  0.00  0.00    -0.234 N 
ATOM     17  N   UNL     1      -5.070   0.439  25.129  0.00  0.00    -0.170 NA
ATOM     18  C   UNL     1      -5.056   1.265  25.144  0.00  0.00    +0.077 A 
ATOM     19  C   UNL     1      -5.657   1.756  25.423  0.00  0.00    +0.054 C 
ENDROOT
BRANCH  16  20
ATOM     20  C   UNL     1      -4.139  -0.609  24.689  0.00  0.00    +0.082 A 
ATOM     21  C   UNL     1      -3.737  -1.017  25.282  0.00  0.00    +0.019 A 
ATOM     22  C   UNL     1      -3.518  -1.804  25.165  0.00  0.00    +0.005 A 
ATOM     23  C   UNL     1      -3.701  -2.182  24.455  0.00  0.00    +0.072 A 
ATOM     24  C   UNL     1      -4.103  -1.773  23.862  0.00  0.00    +0.005 A 
ATOM     25  C   UNL     1      -4.322  -0.986  23.979  0.00  0.00    +0.019 A 
BRANCH  23  26
ATOM     26  C   UNL     1      -3.482  -2.969  24.338  0.00  0.00    +0.419 C 
ATOM     27  F   UNL     1      -3.263  -3.756  24.221  0.00  0.00    -0.166 F 
ATOM     28  F   UNL     1      -4.271  -3.168  24.201  0.00  0.00    -0.166 F 
ATOM     29  F   UNL     1      -2.693  -2.770  24.475  0.00  0.00    -0.166 F 
ENDBRANCH  23  26
ENDBRANCH  16  20
BRANCH  13  10
ATOM      8  C   UNL     1      -3.484   3.467  24.950  0.00  0.00    +0.119 C 
ATOM      9  C   UNL     1      -3.580   2.704  25.249  0.00  0.00    +0.035 C 
ATOM     10  C   UNL     1      -4.087   2.294  24.742  0.00  0.00    +0.048 C 
ATOM     11  C   UNL     1      -4.303   2.805  24.130  0.00  0.00    -0.025 C 
ATOM     12  C   UNL     1      -3.930   3.529  24.260  0.00  0.00    -0.009 C 
BRANCH   8   7
ATOM      4  N   UNL     1      -1.795   4.795  25.338  0.00  0.00    -0.189 NA
ATOM      5  C   UNL     1      -2.257   4.198  25.003  0.00  0.00    +0.339 C 
ATOM      6  O   UNL     1      -1.956   3.739  24.389  0.00  0.00    -0.249 OA
ATOM      7  N   UNL     1      -3.021   4.063  25.285  0.00  0.00    -0.184 NA
BRANCH   4   2
ATOM      1  C   UNL     1      -0.855   5.636  24.666  0.00  0.00    +0.023 C 
ATOM      2  C   UNL     1      -1.031   4.930  25.057  0.00  0.00    +0.097 C 
ATOM      3  C   UNL     1      -0.445   4.362  25.166  0.00  0.00    +0.023 C 
ENDBRANCH   4   2
ENDBRANCH   8   7
ENDBRANCH  13  10
TORSDOF 5
ENDMDL
MODEL 2
REMARK VINA RESULT:     -12.2      3.069      5.773
REMARK  Name = 
REMARK  5 active torsions:
REMARK  status: ('A' for Active; 'I' for Inactive)
REMARK    1  A    between atoms: C_2  and  N_4
REMARK    2  A    between atoms: N_7  and  C_8
REMARK    3  A    between atoms: C_10  and  C_13
REMARK    4  A    between atoms: N_16  and  C_20
REMARK    5  A    between atoms: C_23  and  C_26
REMARK                            x       y       z     vdW  Elec       q    Type
REMARK                         _______ _______ _______ _____ _____    ______ ____
ROOT
ATOM     13  C   UNL     1      -4.032   1.883  25.086  0.00  0.00    +0.010 A 
ATOM     14  C   UNL     1      -3.305   2.247  24.948  0.00  0.00    +0.058 A 
ATOM     15  C   UNL     1      -2.628   1.883  24.649  0.00  0.00    +0.052 C 
ATOM     16  N   UNL     1      -3.373   3.041  25.163  0.00  0.00    -0.234 N 
ATOM     17  N   UNL     1      -4.142   3.168  25.432  0.00  0.00    -0.170 NA
ATOM     18  C   UNL     1      -4.550   2.451  25.385  0.00  0.00    +0.077 A 
ATOM     19  C   UNL     1      -5.337   2.325  25.599  0.00  0.00    +0.054 C 
ENDROOT
BRANCH  16  20
ATOM     20  C   UNL     1      -2.777   3.610  25.116  0.00  0.00    +0.082 A 
ATOM     21  C   UNL     1      -2.727   4.101  24.454  0.00  0.00    +0.019 A 
ATOM     22  C   UNL     1      -2.132   4.670  24.406  0.00  0.00    +0.005 A 
ATOM     23  C   UNL     1      -1.586   4.748  25.020  0.00  0.00    +0.072 A 
ATOM     24  C   UNL     1      -1.636   4.257  25.682  0.00  0.00    +0.005 A 
ATOM     25  C   UNL     1      -2.232   3.688  25.729  0.00  0.00    +0.019 A 
BRANCH  23  26
ATOM     26  C   UNL     1      -0.990   5.316  24.973  0.00  0.00    +0.419 C 
ATOM     27  F   UNL     1      -0.395   5.885  24.925  0.00  0.00    -0.166 F 
ATOM     28  F   UNL     1      -0.498   4.770  24.601  0.00  0.00    -0.166 F 
ATOM     29  F   UNL     1      -1.483   5.863  25.345  0.00  0.00    -0.166 F 
ENDBRANCH  23  26
ENDBRANCH  16  20
BRANCH  13  10
ATOM      8  C   UNL     1      -4.237  -0.241  25.046  0.00  0.00    +0.119 C 
ATOM      9  C   UNL     1      -3.914   0.445  25.370  0.00  0.00    +0.035 C 
ATOM     10  C   UNL     1      -4.210   1.090  24.948  0.00  0.00    +0.048 C 
ATOM     11  C   UNL     1      -4.715   0.800  24.363  0.00  0.00    -0.025 C 
ATOM     12  C   UNL     1      -4.731  -0.022  24.424  0.00  0.00    -0.009 C 
BRANCH   8   7
ATOM      4  N   UNL     1      -3.541  -2.311  25.064  0.00  0.00    -0.189 NA
ATOM      5  C   UNL     1      -3.688  -1.539  24.809  0.00  0.00    +0.339 C 
ATOM      6  O   UNL     1      -3.434  -1.295  24.064  0.00  0.00    -0.249 OA
ATOM      7  N   UNL     1      -4.089  -1.013  25.301  0.00  0.00    -0.184 NA
BRANCH   4   2
ATOM      1  C   UNL     1      -2.314  -2.835  24.552  0.00  0.00    +0.023 C 
ATOM      2  C   UNL     1      -3.139  -2.837  24.571  0.00  0.00    +0.097 C 
ATOM      3  C   UNL     1      -3.561  -3.365  24.100  0.00  0.00    +0.023 C 
ENDBRANCH   4   2
ENDBRANCH   8   7
ENDBRANCH  13  10
TORSDOF 5
ENDMDL
MODEL 3
REMARK VINA RESULT:     -11.4      3.631      6.396
REMARK  Name = 
REMARK  5 active torsions:
REMARK  status: ('A' for Active; 'I' for Inactive)
REMARK    1  A    between atoms: C_2  and  N_4
REMARK    2  A    between atoms: N_7  and  C_8
REMARK    3  A    between atoms: C_10  and  C_13
REMARK    4  A    between atoms: N_16  and  C_20
REMARK    5  A    between atoms: C_23  and  C_26
REMARK                            x       y       z     vdW  Elec       q    Type
REMARK                         _______ _______ _______ _____ _____    ______ ____
ROOT
ATOM     13  C   UNL     1      -0.566   0.768  24.615  0.00  0.00    +0.010 A 
ATOM     14  C   UNL     1      -0.958   1.433  24.907  0.00  0.00    +0.058 A 
ATOM     15  C   UNL     1      -1.612   1.429  25.409  0.00  0.00    +0.052 C 
ATOM     16  N   UNL     1      -0.581   2.103  24.607  0.00  0.00    -0.234 N 
ATOM     17  N   UNL     1       0.044   1.852  24.130  0.00  0.00    -0.170 NA
ATOM     18  C   UNL     1       0.053   1.027  24.136  0.00  0.00    +0.077 A 
ATOM     19  C   UNL     1       0.588   0.545  23.732  0.00  0.00    +0.054 C 
ENDROOT
BRANCH  16  20
ATOM     20  C   UNL     1      -0.791   2.887  24.757  0.00  0.00    +0.082 A 
ATOM     21  C   UNL     1      -1.456   3.212  24.392  0.00  0.00    +0.019 A 
ATOM     22  C   UNL     1      -1.666   3.995  24.541  0.00  0.00    +0.005 A 
ATOM     23  C   UNL     1      -1.213   4.454  25.056  0.00  0.00    +0.072 A 
ATOM     24  C   UNL     1      -0.548   4.128  25.421  0.00  0.00    +0.005 A 
ATOM     25  C   UNL     1      -0.338   3.344  25.271  0.00  0.00    +0.019 A 
BRANCH  23  26
ATOM     26  C   UNL     1      -1.423   5.237  25.206  0.00  0.00    +0.419 C 
ATOM     27  F   UNL     1      -1.634   6.020  25.355  0.00  0.00    -0.166 F 
ATOM     28  F   UNL     1      -2.060   4.979  25.662  0.00  0.00    -0.166 F 
ATOM     29  F   UNL     1      -0.786   5.495  24.750  0.00  0.00    -0.166 F 
ENDBRANCH  23  26
ENDBRANCH  16  20
BRANCH  13  10
ATOM      8  C   UNL     1      -1.239  -1.257  24.654  0.00  0.00    +0.119 C 
ATOM      9  C   UNL     1      -1.168  -0.529  24.273  0.00  0.00    +0.035 C 
ATOM     10  C   UNL     1      -0.759  -0.017  24.776  0.00  0.00    +0.048 C 
ATOM     11  C   UNL     1      -0.579  -0.430  25.468  0.00  0.00    -0.025 C 
ATOM     12  C   UNL     1      -0.875  -1.196  25.392  0.00  0.00    -0.009 C 
BRANCH   8   7
ATOM      4  N   UNL     1      -2.784  -2.727  24.185  0.00  0.00    -0.189 NA
ATOM      5  C   UNL     1      -2.413  -2.055  24.489  0.00  0.00    +0.339 C 
ATOM      6  O   UNL     1      -2.845  -1.510  24.932  0.00  0.00    -0.249 OA
ATOM      7  N   UNL     1      -1.610  -1.929  24.350  0.00  0.00    -0.184 NA
BRANCH   4   2
ATOM      1  C   UNL     1      -4.149  -2.536  23.809  0.00  0.00    +0.023 C 
ATOM      2  C   UNL     1      -3.587  -2.853  24.324  0.00  0.00    +0.097 C 
ATOM      3  C   UNL     1      -3.828  -3.294  24.977  0.00  0.00    +0.023 C 
ENDBRANCH   4   2
ENDBRANCH   8   7
ENDBRANCH  13  10
TORSDOF 5
ENDMDL
MODEL 4
REMARK VINA RESULT:     -11.0      1.891      2.568
REMARK  Name = 
REMARK  5 active torsions:
REMARK  status: ('A' for Active; 'I' for Inactive)
REMARK    1  A    between atoms: C_2  and  N_4
REMARK    2  A    between atoms: N_7  and  C_8
REMARK    3  A    between atoms: C_10  and  C_13
REMARK    4  A    between atoms: N_16  and  C_20
REMARK    5  A    between atoms: C_23  and  C_26
REMARK                            x       y       z     vdW  Elec       q    Type
REMARK                         _______ _______ _______ _____ _____    ______ ____
ROOT
ATOM     13  C   UNL     1      -1.262   0.263  25.346  0.00  0.00    +0.010 A 
ATOM     14  C   UNL     1      -1.833  -0.046  24.836  0.00  0.00    +0.058 A 
ATOM     15  C   UNL     1      -2.095   0.300  24.135  0.00  0.00    +0.052 C 
ATOM     16  N   UNL     1      -2.095  -0.762  25.151  0.00  0.00    -0.234 N 
ATOM     17  N   UNL     1      -1.687  -0.896  25.855  0.00  0.00    -0.170 NA
ATOM     18  C   UNL     1      -1.172  -0.263  25.976  0.00  0.00    +0.077 A 
ATOM     19  C   UNL     1      -0.657  -0.170  26.614  0.00  0.00    +0.054 C 
ENDROOT
BRANCH  16  20
ATOM     20  C   UNL     1      -2.666  -1.258  24.820  0.00  0.00    +0.082 A 
ATOM     21  C   UNL     1      -2.448  -1.998  24.526  0.00  0.00    +0.019 A 
ATOM     22  C   UNL     1      -3.017  -2.494  24.195  0.00  0.00    +0.005 A 
ATOM     23  C   UNL     1      -3.805  -2.251  24.158  0.00  0.00    +0.072 A 
ATOM     24  C   UNL     1      -4.022  -1.511  24.451  0.00  0.00    +0.005 A 
ATOM     25  C   UNL     1      -3.452  -1.015  24.782  0.00  0.00    +0.019 A 
BRANCH  23  26
ATOM     26  C   UNL     1      -4.375  -2.747  23.827  0.00  0.00    +0.419 C 
ATOM     27  F   UNL     1      -4.945  -3.243  23.496  0.00  0.00    -0.166 F 
ATOM     28  F   UNL     1      -4.030  -3.395  24.204  0.00  0.00    -0.166 F 
ATOM     29  F   UNL     1      -4.720  -2.100  23.449  0.00  0.00    -0.166 F 
ENDBRANCH  23  26
ENDBRANCH  16  20
BRANCH  13  10
ATOM      8  C   UNL     1      -0.462   2.241  25.374  0.00  0.00    +0.119 C 
ATOM      9  C   UNL     1      -0.996   1.677  25.649  0.00  0.00    +0.035 C 
ATOM     10  C   UNL     1      -0.855   0.972  25.244  0.00  0.00    +0.048 C 
ATOM     11  C   UNL     1      -0.232   1.102  24.717  0.00  0.00    -0.025 C 
ATOM     12  C   UNL     1       0.010   1.887  24.798  0.00  0.00    -0.009 C 
BRANCH   8   7
ATOM      4  N   UNL     1      -0.780   4.398  25.495  0.00  0.00    -0.189 NA
ATOM      5  C   UNL     1      -0.833   3.615  25.239  0.00  0.00    +0.339 C 
ATOM      6  O   UNL     1      -1.308   3.423  24.593  0.00  0.00    -0.249 OA
ATOM      7  N   UNL     1      -0.409   3.024  25.630  0.00  0.00    -0.184 NA
BRANCH   4   2
ATOM      1  C   UNL     1      -2.010   5.084  25.253  0.00  0.00    +0.023 C 
ATOM      2  C   UNL     1      -1.204   4.988  25.104  0.00  0.00    +0.097 C 
ATOM      3  C   UNL     1      -0.822   5.481  24.565  0.00  0.00    +0.023 C 
ENDBRANCH   4   2
ENDBRANCH   8   7
ENDBRANCH  13  10
TORSDOF 5
ENDMDL
MODEL 5
REMARK VINA RESULT:     -10.1      3.486      4.847
REMARK  Name = 
REMARK  5 active torsions:
REMARK  status: ('A' for Active; 'I' for Inactive)
REMARK    1  A    between atoms: C_2  and  N_4
REMARK    2  A    between atoms: N_7  and  C_8
REMARK    3  A    between atoms: C_10  and  C_13
REMARK    4  A    between atoms: N_16  and  C_20
REMARK    5  A    between atoms: C_23  and  C_26
REMARK                            x       y       z     vdW  Elec       q    Type
REMARK                         _______ _______ _______ _____ _____    ______ ____
ROOT
ATOM     13  C   UNL     1      -2.895   0.129  24.785  0.00  0.00    +0.010 A 
ATOM     14  C   UNL     1      -3.095   0.901  24.998  0.00  0.00    +0.058 A 
ATOM     15  C   UNL     1      -2.581   1.469  25.303  0.00  0.00    +0.052 C 
ATOM     16  N   UNL     1      -3.901   1.003  24.853  0.00  0.00    -0.234 N 
ATOM     17  N   UNL     1      -4.198   0.296  24.551  0.00  0.00    -0.170 NA
ATOM     18  C   UNL     1      -3.576  -0.245  24.508  0.00  0.00    +0.077 A 
ATOM     19  C   UNL     1      -3.626  -1.022  24.236  0.00  0.00    +0.054 C 
ENDROOT
BRANCH  16  20
ATOM     20  C   UNL     1      -4.335   1.693  24.988  0.00  0.00    +0.082 A 
ATOM     21  C   UNL     1      -4.198   2.362  24.525  0.00  0.00    +0.019 A 
ATOM     22  C   UNL     1      -4.631   3.051  24.659  0.00  0.00    +0.005 A 
ATOM     23  C   UNL     1      -5.200   3.071  25.256  0.00  0.00    +0.072 A 
ATOM     24  C   UNL     1      -5.336   2.402  25.718  0.00  0.00    +0.005 A 
ATOM     25  C   UNL     1      -4.903   1.712  25.584  0.00  0.00    +0.019 A 
BRANCH  23  26
ATOM     26  C   UNL     1      -5.633   3.760  25.390  0.00  0.00    +0.419 C 
ATOM     27  F   UNL     1      -6.066   4.450  25.523  0.00  0.00    -0.166 F 
ATOM     28  F   UNL     1      -6.335   3.329  25.344  0.00  0.00    -0.166 F 
ATOM     29  F   UNL     1      -4.932   4.192  25.436  0.00  0.00    -0.166 F 
ENDBRANCH  23  26
ENDBRANCH  16  20
BRANCH  13  10
ATOM      8  C   UNL     1      -0.951  -0.711  24.512  0.00  0.00    +0.119 C 
ATOM      9  C   UNL     1      -1.642  -0.379  24.206  0.00  0.00    +0.035 C 
ATOM     10  C   UNL     1      -2.144  -0.209  24.838  0.00  0.00    +0.048 C 
ATOM     11  C   UNL     1      -1.763  -0.436  25.535  0.00  0.00    -0.025 C 
ATOM     12  C   UNL     1      -1.026  -0.746  25.332  0.00  0.00    -0.009 C 
BRANCH   8   7
ATOM      4  N   UNL     1       0.831  -0.664  23.252  0.00  0.00    -0.189 NA
ATOM      5  C   UNL     1       0.180  -0.411  23.691  0.00  0.00    +0.339 C 
ATOM      6  O   UNL     1       0.008   0.393  23.749  0.00  0.00    -0.249 OA
ATOM      7  N   UNL     1      -0.300  -0.964  24.072  0.00  0.00    -0.184 NA
BRANCH   4   2
ATOM      1  C   UNL     1       1.336  -0.087  22.046  0.00  0.00    +0.023 C 
ATOM      2  C   UNL     1       1.311  -0.111  22.871  0.00  0.00    +0.097 C 
ATOM      3  C   UNL     1       1.764   0.416  23.313  0.00  0.00    +0.023 C 
ENDBRANCH   4   2
ENDBRANCH   8   7
ENDBRANCH  13  10
TORSDOF 5
ENDMDL
MODEL 6
REMARK VINA RESULT:     -10.1      3.134      4.540
REMARK  Name = 
REMARK  5 active torsions:
REMARK  status: ('A' for Active; 'I' for Inactive)
REMARK    1  A    between atoms: C_2  and  N_4
REMARK    2  A    between atoms: N_7  and  C_8
REMARK    3  A    between atoms: C_10  and  C_13
REMARK    4  A    between atoms: N_16  and  C_20
REMARK    5  A    between atoms: C_23  and  C_26
REMARK                            x       y       z     vdW  Elec       q    Type
REMARK                         _______ _______ _______ _____ _____    ______ ____
ROOT
ATOM     13  C   UNL     1      -1.720   2.905  25.061  0.00  0.00    +0.010 A 
ATOM     14  C   UNL     1      -2.407   2.449  25.020  0.00  0.00    +0.058 A 
ATOM     15  C   UNL     1      -2.442   1.628  24.954  0.00  0.00    +0.052 C 
ATOM     16  N   UNL     1      -3.053   2.961  25.058  0.00  0.00    -0.234 N 
ATOM     17  N   UNL     1      -2.767   3.731  25.122  0.00  0.00    -0.170 NA
ATOM     18  C   UNL     1      -1.942   3.697  25.124  0.00  0.00    +0.077 A 
ATOM     19  C   UNL     1      -1.429   4.341  25.179  0.00  0.00    +0.054 C 
ENDROOT
BRANCH  16  20
ATOM     20  C   UNL     1      -3.849   2.740  25.035  0.00  0.00    +0.082 A 
ATOM     21  C   UNL     1      -4.316   2.815  25.712  0.00  0.00    +0.019 A 
ATOM     22  C   UNL     1      -5.111   2.595  25.690  0.00  0.00    +0.005 A 
ATOM     23  C   UNL     1      -5.438   2.300  24.992  0.00  0.00    +0.072 A 
ATOM     24  C   UNL     1      -4.971   2.226  24.316  0.00  0.00    +0.005 A 
ATOM     25  C   UNL     1      -4.176   2.446  24.338  0.00  0.00    +0.019 A 
BRANCH  23  26
ATOM     26  C   UNL     1      -6.233   2.080  24.970  0.00  0.00    +0.419 C 
ATOM     27  F   UNL     1      -7.028   1.861  24.949  0.00  0.00    -0.166 F 
ATOM     28  F   UNL     1      -6.019   1.332  24.697  0.00  0.00    -0.166 F 
ATOM     29  F   UNL     1      -6.448   2.829  25.244  0.00  0.00    -0.166 F 
ENDBRANCH  23  26
ENDBRANCH  16  20
BRANCH  13  10
ATOM      8  C   UNL     1       0.246   2.211  24.603  0.00  0.00    +0.119 C 
ATOM      9  C   UNL     1      -0.487   2.506  24.366  0.00  0.00    +0.035 C 
ATOM     10  C   UNL     1      -0.947   2.618  25.042  0.00  0.00    +0.048 C 
ATOM     11  C   UNL     1      -0.498   2.391  25.697  0.00  0.00    -0.025 C 
ATOM     12  C   UNL     1       0.240   2.140  25.424  0.00  0.00    -0.009 C 
BRANCH   8   7
ATOM      4  N   UNL     1       1.577   1.064  23.307  0.00  0.00    -0.189 NA
ATOM      5  C   UNL     1       0.947   1.255  23.805  0.00  0.00    +0.339 C 
ATOM      6  O   UNL     1       0.390   0.681  24.004  0.00  0.00    -0.249 OA
ATOM      7  N   UNL     1       0.876   2.020  24.104  0.00  0.00    -0.184 NA
BRANCH   4   2
ATOM      1  C   UNL     1       2.377  -0.089  23.035  0.00  0.00    +0.023 C 
ATOM      2  C   UNL     1       1.648   0.299  23.008  0.00  0.00    +0.097 C 
ATOM      3  C   UNL     1       0.993  -0.080  22.682  0.00  0.00    +0.023 C 
ENDBRANCH   4   2
ENDBRANCH   8   7
ENDBRANCH  13  10
TORSDOF 5
ENDMDL
