MODEL 1
REMARK VINA RESULT:      -9.5      0.000      0.000
REMARK  Name = 
REMARK  6 active torsions:
REMARK  status: ('A' for Active; 'I' for Inactive)
REMARK    1  A    between atoms: C_3  and  C_4
REMARK    2  A    between atoms: C_4  and  N_5
REMARK    3  A    between atoms: N_8  and  C_9
REMARK    4  A    between atoms: C_17  and  N_18
REMARK    5  A    between atoms: N_18  and  C_19
REMARK    6  A    between atoms: C_19  and  C_20
REMARK                            x       y       z     vdW  Elec       q    Type
REMARK                         _______ _______ _______ _____ _____    ______ ____
ROOT
ATOM      1  O   UNL     1      -3.414   1.027  23.596  0.00  0.00    -0.219 OA
ATOM      2  C   UNL     1      -3.904   1.051  24.259  0.00  0.00    +0.199 C 
ATOM      3  C   UNL     1      -4.084   1.723  24.704  0.00  0.00    +0.169 C 
ATOM     15  O   UNL     1      -4.591   1.497  25.314  0.00  0.00    -0.350 OA
ATOM     16  C   UNL     1      -4.725   0.685  25.247  0.00  0.00    +0.162 C 
ATOM     17  C   UNL     1      -4.300   0.410  24.595  0.00  0.00    +0.135 C 
ENDROOT
BRANCH   3   4
ATOM      4  C   UNL     1      -3.806   2.487  24.562  0.00  0.00    +0.149 C 
BRANCH   4   5
ATOM      5  N   UNL     1      -3.358   2.875  25.137  0.00  0.00    -0.184 NA
ATOM      6  C   UNL     1      -2.810   3.449  24.913  0.00  0.00    +0.344 C 
ATOM      7  O   UNL     1      -2.709   3.636  24.116  0.00  0.00    -0.249 OA
ATOM      8  N   UNL     1      -2.362   3.838  25.488  0.00  0.00    -0.161 NA
BRANCH   8   9
ATOM      9  C   UNL     1      -1.814   4.412  25.264  0.00  0.00    +0.075 A 
ATOM     10  C   UNL     1      -2.030   5.208  25.255  0.00  0.00    +0.017 A 
ATOM     11  C   UNL     1      -1.481   5.782  25.031  0.00  0.00    +0.001 A 
ATOM     12  C   UNL     1      -0.716   5.560  24.816  0.00  0.00    +0.000 A 
ATOM     13  C   UNL     1      -0.500   4.764  24.825  0.00  0.00    +0.001 A 
ATOM     14  C   UNL     1      -1.048   4.189  25.049  0.00  0.00    +0.017 A 
ENDBRANCH   8   9
ENDBRANCH   4   5
ENDBRANCH   3   4
BRANCH  17  18
ATOM     18  N   UNL     1      -4.275  -0.369  24.326  0.00  0.00    -0.209 NA
BRANCH  18  19
ATOM     19  C   UNL     1      -4.251  -0.991  24.866  0.00  0.00    +0.117 C 
BRANCH  19  20
ATOM     20  C   UNL     1      -4.000  -1.740  24.624  0.00  0.00    +0.014 A 
ATOM     21  C   UNL     1      -3.422  -2.141  25.056  0.00  0.00    +0.000 A 
ATOM     22  C   UNL     1      -3.172  -2.888  24.813  0.00  0.00    +0.020 A 
ATOM     23  C   UNL     1      -3.498  -3.235  24.140  0.00  0.00    +0.099 A 
ATOM     24  N   UNL     1      -4.076  -2.834  23.708  0.00  0.00    -0.243 NA
ATOM     25  C   UNL     1      -4.327  -2.086  23.950  0.00  0.00    +0.096 A 
ENDBRANCH  19  20
ENDBRANCH  18  19
ENDBRANCH  17  18
TORSDOF 6
ENDMDL
MODEL 2
REMARK VINA RESULT:      -9.2      0.815      5.974
REMARK  Name = 
REMARK  6 active torsions:
REMARK  status: ('A' for Active; 'I' for Inactive)
REMARK    1  A    between atoms: C_3  and  C_4
REMARK    2  A    between atoms: C_4  and  N_5
REMARK    3  A    between atoms: N_8  and  C_9
REMARK    4  A    between atoms: C_17  and  N_18
REMARK    5  A    between atoms: N_18  and  C_19
REMARK    6  A    between atoms: C_19  and  C_20
REMARK                            x       y       z     vdW  Elec       q    Type
REMARK                         _______ _______ _______ _____ _____    ______ ____
ROOT
ATOM      1  O   UNL     1      -3.106   2.383  23.638  0.00  0.00    -0.219 OA
ATOM      2  C   UNL     1      -3.531   2.469  24.340  0.00  0.00    +0.199 C 
ATOM      3  C   UNL     1      -4.068   1.925  24.652  0.00  0.00    +0.169 C 
ATOM     15  O   UNL     1      -4.362   2.233  25.358  0.00  0.00    -0.350 OA
ATOM     16  C   UNL     1      -4.009   2.968  25.483  0.00  0.00    +0.162 C 
ATOM     17  C   UNL     1      -3.495   3.114  24.854  0.00  0.00    +0.135 C 
ENDROOT
BRANCH   3   4
ATOM      4  C   UNL     1      -4.272   1.200  24.316  0.00  0.00    +0.149 C 
BRANCH   4   5
ATOM      5  N   UNL     1      -4.355   0.532  24.795  0.00  0.00    -0.184 NA
ATOM      6  C   UNL     1      -4.124  -0.208  24.513  0.00  0.00    +0.344 C 
ATOM      7  O   UNL     1      -3.811  -0.281  23.754  0.00  0.00    -0.249 OA
ATOM      8  N   UNL     1      -4.207  -0.875  24.992  0.00  0.00    -0.161 NA
BRANCH   8   9
ATOM      9  C   UNL     1      -3.976  -1.615  24.710  0.00  0.00    +0.075 A 
ATOM     10  C   UNL     1      -3.351  -2.017  25.069  0.00  0.00    +0.017 A 
ATOM     11  C   UNL     1      -3.121  -2.758  24.786  0.00  0.00    +0.001 A 
ATOM     12  C   UNL     1      -3.515  -3.096  24.146  0.00  0.00    +0.000 A 
ATOM     13  C   UNL     1      -4.140  -2.694  23.787  0.00  0.00    +0.001 A 
ATOM     14  C   UNL     1      -4.371  -1.954  24.069  0.00  0.00    +0.017 A 
ENDBRANCH   8   9
ENDBRANCH   4   5
ENDBRANCH   3   4
BRANCH  17  18
ATOM     18  N   UNL     1      -3.027   3.786  24.756  0.00  0.00    -0.209 NA
BRANCH  18  19
ATOM     19  C   UNL     1      -2.522   4.029  25.361  0.00  0.00    +0.117 C 
BRANCH  19  20
ATOM     20  C   UNL     1      -1.870   4.505  25.188  0.00  0.00    +0.014 A 
ATOM     21  C   UNL     1      -1.964   5.322  25.112  0.00  0.00    +0.000 A 
ATOM     22  C   UNL     1      -1.312   5.797  24.940  0.00  0.00    +0.020 A 
ATOM     23  C   UNL     1      -0.567   5.457  24.844  0.00  0.00    +0.099 A 
ATOM     24  N   UNL     1      -0.473   4.640  24.921  0.00  0.00    -0.243 NA
ATOM     25  C   UNL     1      -1.125   4.164  25.093  0.00  0.00    +0.096 A 
ENDBRANCH  19  20
ENDBRANCH  18  19
ENDBRANCH  17  18
TORSDOF 6
ENDMDL
MODEL 3
REMARK VINA RESULT:      -9.1      1.819      6.345
REMARK  Name = 
REMARK  6 active torsions:
REMARK  status: ('A' for Active; 'I' for Inactive)
REMARK    1  A    between atoms: C_3  and  C_4
REMARK    2  A    between atoms: C_4  and  N_5
REMARK    3  A    between atoms: N_8  and  C_9
REMARK    4  A    between atoms: C_17  and  N_18
REMARK    5  A    between atoms: N_18  and  C_19
REMARK    6  A    between atoms: C_19  and  C_20
REMARK                            x       y       z     vdW  Elec       q    Type
REMARK                         _______ _______ _______ _____ _____    ______ ____
ROOT
ATOM      1  O   UNL     1      -1.404   1.607  23.948  0.00  0.00    -0.219 OA
ATOM      2  C   UNL     1      -1.104   1.524  24.712  0.00  0.00    +0.199 C 
ATOM      3  C   UNL     1      -1.064   0.822  25.145  0.00  0.00    +0.169 C 
ATOM     15  O   UNL     1      -0.727   0.993  25.878  0.00  0.00    -0.350 OA
ATOM     16  C   UNL     1      -0.557   1.800  25.899  0.00  0.00    +0.162 C 
ATOM     17  C   UNL     1      -0.790   2.129  25.178  0.00  0.00    +0.135 C 
ENDROOT
BRANCH   3   4
ATOM      4  C   UNL     1      -1.318   0.081  24.888  0.00  0.00    +0.149 C 
BRANCH   4   5
ATOM      5  N   UNL     1      -2.011  -0.247  25.196  0.00  0.00    -0.184 NA
ATOM      6  C   UNL     1      -2.371  -0.883  24.814  0.00  0.00    +0.344 C 
ATOM      7  O   UNL     1      -2.040  -1.190  24.123  0.00  0.00    -0.249 OA
ATOM      8  N   UNL     1      -3.063  -1.211  25.122  0.00  0.00    -0.161 NA
BRANCH   8   9
ATOM      9  C   UNL     1      -3.424  -1.846  24.739  0.00  0.00    +0.075 A 
ATOM     10  C   UNL     1      -3.213  -2.620  24.935  0.00  0.00    +0.017 A 
ATOM     11  C   UNL     1      -3.575  -3.254  24.551  0.00  0.00    +0.001 A 
ATOM     12  C   UNL     1      -4.146  -3.117  23.972  0.00  0.00    +0.000 A 
ATOM     13  C   UNL     1      -4.356  -2.343  23.777  0.00  0.00    +0.001 A 
ATOM     14  C   UNL     1      -3.996  -1.708  24.160  0.00  0.00    +0.017 A 
ENDBRANCH   8   9
ENDBRANCH   4   5
ENDBRANCH   3   4
BRANCH  17  18
ATOM     18  N   UNL     1      -0.722   2.921  24.963  0.00  0.00    -0.209 NA
BRANCH  18  19
ATOM     19  C   UNL     1      -0.839   3.514  25.524  0.00  0.00    +0.117 C 
BRANCH  19  20
ATOM     20  C   UNL     1      -1.019   4.283  25.283  0.00  0.00    +0.014 A 
ATOM     21  C   UNL     1      -1.757   4.609  25.458  0.00  0.00    +0.000 A 
ATOM     22  C   UNL     1      -1.935   5.377  25.217  0.00  0.00    +0.020 A 
ATOM     23  C   UNL     1      -1.378   5.819  24.800  0.00  0.00    +0.099 A 
ATOM     24  N   UNL     1      -0.640   5.493  24.625  0.00  0.00    -0.243 NA
ATOM     25  C   UNL     1      -0.460   4.724  24.866  0.00  0.00    +0.096 A 
ENDBRANCH  19  20
ENDBRANCH  18  19
ENDBRANCH  17  18
TORSDOF 6
ENDMDL
MODEL 4
REMARK VINA RESULT:      -8.8      1.768      2.127
REMARK  Name = 
REMARK  6 active torsions:
REMARK  status: ('A' for Active; 'I' for Inactive)
REMARK    1  A    between atoms: C_3  and  C_4
REMARK    2  A    between atoms: C_4  and  N_5
REMARK    3  A    between atoms: N_8  and  C_9
REMARK    4  A    between atoms: C_17  and  N_18
REMARK    5  A    between atoms: N_18  and  C_19
REMARK    6  A    between atoms: C_19  and  C_20
REMARK                            x       y       z     vdW  Elec       q    Type
REMARK                         _______ _______ _______ _____ _____    ______ ____
ROOT
ATOM      1  O   UNL     1      -1.523   0.237  23.850  0.00  0.00    -0.219 OA
ATOM      2  C   UNL     1      -1.404   0.081  24.651  0.00  0.00    +0.199 C 
ATOM      3  C   UNL     1      -1.017   0.574  25.189  0.00  0.00    +0.169 C 
ATOM     15  O   UNL     1      -1.024   0.203  25.925  0.00  0.00    -0.350 OA
ATOM     16  C   UNL     1      -1.416  -0.518  25.844  0.00  0.00    +0.162 C 
ATOM     17  C   UNL     1      -1.651  -0.594  25.056  0.00  0.00    +0.135 C 
ENDROOT
BRANCH   3   4
ATOM      4  C   UNL     1      -0.681   1.308  25.018  0.00  0.00    +0.149 C 
BRANCH   4   5
ATOM      5  N   UNL     1      -0.797   1.943  25.532  0.00  0.00    -0.184 NA
ATOM      6  C   UNL     1      -0.915   2.702  25.230  0.00  0.00    +0.344 C 
ATOM      7  O   UNL     1      -0.917   2.825  24.414  0.00  0.00    -0.249 OA
ATOM      8  N   UNL     1      -1.031   3.337  25.744  0.00  0.00    -0.161 NA
BRANCH   8   9
ATOM      9  C   UNL     1      -1.149   4.095  25.441  0.00  0.00    +0.075 A 
ATOM     10  C   UNL     1      -0.529   4.492  25.068  0.00  0.00    +0.017 A 
ATOM     11  C   UNL     1      -0.648   5.251  24.766  0.00  0.00    +0.001 A 
ATOM     12  C   UNL     1      -1.386   5.612  24.836  0.00  0.00    +0.000 A 
ATOM     13  C   UNL     1      -2.006   5.215  25.209  0.00  0.00    +0.001 A 
ATOM     14  C   UNL     1      -1.888   4.457  25.512  0.00  0.00    +0.017 A 
ENDBRANCH   8   9
ENDBRANCH   4   5
ENDBRANCH   3   4
BRANCH  17  18
ATOM     18  N   UNL     1      -2.060  -1.231  24.731  0.00  0.00    -0.209 NA
BRANCH  18  19
ATOM     19  C   UNL     1      -2.740  -1.517  25.100  0.00  0.00    +0.117 C 
BRANCH  19  20
ATOM     20  C   UNL     1      -3.263  -2.002  24.684  0.00  0.00    +0.014 A 
ATOM     21  C   UNL     1      -3.889  -1.668  24.264  0.00  0.00    +0.000 A 
ATOM     22  C   UNL     1      -4.412  -2.153  23.849  0.00  0.00    +0.020 A 
ATOM     23  C   UNL     1      -4.309  -2.971  23.854  0.00  0.00    +0.099 A 
ATOM     24  N   UNL     1      -3.682  -3.305  24.275  0.00  0.00    -0.243 NA
ATOM     25  C   UNL     1      -3.159  -2.820  24.690  0.00  0.00    +0.096 A 
ENDBRANCH  19  20
ENDBRANCH  18  19
ENDBRANCH  17  18
TORSDOF 6
ENDMDL
MODEL 5
REMARK VINA RESULT:      -8.8      4.273      5.735
REMARK  Name = 
REMARK  6 active torsions:
REMARK  status: ('A' for Active; 'I' for Inactive)
REMARK    1  A    between atoms: C_3  and  C_4
REMARK    2  A    between atoms: C_4  and  N_5
REMARK    3  A    between atoms: N_8  and  C_9
REMARK    4  A    between atoms: C_17  and  N_18
REMARK    5  A    between atoms: N_18  and  C_19
REMARK    6  A    between atoms: C_19  and  C_20
REMARK                            x       y       z     vdW  Elec       q    Type
REMARK                         _______ _______ _______ _____ _____    ______ ____
ROOT
ATOM      1  O   UNL     1       0.636   1.806  24.293  0.00  0.00    -0.219 OA
ATOM      2  C   UNL     1       0.440   1.106  23.903  0.00  0.00    +0.199 C 
ATOM      3  C   UNL     1      -0.311   0.764  23.869  0.00  0.00    +0.169 C 
ATOM     15  O   UNL     1      -0.256   0.072  23.424  0.00  0.00    -0.350 OA
ATOM     16  C   UNL     1       0.529  -0.014  23.183  0.00  0.00    +0.162 C 
ATOM     17  C   UNL     1       0.958   0.626  23.479  0.00  0.00    +0.135 C 
ENDROOT
BRANCH   3   4
ATOM      4  C   UNL     1      -0.996   1.063  24.219  0.00  0.00    +0.149 C 
BRANCH   4   5
ATOM      5  N   UNL     1      -1.728   0.946  23.856  0.00  0.00    -0.184 NA
ATOM      6  C   UNL     1      -2.418   1.194  24.234  0.00  0.00    +0.344 C 
ATOM      7  O   UNL     1      -2.377   1.558  24.973  0.00  0.00    -0.249 OA
ATOM      8  N   UNL     1      -3.151   1.077  23.871  0.00  0.00    -0.161 NA
BRANCH   8   9
ATOM      9  C   UNL     1      -3.841   1.325  24.249  0.00  0.00    +0.075 A 
ATOM     10  C   UNL     1      -4.103   2.103  24.164  0.00  0.00    +0.017 A 
ATOM     11  C   UNL     1      -4.793   2.349  24.542  0.00  0.00    +0.001 A 
ATOM     12  C   UNL     1      -5.222   1.819  25.005  0.00  0.00    +0.000 A 
ATOM     13  C   UNL     1      -4.961   1.041  25.090  0.00  0.00    +0.001 A 
ATOM     14  C   UNL     1      -4.271   0.793  24.713  0.00  0.00    +0.017 A 
ENDBRANCH   8   9
ENDBRANCH   4   5
ENDBRANCH   3   4
BRANCH  17  18
ATOM     18  N   UNL     1       1.765   0.760  23.370  0.00  0.00    -0.209 NA
BRANCH  18  19
ATOM     19  C   UNL     1       2.206   0.257  22.888  0.00  0.00    +0.117 C 
BRANCH  19  20
ATOM     20  C   UNL     1       3.030   0.288  22.903  0.00  0.00    +0.014 A 
ATOM     21  C   UNL     1       3.423   0.960  22.626  0.00  0.00    +0.000 A 
ATOM     22  C   UNL     1       4.247   0.990  22.641  0.00  0.00    +0.020 A 
ATOM     23  C   UNL     1       4.679   0.351  22.932  0.00  0.00    +0.099 A 
ATOM     24  N   UNL     1       4.287  -0.321  23.209  0.00  0.00    -0.243 NA
ATOM     25  C   UNL     1       3.462  -0.352  23.194  0.00  0.00    +0.096 A 
ENDBRANCH  19  20
ENDBRANCH  18  19
ENDBRANCH  17  18
TORSDOF 6
ENDMDL
MODEL 6
REMARK VINA RESULT:      -7.9      4.158      5.111
REMARK  Name = 
REMARK  6 active torsions:
REMARK  status: ('A' for Active; 'I' for Inactive)
REMARK    1  A    between atoms: C_3  and  C_4
REMARK    2  A    between atoms: C_4  and  N_5
REMARK    3  A    between atoms: N_8  and  C_9
REMARK    4  A    between atoms: C_17  and  N_18
REMARK    5  A    between atoms: N_18  and  C_19
REMARK    6  A    between atoms: C_19  and  C_20
REMARK                            x       y       z     vdW  Elec       q    Type
REMARK                         _______ _______ _______ _____ _____    ______ ____
ROOT
ATOM      1  O   UNL     1      -0.912   2.242  24.406  0.00  0.00    -0.219 OA
ATOM      2  C   UNL     1      -1.049   1.454  24.205  0.00  0.00    +0.199 C 
ATOM      3  C   UNL     1      -0.483   0.915  23.938  0.00  0.00    +0.169 C 
ATOM     15  O   UNL     1      -0.861   0.195  23.802  0.00  0.00    -0.350 OA
ATOM     16  C   UNL     1      -1.660   0.287  23.985  0.00  0.00    +0.162 C 
ATOM     17  C   UNL     1      -1.777   1.065  24.234  0.00  0.00    +0.135 C 
ENDROOT
BRANCH   3   4
ATOM      4  C   UNL     1       0.319   1.071  23.827  0.00  0.00    +0.149 C 
BRANCH   4   5
ATOM      5  N   UNL     1       0.775   0.570  23.355  0.00  0.00    -0.184 NA
ATOM      6  C   UNL     1       1.596   0.650  23.343  0.00  0.00    +0.344 C 
ATOM      7  O   UNL     1       1.961   1.229  23.803  0.00  0.00    -0.249 OA
ATOM      8  N   UNL     1       2.051   0.149  22.870  0.00  0.00    -0.161 NA
BRANCH   8   9
ATOM      9  C   UNL     1       2.872   0.229  22.859  0.00  0.00    +0.075 A 
ATOM     10  C   UNL     1       3.220   0.865  22.465  0.00  0.00    +0.017 A 
ATOM     11  C   UNL     1       4.042   0.943  22.454  0.00  0.00    +0.001 A 
ATOM     12  C   UNL     1       4.515   0.386  22.836  0.00  0.00    +0.000 A 
ATOM     13  C   UNL     1       4.167  -0.250  23.230  0.00  0.00    +0.001 A 
ATOM     14  C   UNL     1       3.346  -0.329  23.241  0.00  0.00    +0.017 A 
ENDBRANCH   8   9
ENDBRANCH   4   5
ENDBRANCH   3   4
BRANCH  17  18
ATOM     18  N   UNL     1      -2.494   1.397  24.469  0.00  0.00    -0.209 NA
BRANCH  18  19
ATOM     19  C   UNL     1      -3.204   1.082  24.193  0.00  0.00    +0.117 C 
BRANCH  19  20
ATOM     20  C   UNL     1      -3.923   1.399  24.447  0.00  0.00    +0.014 A 
ATOM     21  C   UNL     1      -4.406   0.968  24.960  0.00  0.00    +0.000 A 
ATOM     22  C   UNL     1      -5.123   1.285  25.214  0.00  0.00    +0.020 A 
ATOM     23  C   UNL     1      -5.360   2.032  24.956  0.00  0.00    +0.099 A 
ATOM     24  N   UNL     1      -4.877   2.462  24.443  0.00  0.00    -0.243 NA
ATOM     25  C   UNL     1      -4.159   2.146  24.188  0.00  0.00    +0.096 A 
ENDBRANCH  19  20
ENDBRANCH  18  19
ENDBRANCH  17  18
TORSDOF 6
ENDMDL
