MODEL 1
REMARK VINA RESULT:     -11.8      0.000      0.000
REMARK  Name = 
REMARK  9 active torsions:
REMARK  status: ('A' for Active; 'I' for Inactive)
REMARK    1  A    between atoms: O_2  and  C_3
REMARK    2  A    between atoms: C_6  and  N_7
REMARK    3  A    between atoms: N_10  and  C_11
REMARK    4  A    between atoms: C_11  and  C_12
REMARK    5  A    between atoms: C_14  and  C_15
REMARK    6  A    between atoms: C_15  and  C_16
REMARK    7  A    between atoms: C_19  and  C_20
REMARK    8  A    between atoms: C_20  and  O_21
REMARK    9  A    between atoms: O_21  and  C_22
REMARK                            x       y       z     vdW  Elec       q    Type
REMARK                         _______ _______ _______ _____ _____    ______ ____
ROOT
ATOM     12  C   UNL     1      -2.986  -1.640  24.864  0.00  0.00    +0.167 C 
ATOM     13  O   UNL     1      -2.258  -1.308  25.066  0.00  0.00    -0.354 OA
ATOM     14  C   UNL     1      -1.560  -1.726  24.925  0.00  0.00    +0.121 C 
ATOM     29  C   UNL     1      -1.591  -2.476  24.581  0.00  0.00    +0.033 C 
ATOM     30  C   UNL     1      -2.319  -2.808  24.379  0.00  0.00    +0.038 C 
ATOM     31  C   UNL     1      -3.017  -2.390  24.521  0.00  0.00    +0.181 C 
ATOM     32  O   UNL     1      -3.744  -2.722  24.319  0.00  0.00    -0.220 OA
ENDROOT
BRANCH  12  11
ATOM     11  C   UNL     1      -3.683  -1.223  25.006  0.00  0.00    +0.149 C 
BRANCH  11  10
ATOM      7  N   UNL     1      -4.462   0.701  24.330  0.00  0.00    -0.161 NA
ATOM      8  C   UNL     1      -4.246   0.078  24.825  0.00  0.00    +0.344 C 
ATOM      9  O   UNL     1      -4.379   0.133  25.638  0.00  0.00    -0.249 OA
ATOM     10  N   UNL     1      -3.899  -0.599  24.509  0.00  0.00    -0.184 NA
BRANCH   7   6
ATOM      3  C   UNL     1      -5.507   2.734  25.279  0.00  0.00    +0.139 A 
ATOM      4  C   UNL     1      -5.897   2.009  25.326  0.00  0.00    +0.038 A 
ATOM      5  C   UNL     1      -5.549   1.331  25.009  0.00  0.00    +0.020 A 
ATOM      6  C   UNL     1      -4.810   1.379  24.646  0.00  0.00    +0.075 A 
ATOM     33  C   UNL     1      -4.420   2.103  24.599  0.00  0.00    +0.020 A 
ATOM     34  C   UNL     1      -4.768   2.781  24.915  0.00  0.00    +0.038 A 
BRANCH   3   2
ATOM      1  C   UNL     1      -5.412   4.102  25.680  0.00  0.00    +0.252 C 
ATOM      2  O   UNL     1      -5.855   3.412  25.595  0.00  0.00    -0.471 OA
ENDBRANCH   3   2
ENDBRANCH   7   6
ENDBRANCH  11  10
ENDBRANCH  12  11
BRANCH  14  15
ATOM     15  C   UNL     1      -0.833  -1.394  25.126  0.00  0.00    +0.079 C 
BRANCH  15  16
ATOM     16  C   UNL     1      -0.594  -0.684  24.781  0.00  0.00    +0.103 A 
ATOM     17  N   UNL     1      -0.245  -0.599  24.038  0.00  0.00    -0.082 NA
ATOM     18  O   UNL     1      -0.098   0.203  23.917  0.00  0.00    -0.354 OA
ATOM     19  C   UNL     1      -0.354   0.614  24.585  0.00  0.00    +0.198 A 
ATOM     28  C   UNL     1      -0.661   0.066  25.119  0.00  0.00    +0.057 A 
BRANCH  19  20
ATOM     20  C   UNL     1      -0.312   1.431  24.698  0.00  0.00    +0.272 C 
BRANCH  20  21
ATOM     21  O   UNL     1      -0.981   1.899  24.582  0.00  0.00    -0.467 OA
BRANCH  21  22
ATOM     22  C   UNL     1      -0.959   2.703  24.766  0.00  0.00    +0.139 A 
ATOM     23  C   UNL     1      -1.224   2.965  25.502  0.00  0.00    +0.037 A 
ATOM     24  C   UNL     1      -1.201   3.769  25.686  0.00  0.00    +0.003 A 
ATOM     25  C   UNL     1      -0.913   4.311  25.133  0.00  0.00    +0.000 A 
ATOM     26  C   UNL     1      -0.649   4.048  24.398  0.00  0.00    +0.003 A 
ATOM     27  C   UNL     1      -0.671   3.244  24.214  0.00  0.00    +0.037 A 
ENDBRANCH  21  22
ENDBRANCH  20  21
ENDBRANCH  19  20
ENDBRANCH  15  16
ENDBRANCH  14  15
TORSDOF 9
ENDMDL
MODEL 2
REMARK VINA RESULT:     -11.7      1.562      5.859
REMARK  Name = 
REMARK  9 active torsions:
REMARK  status: ('A' for Active; 'I' for Inactive)
REMARK    1  A    between atoms: O_2  and  C_3
REMARK    2  A    between atoms: C_6  and  N_7
REMARK    3  A    between atoms: N_10  and  C_11
REMARK    4  A    between atoms: C_11  and  C_12
REMARK    5  A    between atoms: C_14  and  C_15
REMARK    6  A    between atoms: C_15  and  C_16
REMARK    7  A    between atoms: C_19  and  C_20
REMARK    8  A    between atoms: C_20  and  O_21
REMARK    9  A    between atoms: O_21  and  C_22
REMARK                            x       y       z     vdW  Elec       q    Type
REMARK                         _______ _______ _______ _____ _____    ______ ____
ROOT
ATOM     12  C   UNL     1      -2.586   3.499  25.034  0.00  0.00    +0.167 C 
ATOM     13  O   UNL     1      -3.261   3.116  24.753  0.00  0.00    -0.354 OA
ATOM     14  C   UNL     1      -4.007   3.347  25.022  0.00  0.00    +0.121 C 
ATOM     29  C   UNL     1      -4.076   3.960  25.570  0.00  0.00    +0.033 C 
ATOM     30  C   UNL     1      -3.401   4.342  25.851  0.00  0.00    +0.038 C 
ATOM     31  C   UNL     1      -2.655   4.111  25.582  0.00  0.00    +0.181 C 
ATOM     32  O   UNL     1      -1.980   4.493  25.863  0.00  0.00    -0.220 OA
ENDROOT
BRANCH  12  11
ATOM     11  C   UNL     1      -1.840   3.268  24.766  0.00  0.00    +0.149 C 
BRANCH  11  10
ATOM      7  N   UNL     1      -0.688   1.414  24.790  0.00  0.00    -0.161 NA
ATOM      8  C   UNL     1      -1.020   2.123  24.528  0.00  0.00    +0.344 C 
ATOM      9  O   UNL     1      -0.862   2.395  23.765  0.00  0.00    -0.249 OA
ATOM     10  N   UNL     1      -1.508   2.559  25.028  0.00  0.00    -0.184 NA
BRANCH   7   6
ATOM      3  C   UNL     1       0.780   0.105  23.287  0.00  0.00    +0.139 A 
ATOM      4  C   UNL     1       0.019  -0.164  23.459  0.00  0.00    +0.038 A 
ATOM      5  C   UNL     1      -0.470   0.272  23.960  0.00  0.00    +0.020 A 
ATOM      6  C   UNL     1      -0.198   0.978  24.289  0.00  0.00    +0.075 A 
ATOM     33  C   UNL     1       0.561   1.247  24.118  0.00  0.00    +0.020 A 
ATOM     34  C   UNL     1       1.051   0.811  23.617  0.00  0.00    +0.038 A 
BRANCH   3   2
ATOM      1  C   UNL     1       1.946   0.013  22.467  0.00  0.00    +0.252 C 
ATOM      2  O   UNL     1       1.269  -0.332  22.787  0.00  0.00    -0.471 OA
ENDBRANCH   3   2
ENDBRANCH   7   6
ENDBRANCH  11  10
ENDBRANCH  12  11
BRANCH  14  15
ATOM     15  C   UNL     1      -4.682   2.965  24.741  0.00  0.00    +0.079 C 
BRANCH  15  16
ATOM     16  C   UNL     1      -4.835   2.185  24.961  0.00  0.00    +0.103 A 
ATOM     17  N   UNL     1      -5.260   1.943  25.625  0.00  0.00    -0.082 NA
ATOM     18  O   UNL     1      -5.278   1.118  25.629  0.00  0.00    -0.354 OA
ATOM     19  C   UNL     1      -4.864   0.851  24.968  0.00  0.00    +0.198 A 
ATOM     28  C   UNL     1      -4.590   1.509  24.554  0.00  0.00    +0.057 A 
BRANCH  19  20
ATOM     20  C   UNL     1      -4.745   0.062  24.757  0.00  0.00    +0.272 C 
BRANCH  20  21
ATOM     21  O   UNL     1      -3.986  -0.262  24.780  0.00  0.00    -0.467 OA
BRANCH  21  22
ATOM     22  C   UNL     1      -3.879  -1.070  24.656  0.00  0.00    +0.139 A 
ATOM     23  C   UNL     1      -3.490  -1.526  25.223  0.00  0.00    +0.037 A 
ATOM     24  C   UNL     1      -3.382  -2.334  25.099  0.00  0.00    +0.003 A 
ATOM     25  C   UNL     1      -3.664  -2.687  24.408  0.00  0.00    +0.000 A 
ATOM     26  C   UNL     1      -4.052  -2.230  23.841  0.00  0.00    +0.003 A 
ATOM     27  C   UNL     1      -4.160  -1.422  23.965  0.00  0.00    +0.037 A 
ENDBRANCH  21  22
ENDBRANCH  20  21
ENDBRANCH  19  20
ENDBRANCH  15  16
ENDBRANCH  14  15
TORSDOF 9
ENDMDL
MODEL 3
REMARK VINA RESULT:     -11.3      1.102      3.812
REMARK  Name = 
REMARK  9 active torsions:
REMARK  status: ('A' for Active; 'I' for Inactive)
REMARK    1  A    between atoms: O_2  and  C_3
REMARK    2  A    between atoms: C_6  and  N_7
REMARK    3  A    between atoms: N_10  and  C_11
REMARK    4  A    between atoms: C_11  and  C_12
REMARK    5  A    between atoms: C_14  and  C_15
REMARK    6  A    between atoms: C_15  and  C_16
REMARK    7  A    between atoms: C_19  and  C_20
REMARK    8  A    between atoms: C_20  and  O_21
REMARK    9  A    between atoms: O_21  and  C_22
REMARK                            x       y       z     vdW  Elec       q    Type
REMARK                         _______ _______ _______ _____ _____    ______ ____
ROOT
ATOM     12  C   UNL     1      -1.080  -0.705  24.609  0.00  0.00    +0.167 C 
ATOM     13  O   UNL     1      -1.843  -0.784  24.913  0.00  0.00    -0.354 OA
ATOM     14  C   UNL     1      -2.168  -1.535  25.024  0.00  0.00    +0.121 C 
ATOM     29  C   UNL     1      -1.729  -2.206  24.829  0.00  0.00    +0.033 C 
ATOM     30  C   UNL     1      -0.966  -2.128  24.525  0.00  0.00    +0.038 C 
ATOM     31  C   UNL     1      -0.641  -1.376  24.415  0.00  0.00    +0.181 C 
ATOM     32  O   UNL     1       0.121  -1.297  24.111  0.00  0.00    -0.220 OA
ENDROOT
BRANCH  12  11
ATOM     11  C   UNL     1      -0.756   0.046  24.499  0.00  0.00    +0.149 C 
BRANCH  11  10
ATOM      7  N   UNL     1      -0.753   1.912  25.632  0.00  0.00    -0.161 NA
ATOM      8  C   UNL     1      -0.796   1.383  25.000  0.00  0.00    +0.344 C 
ATOM      9  O   UNL     1      -0.920   1.666  24.234  0.00  0.00    -0.249 OA
ATOM     10  N   UNL     1      -0.714   0.574  25.132  0.00  0.00    -0.184 NA
BRANCH   7   6
ATOM      3  C   UNL     1      -1.000   4.342  25.234  0.00  0.00    +0.139 A 
ATOM      4  C   UNL     1      -1.555   3.940  25.692  0.00  0.00    +0.038 A 
ATOM      5  C   UNL     1      -1.473   3.130  25.825  0.00  0.00    +0.020 A 
ATOM      6  C   UNL     1      -0.835   2.722  25.499  0.00  0.00    +0.075 A 
ATOM     33  C   UNL     1      -0.279   3.123  25.041  0.00  0.00    +0.020 A 
ATOM     34  C   UNL     1      -0.362   3.933  24.909  0.00  0.00    +0.038 A 
BRANCH   3   2
ATOM      1  C   UNL     1      -1.830   5.498  25.110  0.00  0.00    +0.252 C 
ATOM      2  O   UNL     1      -1.082   5.152  25.102  0.00  0.00    -0.471 OA
ENDBRANCH   3   2
ENDBRANCH   7   6
ENDBRANCH  11  10
ENDBRANCH  12  11
BRANCH  14  15
ATOM     15  C   UNL     1      -2.930  -1.614  25.327  0.00  0.00    +0.079 C 
BRANCH  15  16
ATOM     16  C   UNL     1      -3.539  -1.136  25.042  0.00  0.00    +0.103 A 
ATOM     17  N   UNL     1      -3.971  -1.262  24.351  0.00  0.00    -0.082 NA
ATOM     18  O   UNL     1      -4.522  -0.653  24.280  0.00  0.00    -0.354 OA
ATOM     19  C   UNL     1      -4.431  -0.150  24.928  0.00  0.00    +0.198 A 
ATOM     28  C   UNL     1      -3.824  -0.449  25.399  0.00  0.00    +0.057 A 
BRANCH  19  20
ATOM     20  C   UNL     1      -4.871   0.532  25.078  0.00  0.00    +0.272 C 
BRANCH  20  21
ATOM     21  O   UNL     1      -4.732   1.218  24.640  0.00  0.00    -0.467 OA
BRANCH  21  22
ATOM     22  C   UNL     1      -4.985   1.948  24.926  0.00  0.00    +0.139 A 
ATOM     23  C   UNL     1      -5.535   1.981  25.541  0.00  0.00    +0.037 A 
ATOM     24  C   UNL     1      -5.789   2.712  25.827  0.00  0.00    +0.003 A 
ATOM     25  C   UNL     1      -5.493   3.409  25.500  0.00  0.00    +0.000 A 
ATOM     26  C   UNL     1      -4.943   3.375  24.886  0.00  0.00    +0.003 A 
ATOM     27  C   UNL     1      -4.690   2.645  24.599  0.00  0.00    +0.037 A 
ENDBRANCH  21  22
ENDBRANCH  20  21
ENDBRANCH  19  20
ENDBRANCH  15  16
ENDBRANCH  14  15
TORSDOF 9
ENDMDL
MODEL 4
REMARK VINA RESULT:     -10.9      1.389      4.719
REMARK  Name = 
REMARK  9 active torsions:
REMARK  status: ('A' for Active; 'I' for Inactive)
REMARK    1  A    between atoms: O_2  and  C_3
REMARK    2  A    between atoms: C_6  and  N_7
REMARK    3  A    between atoms: N_10  and  C_11
REMARK    4  A    between atoms: C_11  and  C_12
REMARK    5  A    between atoms: C_14  and  C_15
REMARK    6  A    between atoms: C_15  and  C_16
REMARK    7  A    between atoms: C_19  and  C_20
REMARK    8  A    between atoms: C_20  and  O_21
REMARK    9  A    between atoms: O_21  and  C_22
REMARK                            x       y       z     vdW  Elec       q    Type
REMARK                         _______ _______ _______ _____ _____    ______ ____
ROOT
ATOM     12  C   UNL     1      -0.369   1.573  24.859  0.00  0.00    +0.167 C 
ATOM     13  O   UNL     1      -0.768   2.102  25.350  0.00  0.00    -0.354 OA
ATOM     14  C   UNL     1      -0.533   2.893  25.383  0.00  0.00    +0.121 C 
ATOM     29  C   UNL     1       0.102   3.153  24.925  0.00  0.00    +0.033 C 
ATOM     30  C   UNL     1       0.502   2.624  24.434  0.00  0.00    +0.038 C 
ATOM     31  C   UNL     1       0.267   1.833  24.401  0.00  0.00    +0.181 C 
ATOM     32  O   UNL     1       0.666   1.304  23.911  0.00  0.00    -0.220 OA
ENDROOT
BRANCH  12  11
ATOM     11  C   UNL     1      -0.604   0.783  24.826  0.00  0.00    +0.149 C 
BRANCH  11  10
ATOM      7  N   UNL     1      -2.387  -0.356  25.364  0.00  0.00    -0.161 NA
ATOM      8  C   UNL     1      -1.713  -0.109  24.958  0.00  0.00    +0.344 C 
ATOM      9  O   UNL     1      -1.472  -0.508  24.277  0.00  0.00    -0.249 OA
ATOM     10  N   UNL     1      -1.279   0.536  25.233  0.00  0.00    -0.184 NA
BRANCH   7   6
ATOM      3  C   UNL     1      -3.689  -2.293  24.539  0.00  0.00    +0.139 A 
ATOM      4  C   UNL     1      -3.905  -1.527  24.321  0.00  0.00    +0.038 A 
ATOM      5  C   UNL     1      -3.471  -0.882  24.596  0.00  0.00    +0.020 A 
ATOM      6  C   UNL     1      -2.821  -1.002  25.089  0.00  0.00    +0.075 A 
ATOM     33  C   UNL     1      -2.604  -1.767  25.307  0.00  0.00    +0.020 A 
ATOM     34  C   UNL     1      -3.038  -2.412  25.032  0.00  0.00    +0.038 A 
BRANCH   3   2
ATOM      1  C   UNL     1      -4.447  -2.925  23.505  0.00  0.00    +0.252 C 
ATOM      2  O   UNL     1      -4.123  -2.938  24.264  0.00  0.00    -0.471 OA
ENDBRANCH   3   2
ENDBRANCH   7   6
ENDBRANCH  11  10
ENDBRANCH  12  11
BRANCH  14  15
ATOM     15  C   UNL     1      -0.932   3.421  25.874  0.00  0.00    +0.079 C 
BRANCH  15  16
ATOM     16  C   UNL     1      -1.677   3.702  25.658  0.00  0.00    +0.103 A 
ATOM     17  N   UNL     1      -1.829   4.351  25.173  0.00  0.00    -0.082 NA
ATOM     18  O   UNL     1      -2.647   4.432  25.105  0.00  0.00    -0.354 OA
ATOM     19  C   UNL     1      -3.001   3.833  25.548  0.00  0.00    +0.198 A 
ATOM     28  C   UNL     1      -2.402   3.382  25.890  0.00  0.00    +0.057 A 
BRANCH  19  20
ATOM     20  C   UNL     1      -3.812   3.708  25.634  0.00  0.00    +0.272 C 
BRANCH  20  21
ATOM     21  O   UNL     1      -4.255   3.424  24.998  0.00  0.00    -0.467 OA
BRANCH  21  22
ATOM     22  C   UNL     1      -4.902   2.931  25.134  0.00  0.00    +0.139 A 
ATOM     23  C   UNL     1      -5.396   3.068  25.781  0.00  0.00    +0.037 A 
ATOM     24  C   UNL     1      -6.042   2.574  25.918  0.00  0.00    +0.003 A 
ATOM     25  C   UNL     1      -6.195   1.943  25.408  0.00  0.00    +0.000 A 
ATOM     26  C   UNL     1      -5.701   1.807  24.761  0.00  0.00    +0.003 A 
ATOM     27  C   UNL     1      -5.055   2.300  24.625  0.00  0.00    +0.037 A 
ENDBRANCH  21  22
ENDBRANCH  20  21
ENDBRANCH  19  20
ENDBRANCH  15  16
ENDBRANCH  14  15
TORSDOF 9
ENDMDL
MODEL 5
REMARK VINA RESULT:     -10.6      1.240      4.497
REMARK  Name = 
REMARK  9 active torsions:
REMARK  status: ('A' for Active; 'I' for Inactive)
REMARK    1  A    between atoms: O_2  and  C_3
REMARK    2  A    between atoms: C_6  and  N_7
REMARK    3  A    between atoms: N_10  and  C_11
REMARK    4  A    between atoms: C_11  and  C_12
REMARK    5  A    between atoms: C_14  and  C_15
REMARK    6  A    between atoms: C_15  and  C_16
REMARK    7  A    between atoms: C_19  and  C_20
REMARK    8  A    between atoms: C_20  and  O_21
REMARK    9  A    between atoms: O_21  and  C_22
REMARK                            x       y       z     vdW  Elec       q    Type
REMARK                         _______ _______ _______ _____ _____    ______ ____
ROOT
ATOM     12  C   UNL     1      -4.930   2.512  25.368  0.00  0.00    +0.167 C 
ATOM     13  O   UNL     1      -4.280   2.870  25.008  0.00  0.00    -0.354 OA
ATOM     14  C   UNL     1      -4.174   3.687  25.065  0.00  0.00    +0.121 C 
ATOM     29  C   UNL     1      -4.720   4.145  25.482  0.00  0.00    +0.033 C 
ATOM     30  C   UNL     1      -5.370   3.787  25.843  0.00  0.00    +0.038 C 
ATOM     31  C   UNL     1      -5.476   2.970  25.786  0.00  0.00    +0.181 C 
ATOM     32  O   UNL     1      -6.125   2.612  26.145  0.00  0.00    -0.220 OA
ENDROOT
BRANCH  12  11
ATOM     11  C   UNL     1      -5.036   1.696  25.311  0.00  0.00    +0.149 C 
BRANCH  11  10
ATOM      7  N   UNL     1      -4.135   0.056  24.186  0.00  0.00    -0.161 NA
ATOM      8  C   UNL     1      -4.494   0.477  24.798  0.00  0.00    +0.344 C 
ATOM      9  O   UNL     1      -4.671   0.099  25.510  0.00  0.00    -0.249 OA
ATOM     10  N   UNL     1      -4.677   1.275  24.698  0.00  0.00    -0.184 NA
BRANCH   7   6
ATOM      3  C   UNL     1      -3.587  -2.339  24.485  0.00  0.00    +0.139 A 
ATOM      4  C   UNL     1      -4.182  -2.113  23.959  0.00  0.00    +0.038 A 
ATOM      5  C   UNL     1      -4.365  -1.315  23.860  0.00  0.00    +0.020 A 
ATOM      6  C   UNL     1      -3.953  -0.742  24.286  0.00  0.00    +0.075 A 
ATOM     33  C   UNL     1      -3.358  -0.966  24.811  0.00  0.00    +0.020 A 
ATOM     34  C   UNL     1      -3.176  -1.764  24.910  0.00  0.00    +0.038 A 
BRANCH   3   2
ATOM      1  C   UNL     1      -2.635  -3.403  24.457  0.00  0.00    +0.252 C 
ATOM      2  O   UNL     1      -3.405  -3.137  24.584  0.00  0.00    -0.471 OA
ENDBRANCH   3   2
ENDBRANCH   7   6
ENDBRANCH  11  10
ENDBRANCH  12  11
BRANCH  14  15
ATOM     15  C   UNL     1      -3.524   4.044  24.705  0.00  0.00    +0.079 C 
BRANCH  15  16
ATOM     16  C   UNL     1      -2.760   3.820  24.919  0.00  0.00    +0.103 A 
ATOM     17  N   UNL     1      -2.377   4.012  25.624  0.00  0.00    -0.082 NA
ATOM     18  O   UNL     1      -1.625   3.676  25.605  0.00  0.00    -0.354 OA
ATOM     19  C   UNL     1      -1.542   3.275  24.889  0.00  0.00    +0.198 A 
ATOM     28  C   UNL     1      -2.243   3.365  24.464  0.00  0.00    +0.057 A 
BRANCH  19  20
ATOM     20  C   UNL     1      -0.874   2.859  24.640  0.00  0.00    +0.272 C 
BRANCH  20  21
ATOM     21  O   UNL     1      -0.752   2.084  24.898  0.00  0.00    -0.467 OA
BRANCH  21  22
ATOM     22  C   UNL     1      -0.269   1.577  24.462  0.00  0.00    +0.139 A 
ATOM     23  C   UNL     1       0.505   1.800  24.279  0.00  0.00    +0.037 A 
ATOM     24  C   UNL     1       0.988   1.293  23.844  0.00  0.00    +0.003 A 
ATOM     25  C   UNL     1       0.698   0.562  23.591  0.00  0.00    +0.000 A 
ATOM     26  C   UNL     1      -0.074   0.340  23.775  0.00  0.00    +0.003 A 
ATOM     27  C   UNL     1      -0.558   0.847  24.210  0.00  0.00    +0.037 A 
ENDBRANCH  21  22
ENDBRANCH  20  21
ENDBRANCH  19  20
ENDBRANCH  15  16
ENDBRANCH  14  15
TORSDOF 9
ENDMDL
MODEL 6
REMARK VINA RESULT:     -10.4      1.473      4.326
REMARK  Name = 
REMARK  9 active torsions:
REMARK  status: ('A' for Active; 'I' for Inactive)
REMARK    1  A    between atoms: O_2  and  C_3
REMARK    2  A    between atoms: C_6  and  N_7
REMARK    3  A    between atoms: N_10  and  C_11
REMARK    4  A    between atoms: C_11  and  C_12
REMARK    5  A    between atoms: C_14  and  C_15
REMARK    6  A    between atoms: C_15  and  C_16
REMARK    7  A    between atoms: C_19  and  C_20
REMARK    8  A    between atoms: C_20  and  O_21
REMARK    9  A    between atoms: O_21  and  C_22
REMARK                            x       y       z     vdW  Elec       q    Type
REMARK                         _______ _______ _______ _____ _____    ______ ____
ROOT
ATOM     12  C   UNL     1      -1.504   4.014  25.338  0.00  0.00    +0.167 C 
ATOM     13  O   UNL     1      -1.203   3.260  25.487  0.00  0.00    -0.354 OA
ATOM     14  C   UNL     1      -0.412   3.091  25.316  0.00  0.00    +0.121 C 
ATOM     29  C   UNL     1       0.075   3.677  24.998  0.00  0.00    +0.033 C 
ATOM     30  C   UNL     1      -0.227   4.430  24.849  0.00  0.00    +0.038 C 
ATOM     31  C   UNL     1      -1.017   4.599  25.020  0.00  0.00    +0.181 C 
ATOM     32  O   UNL     1      -1.319   5.352  24.871  0.00  0.00    -0.220 OA
ENDROOT
BRANCH  12  11
ATOM     11  C   UNL     1      -2.294   4.182  25.508  0.00  0.00    +0.149 C 
BRANCH  11  10
ATOM      7  N   UNL     1      -4.147   3.246  24.836  0.00  0.00    -0.161 NA
ATOM      8  C   UNL     1      -3.550   3.524  25.332  0.00  0.00    +0.344 C 
ATOM      9  O   UNL     1      -3.611   3.423  26.149  0.00  0.00    -0.249 OA
ATOM     10  N   UNL     1      -2.892   3.903  25.012  0.00  0.00    -0.184 NA
BRANCH   7   6
ATOM      3  C   UNL     1      -6.123   2.107  25.797  0.00  0.00    +0.139 A 
ATOM      4  C   UNL     1      -5.550   1.671  25.395  0.00  0.00    +0.038 A 
ATOM      5  C   UNL     1      -4.892   2.050  25.075  0.00  0.00    +0.020 A 
ATOM      6  C   UNL     1      -4.806   2.866  25.157  0.00  0.00    +0.075 A 
ATOM     33  C   UNL     1      -5.378   3.303  25.558  0.00  0.00    +0.020 A 
ATOM     34  C   UNL     1      -6.037   2.923  25.879  0.00  0.00    +0.038 A 
BRANCH   3   2
ATOM      1  C   UNL     1      -6.791   1.519  26.916  0.00  0.00    +0.252 C 
ATOM      2  O   UNL     1      -6.782   1.727  26.118  0.00  0.00    -0.471 OA
ENDBRANCH   3   2
ENDBRANCH   7   6
ENDBRANCH  11  10
ENDBRANCH  12  11
BRANCH  14  15
ATOM     15  C   UNL     1      -0.110   2.339  25.465  0.00  0.00    +0.079 C 
BRANCH  15  16
ATOM     16  C   UNL     1      -0.404   1.688  25.052  0.00  0.00    +0.103 A 
ATOM     17  N   UNL     1      -0.273   1.519  24.255  0.00  0.00    -0.082 NA
ATOM     18  O   UNL     1      -0.669   0.819  24.074  0.00  0.00    -0.354 OA
ATOM     19  C   UNL     1      -1.045   0.554  24.759  0.00  0.00    +0.198 A 
ATOM     28  C   UNL     1      -0.882   1.091  25.363  0.00  0.00    +0.057 A 
BRANCH  19  20
ATOM     20  C   UNL     1      -1.505  -0.128  24.827  0.00  0.00    +0.272 C 
BRANCH  20  21
ATOM     21  O   UNL     1      -2.327  -0.079  24.774  0.00  0.00    -0.467 OA
BRANCH  21  22
ATOM     22  C   UNL     1      -2.784  -0.764  24.825  0.00  0.00    +0.139 A 
ATOM     23  C   UNL     1      -2.872  -1.148  25.550  0.00  0.00    +0.037 A 
ATOM     24  C   UNL     1      -3.330  -1.832  25.601  0.00  0.00    +0.003 A 
ATOM     25  C   UNL     1      -3.699  -2.133  24.927  0.00  0.00    +0.000 A 
ATOM     26  C   UNL     1      -3.611  -1.748  24.202  0.00  0.00    +0.003 A 
ATOM     27  C   UNL     1      -3.153  -1.064  24.152  0.00  0.00    +0.037 A 
ENDBRANCH  21  22
ENDBRANCH  20  21
ENDBRANCH  19  20
ENDBRANCH  15  16
ENDBRANCH  14  15
TORSDOF 9
ENDMDL
MODEL 7
REMARK VINA RESULT:     -10.3      1.759      4.714
REMARK  Name = 
REMARK  9 active torsions:
REMARK  status: ('A' for Active; 'I' for Inactive)
REMARK    1  A    between atoms: O_2  and  C_3
REMARK    2  A    between atoms: C_6  and  N_7
REMARK    3  A    between atoms: N_10  and  C_11
REMARK    4  A    between atoms: C_11  and  C_12
REMARK    5  A    between atoms: C_14  and  C_15
REMARK    6  A    between atoms: C_15  and  C_16
REMARK    7  A    between atoms: C_19  and  C_20
REMARK    8  A    between atoms: C_20  and  O_21
REMARK    9  A    between atoms: O_21  and  C_22
REMARK                            x       y       z     vdW  Elec       q    Type
REMARK                         _______ _______ _______ _____ _____    ______ ____
ROOT
ATOM     12  C   UNL     1      -2.278  -0.875  24.662  0.00  0.00    +0.167 C 
ATOM     13  O   UNL     1      -2.756  -0.263  24.383  0.00  0.00    -0.354 OA
ATOM     14  C   UNL     1      -3.570  -0.280  24.521  0.00  0.00    +0.121 C 
ATOM     29  C   UNL     1      -3.904  -0.908  24.939  0.00  0.00    +0.033 C 
ATOM     30  C   UNL     1      -3.426  -1.520  25.218  0.00  0.00    +0.038 C 
ATOM     31  C   UNL     1      -2.612  -1.503  25.079  0.00  0.00    +0.181 C 
ATOM     32  O   UNL     1      -2.134  -2.114  25.358  0.00  0.00    -0.220 OA
ENDROOT
BRANCH  12  11
ATOM     11  C   UNL     1      -1.465  -0.858  24.523  0.00  0.00    +0.149 C 
BRANCH  11  10
ATOM      7  N   UNL     1      -0.003   0.386  23.484  0.00  0.00    -0.161 NA
ATOM      8  C   UNL     1      -0.341  -0.254  23.879  0.00  0.00    +0.344 C 
ATOM      9  O   UNL     1       0.107  -0.932  24.027  0.00  0.00    -0.249 OA
ATOM     10  N   UNL     1      -1.126  -0.218  24.127  0.00  0.00    -0.184 NA
BRANCH   7   6
ATOM      3  C   UNL     1       2.355   0.276  22.740  0.00  0.00    +0.139 A 
ATOM      4  C   UNL     1       2.138   0.785  23.352  0.00  0.00    +0.038 A 
ATOM      5  C   UNL     1       1.353   0.821  23.600  0.00  0.00    +0.020 A 
ATOM      6  C   UNL     1       0.783   0.349  23.236  0.00  0.00    +0.075 A 
ATOM     33  C   UNL     1       0.999  -0.160  22.624  0.00  0.00    +0.020 A 
ATOM     34  C   UNL     1       1.785  -0.196  22.376  0.00  0.00    +0.038 A 
BRANCH   3   2
ATOM      1  C   UNL     1       3.689   0.787  22.774  0.00  0.00    +0.252 C 
ATOM      2  O   UNL     1       3.141   0.239  22.491  0.00  0.00    -0.471 OA
ENDBRANCH   3   2
ENDBRANCH   7   6
ENDBRANCH  11  10
ENDBRANCH  12  11
BRANCH  14  15
ATOM     15  C   UNL     1      -4.048   0.331  24.243  0.00  0.00    +0.079 C 
BRANCH  15  16
ATOM     16  C   UNL     1      -4.022   1.073  24.604  0.00  0.00    +0.103 A 
ATOM     17  N   UNL     1      -4.535   1.345  25.189  0.00  0.00    -0.082 NA
ATOM     18  O   UNL     1      -4.309   2.112  25.390  0.00  0.00    -0.354 OA
ATOM     19  C   UNL     1      -3.655   2.314  24.929  0.00  0.00    +0.198 A 
ATOM     28  C   UNL     1      -3.478   1.672  24.443  0.00  0.00    +0.057 A 
BRANCH  19  20
ATOM     20  C   UNL     1      -3.250   3.033  24.950  0.00  0.00    +0.272 C 
BRANCH  20  21
ATOM     21  O   UNL     1      -2.557   3.103  25.393  0.00  0.00    -0.467 OA
BRANCH  21  22
ATOM     22  C   UNL     1      -2.050   3.741  25.266  0.00  0.00    +0.139 A 
ATOM     23  C   UNL     1      -2.320   4.512  25.387  0.00  0.00    +0.037 A 
ATOM     24  C   UNL     1      -1.813   5.150  25.260  0.00  0.00    +0.003 A 
ATOM     25  C   UNL     1      -1.037   5.018  25.012  0.00  0.00    +0.000 A 
ATOM     26  C   UNL     1      -0.768   4.247  24.891  0.00  0.00    +0.003 A 
ATOM     27  C   UNL     1      -1.275   3.609  25.018  0.00  0.00    +0.037 A 
ENDBRANCH  21  22
ENDBRANCH  20  21
ENDBRANCH  19  20
ENDBRANCH  15  16
ENDBRANCH  14  15
TORSDOF 9
ENDMDL
MODEL 8
REMARK VINA RESULT:      -9.0     15.650     18.330
REMARK  Name = 
REMARK  9 active torsions:
REMARK  status: ('A' for Active; 'I' for Inactive)
REMARK    1  A    between atoms: O_2  and  C_3
REMARK    2  A    between atoms: C_6  and  N_7
REMARK    3  A    between atoms: N_10  and  C_11
REMARK    4  A    between atoms: C_11  and  C_12
REMARK    5  A    between atoms: C_14  and  C_15
REMARK    6  A    between atoms: C_15  and  C_16
REMARK    7  A    between atoms: C_19  and  C_20
REMARK    8  A    between atoms: C_20  and  O_21
REMARK    9  A    between atoms: O_21  and  C_22
REMARK                            x       y       z     vdW  Elec       q    Type
REMARK                         _______ _______ _______ _____ _____    ______ ____
ROOT
ATOM     12  C   UNL     1      11.298   8.786  17.235  0.00  0.00    +0.167 C 
ATOM     13  O   UNL     1      12.118   8.873  17.223  0.00  0.00    -0.354 OA
ATOM     14  C   UNL     1      12.510   8.986  16.505  0.00  0.00    +0.121 C 
ATOM     29  C   UNL     1      12.081   9.011  15.800  0.00  0.00    +0.033 C 
ATOM     30  C   UNL     1      11.261   8.924  15.812  0.00  0.00    +0.038 C 
ATOM     31  C   UNL     1      10.869   8.811  16.531  0.00  0.00    +0.181 C 
ATOM     32  O   UNL     1      10.049   8.724  16.543  0.00  0.00    -0.220 OA
ENDROOT
BRANCH  12  11
ATOM     11  C   UNL     1      10.906   8.673  17.952  0.00  0.00    +0.149 C 
BRANCH  11  10
ATOM      7  N   UNL     1      11.401   7.772  19.877  0.00  0.00    -0.161 NA
ATOM      8  C   UNL     1      11.094   8.293  19.316  0.00  0.00    +0.344 C 
ATOM      9  O   UNL     1      10.665   8.955  19.560  0.00  0.00    -0.249 OA
ATOM     10  N   UNL     1      11.214   8.152  18.513  0.00  0.00    -0.184 NA
BRANCH   7   6
ATOM      3  C   UNL     1      11.040   8.195  22.289  0.00  0.00    +0.139 A 
ATOM      4  C   UNL     1      10.531   7.693  21.877  0.00  0.00    +0.038 A 
ATOM      5  C   UNL     1      10.651   7.552  21.073  0.00  0.00    +0.020 A 
ATOM      6  C   UNL     1      11.280   7.913  20.681  0.00  0.00    +0.075 A 
ATOM     33  C   UNL     1      11.789   8.414  21.092  0.00  0.00    +0.020 A 
ATOM     34  C   UNL     1      11.669   8.555  21.896  0.00  0.00    +0.038 A 
BRANCH   3   2
ATOM      1  C   UNL     1      10.604   9.055  23.344  0.00  0.00    +0.252 C 
ATOM      2  O   UNL     1      10.920   8.336  23.093  0.00  0.00    -0.471 OA
ENDBRANCH   3   2
ENDBRANCH   7   6
ENDBRANCH  11  10
ENDBRANCH  12  11
BRANCH  14  15
ATOM     15  C   UNL     1      13.330   9.073  16.492  0.00  0.00    +0.079 C 
BRANCH  15  16
ATOM     16  C   UNL     1      13.813   8.483  16.807  0.00  0.00    +0.103 A 
ATOM     17  N   UNL     1      13.992   7.761  16.450  0.00  0.00    -0.082 NA
ATOM     18  O   UNL     1      14.490   7.343  16.956  0.00  0.00    -0.354 OA
ATOM     19  C   UNL     1      14.619   7.806  17.627  0.00  0.00    +0.198 A 
ATOM     28  C   UNL     1      14.201   8.510  17.535  0.00  0.00    +0.057 A 
BRANCH  19  20
ATOM     20  C   UNL     1      15.086   7.600  18.276  0.00  0.00    +0.272 C 
BRANCH  20  21
ATOM     21  O   UNL     1      14.873   6.959  18.750  0.00  0.00    -0.467 OA
BRANCH  21  22
ATOM     22  C   UNL     1      15.313   6.782  19.425  0.00  0.00    +0.139 A 
ATOM     23  C   UNL     1      14.958   6.814  20.169  0.00  0.00    +0.037 A 
ATOM     24  C   UNL     1      15.398   6.637  20.844  0.00  0.00    +0.003 A 
ATOM     25  C   UNL     1      16.193   6.428  20.775  0.00  0.00    +0.000 A 
ATOM     26  C   UNL     1      16.548   6.396  20.031  0.00  0.00    +0.003 A 
ATOM     27  C   UNL     1      16.108   6.573  19.356  0.00  0.00    +0.037 A 
ENDBRANCH  21  22
ENDBRANCH  20  21
ENDBRANCH  19  20
ENDBRANCH  15  16
ENDBRANCH  14  15
TORSDOF 9
ENDMDL
