MODEL 1
REMARK VINA RESULT:      -8.9      0.000      0.000
REMARK  Name = 
REMARK  4 active torsions:
REMARK  status: ('A' for Active; 'I' for Inactive)
REMARK    1  A    between atoms: C_2  and  C_4
REMARK    2  A    between atoms: C_4  and  N_5
REMARK    3  A    between atoms: N_5  and  C_6
REMARK    4  A    between atoms: C_12  and  C_13
REMARK                            x       y       z     vdW  Elec       q    Type
REMARK                         _______ _______ _______ _____ _____    ______ ____
ROOT
ATOM      6  C   UNL     1      -4.115   1.246  24.464  0.00  0.00    +0.110 C 
ATOM      7  C   UNL     1      -4.598   1.895  24.618  0.00  0.00    +0.198 C 
ATOM      8  O   UNL     1      -4.458   2.672  24.378  0.00  0.00    -0.219 OA
ATOM      9  C   UNL     1      -5.248   1.632  25.053  0.00  0.00    +0.184 C 
ATOM     10  O   UNL     1      -5.871   2.100  25.325  0.00  0.00    -0.220 OA
ATOM     11  C   UNL     1      -5.165   0.819  25.169  0.00  0.00    +0.041 C 
ATOM     12  C   UNL     1      -4.464   0.580  24.805  0.00  0.00    +0.045 C 
ENDROOT
BRANCH  12  13
ATOM     13  C   UNL     1      -4.167  -0.189  24.785  0.00  0.00    -0.002 A 
ATOM     14  C   UNL     1      -4.365  -0.694  24.164  0.00  0.00    -0.001 A 
ATOM     15  C   UNL     1      -4.068  -1.462  24.145  0.00  0.00    +0.020 A 
ATOM     16  C   UNL     1      -3.571  -1.727  24.748  0.00  0.00    +0.099 A 
ATOM     17  N   UNL     1      -3.372  -1.223  25.370  0.00  0.00    -0.243 NA
ATOM     18  C   UNL     1      -3.669  -0.453  25.389  0.00  0.00    +0.095 A 
ENDBRANCH  12  13
BRANCH   6   5
ATOM      5  N   UNL     1      -3.404   1.258  24.044  0.00  0.00    -0.216 NA
BRANCH   5   4
ATOM      4  C   UNL     1      -3.185   1.934  23.625  0.00  0.00    +0.089 C 
BRANCH   4   2
ATOM      1  C   UNL     1      -2.541   1.894  22.350  0.00  0.00    +0.001 C 
ATOM      2  C   UNL     1      -2.495   1.933  23.173  0.00  0.00    +0.017 C 
ATOM      3  C   UNL     1      -1.759   1.971  23.542  0.00  0.00    +0.001 C 
ENDBRANCH   4   2
ENDBRANCH   5   4
ENDBRANCH   6   5
TORSDOF 4
ENDMDL
MODEL 2
REMARK VINA RESULT:      -8.8      1.030      2.395
REMARK  Name = 
REMARK  4 active torsions:
REMARK  status: ('A' for Active; 'I' for Inactive)
REMARK    1  A    between atoms: C_2  and  C_4
REMARK    2  A    between atoms: C_4  and  N_5
REMARK    3  A    between atoms: N_5  and  C_6
REMARK    4  A    between atoms: C_12  and  C_13
REMARK                            x       y       z     vdW  Elec       q    Type
REMARK                         _______ _______ _______ _____ _____    ______ ____
ROOT
ATOM      6  C   UNL     1      -3.797   1.419  24.188  0.00  0.00    +0.110 C 
ATOM      7  C   UNL     1      -3.499   2.010  23.697  0.00  0.00    +0.198 C 
ATOM      8  O   UNL     1      -3.764   2.791  23.661  0.00  0.00    -0.219 OA
ATOM      9  C   UNL     1      -2.887   1.685  23.248  0.00  0.00    +0.184 C 
ATOM     10  O   UNL     1      -2.434   2.083  22.685  0.00  0.00    -0.220 OA
ATOM     11  C   UNL     1      -2.808   0.892  23.462  0.00  0.00    +0.041 C 
ATOM     12  C   UNL     1      -3.371   0.727  24.043  0.00  0.00    +0.045 C 
ENDROOT
BRANCH  12  13
ATOM     13  C   UNL     1      -3.486  -0.001  24.413  0.00  0.00    -0.002 A 
ATOM     14  C   UNL     1      -3.948  -0.580  24.052  0.00  0.00    -0.001 A 
ATOM     15  C   UNL     1      -4.062  -1.308  24.422  0.00  0.00    +0.020 A 
ATOM     16  C   UNL     1      -3.714  -1.457  25.155  0.00  0.00    +0.099 A 
ATOM     17  N   UNL     1      -3.251  -0.878  25.517  0.00  0.00    -0.243 NA
ATOM     18  C   UNL     1      -3.136  -0.150  25.147  0.00  0.00    +0.095 A 
ENDBRANCH  12  13
BRANCH   6   5
ATOM      5  N   UNL     1      -4.414   1.503  24.730  0.00  0.00    -0.216 NA
BRANCH   5   4
ATOM      4  C   UNL     1      -4.940   2.135  24.661  0.00  0.00    +0.089 C 
BRANCH   4   2
ATOM      1  C   UNL     1      -6.293   1.854  25.022  0.00  0.00    +0.001 C 
ATOM      2  C   UNL     1      -5.568   2.209  25.190  0.00  0.00    +0.017 C 
ATOM      3  C   UNL     1      -5.471   2.637  25.888  0.00  0.00    +0.001 C 
ENDBRANCH   4   2
ENDBRANCH   5   4
ENDBRANCH   6   5
TORSDOF 4
ENDMDL
MODEL 3
REMARK VINA RESULT:      -8.8      0.844      2.852
REMARK  Name = 
REMARK  4 active torsions:
REMARK  status: ('A' for Active; 'I' for Inactive)
REMARK    1  A    between atoms: C_2  and  C_4
REMARK    2  A    between atoms: C_4  and  N_5
REMARK    3  A    between atoms: N_5  and  C_6
REMARK    4  A    between atoms: C_12  and  C_13
REMARK                            x       y       z     vdW  Elec       q    Type
REMARK                         _______ _______ _______ _____ _____    ______ ____
ROOT
ATOM      6  C   UNL     1      -4.297   1.417  24.651  0.00  0.00    +0.110 C 
ATOM      7  C   UNL     1      -4.991   1.661  25.022  0.00  0.00    +0.198 C 
ATOM      8  O   UNL     1      -5.567   1.169  25.348  0.00  0.00    -0.219 OA
ATOM      9  C   UNL     1      -5.010   2.486  25.009  0.00  0.00    +0.184 C 
ATOM     10  O   UNL     1      -5.608   2.963  25.321  0.00  0.00    -0.220 OA
ATOM     11  C   UNL     1      -4.327   2.751  24.631  0.00  0.00    +0.041 C 
ATOM     12  C   UNL     1      -3.886   2.090  24.409  0.00  0.00    +0.045 C 
ENDROOT
BRANCH  12  13
ATOM     13  C   UNL     1      -3.161   2.102  24.014  0.00  0.00    -0.002 A 
ATOM     14  C   UNL     1      -3.135   2.019  23.195  0.00  0.00    -0.001 A 
ATOM     15  C   UNL     1      -2.411   2.031  22.801  0.00  0.00    +0.020 A 
ATOM     16  C   UNL     1      -1.711   2.125  23.228  0.00  0.00    +0.099 A 
ATOM     17  N   UNL     1      -1.736   2.208  24.048  0.00  0.00    -0.243 NA
ATOM     18  C   UNL     1      -2.461   2.196  24.442  0.00  0.00    +0.095 A 
ENDBRANCH  12  13
BRANCH   6   5
ATOM      5  N   UNL     1      -4.055   0.635  24.540  0.00  0.00    -0.216 NA
BRANCH   5   4
ATOM      4  C   UNL     1      -4.285   0.053  25.077  0.00  0.00    +0.089 C 
BRANCH   4   2
ATOM      1  C   UNL     1      -4.157  -1.164  24.339  0.00  0.00    +0.001 C 
ATOM      2  C   UNL     1      -3.986  -0.713  25.007  0.00  0.00    +0.017 C 
ATOM      3  C   UNL     1      -3.515  -1.028  25.607  0.00  0.00    +0.001 C 
ENDBRANCH   4   2
ENDBRANCH   5   4
ENDBRANCH   6   5
TORSDOF 4
ENDMDL
MODEL 4
REMARK VINA RESULT:      -8.5      1.464      3.243
REMARK  Name = 
REMARK  4 active torsions:
REMARK  status: ('A' for Active; 'I' for Inactive)
REMARK    1  A    between atoms: C_2  and  C_4
REMARK    2  A    between atoms: C_4  and  N_5
REMARK    3  A    between atoms: N_5  and  C_6
REMARK    4  A    between atoms: C_12  and  C_13
REMARK                            x       y       z     vdW  Elec       q    Type
REMARK                         _______ _______ _______ _____ _____    ______ ____
ROOT
ATOM      6  C   UNL     1      -3.518   1.215  24.247  0.00  0.00    +0.110 C 
ATOM      7  C   UNL     1      -2.919   1.267  23.683  0.00  0.00    +0.198 C 
ATOM      8  O   UNL     1      -2.384   0.670  23.486  0.00  0.00    -0.219 OA
ATOM      9  C   UNL     1      -2.948   2.021  23.349  0.00  0.00    +0.184 C 
ATOM     10  O   UNL     1      -2.448   2.311  22.760  0.00  0.00    -0.220 OA
ATOM     11  C   UNL     1      -3.565   2.435  23.708  0.00  0.00    +0.041 C 
ATOM     12  C   UNL     1      -3.918   1.936  24.263  0.00  0.00    +0.045 C 
ENDROOT
BRANCH  12  13
ATOM     13  C   UNL     1      -4.557   2.127  24.748  0.00  0.00    -0.002 A 
ATOM     14  C   UNL     1      -5.322   1.910  24.529  0.00  0.00    -0.001 A 
ATOM     15  C   UNL     1      -5.960   2.101  25.014  0.00  0.00    +0.020 A 
ATOM     16  C   UNL     1      -5.835   2.510  25.720  0.00  0.00    +0.099 A 
ATOM     17  N   UNL     1      -5.070   2.727  25.939  0.00  0.00    -0.243 NA
ATOM     18  C   UNL     1      -4.431   2.536  25.454  0.00  0.00    +0.095 A 
ENDBRANCH  12  13
BRANCH   6   5
ATOM      5  N   UNL     1      -3.688   0.556  24.715  0.00  0.00    -0.216 NA
BRANCH   5   4
ATOM      4  C   UNL     1      -3.366  -0.179  24.525  0.00  0.00    +0.089 C 
BRANCH   4   2
ATOM      1  C   UNL     1      -3.400  -0.967  25.716  0.00  0.00    +0.001 C 
ATOM      2  C   UNL     1      -3.613  -0.855  24.928  0.00  0.00    +0.017 C 
ATOM      3  C   UNL     1      -4.075  -1.420  24.542  0.00  0.00    +0.001 C 
ENDBRANCH   4   2
ENDBRANCH   5   4
ENDBRANCH   6   5
TORSDOF 4
ENDMDL
MODEL 5
REMARK VINA RESULT:      -8.5      2.254      3.408
REMARK  Name = 
REMARK  4 active torsions:
REMARK  status: ('A' for Active; 'I' for Inactive)
REMARK    1  A    between atoms: C_2  and  C_4
REMARK    2  A    between atoms: C_4  and  N_5
REMARK    3  A    between atoms: N_5  and  C_6
REMARK    4  A    between atoms: C_12  and  C_13
REMARK                            x       y       z     vdW  Elec       q    Type
REMARK                         _______ _______ _______ _____ _____    ______ ____
ROOT
ATOM      6  C   UNL     1      -3.178  -1.185  24.592  0.00  0.00    +0.110 C 
ATOM      7  C   UNL     1      -3.292  -1.982  24.416  0.00  0.00    +0.198 C 
ATOM      8  O   UNL     1      -2.771  -2.597  24.589  0.00  0.00    -0.219 OA
ATOM      9  C   UNL     1      -4.021  -2.057  24.036  0.00  0.00    +0.184 C 
ATOM     10  O   UNL     1      -4.356  -2.760  23.763  0.00  0.00    -0.220 OA
ATOM     11  C   UNL     1      -4.356  -1.305  23.977  0.00  0.00    +0.041 C 
ATOM     12  C   UNL     1      -3.835  -0.765  24.321  0.00  0.00    +0.045 C 
ENDROOT
BRANCH  12  13
ATOM     13  C   UNL     1      -3.952   0.049  24.382  0.00  0.00    -0.002 A 
ATOM     14  C   UNL     1      -4.380   0.359  25.014  0.00  0.00    -0.001 A 
ATOM     15  C   UNL     1      -4.497   1.173  25.074  0.00  0.00    +0.020 A 
ATOM     16  C   UNL     1      -4.184   1.678  24.502  0.00  0.00    +0.099 A 
ATOM     17  N   UNL     1      -3.755   1.368  23.869  0.00  0.00    -0.243 NA
ATOM     18  C   UNL     1      -3.638   0.554  23.808  0.00  0.00    +0.095 A 
ENDBRANCH  12  13
BRANCH   6   5
ATOM      5  N   UNL     1      -2.520  -0.861  24.973  0.00  0.00    -0.216 NA
BRANCH   5   4
ATOM      4  C   UNL     1      -1.812  -1.283  25.002  0.00  0.00    +0.089 C 
BRANCH   4   2
ATOM      1  C   UNL     1      -0.490  -0.776  24.814  0.00  0.00    +0.001 C 
ATOM      2  C   UNL     1      -1.133  -0.928  25.307  0.00  0.00    +0.017 C 
ATOM      3  C   UNL     1      -1.097  -0.724  26.105  0.00  0.00    +0.001 C 
ENDBRANCH   4   2
ENDBRANCH   5   4
ENDBRANCH   6   5
TORSDOF 4
ENDMDL
MODEL 6
REMARK VINA RESULT:      -8.4      1.909      2.833
REMARK  Name = 
REMARK  4 active torsions:
REMARK  status: ('A' for Active; 'I' for Inactive)
REMARK    1  A    between atoms: C_2  and  C_4
REMARK    2  A    between atoms: C_4  and  N_5
REMARK    3  A    between atoms: N_5  and  C_6
REMARK    4  A    between atoms: C_12  and  C_13
REMARK                            x       y       z     vdW  Elec       q    Type
REMARK                         _______ _______ _______ _____ _____    ______ ____
ROOT
ATOM      6  C   UNL     1      -3.464   3.218  25.094  0.00  0.00    +0.110 C 
ATOM      7  C   UNL     1      -4.043   3.560  25.571  0.00  0.00    +0.198 C 
ATOM      8  O   UNL     1      -3.917   4.124  26.160  0.00  0.00    -0.219 OA
ATOM      9  C   UNL     1      -4.772   3.238  25.356  0.00  0.00    +0.184 C 
ATOM     10  O   UNL     1      -5.503   3.424  25.693  0.00  0.00    -0.220 OA
ATOM     11  C   UNL     1      -4.643   2.698  24.746  0.00  0.00    +0.041 C 
ATOM     12  C   UNL     1      -3.834   2.686  24.584  0.00  0.00    +0.045 C 
ENDROOT
BRANCH  12  13
ATOM     13  C   UNL     1      -3.462   2.222  24.012  0.00  0.00    -0.002 A 
ATOM     14  C   UNL     1      -3.356   2.513  23.248  0.00  0.00    -0.001 A 
ATOM     15  C   UNL     1      -2.985   2.049  22.677  0.00  0.00    +0.020 A 
ATOM     16  C   UNL     1      -2.718   1.292  22.870  0.00  0.00    +0.099 A 
ATOM     17  N   UNL     1      -2.824   1.000  23.634  0.00  0.00    -0.243 NA
ATOM     18  C   UNL     1      -3.196   1.464  24.206  0.00  0.00    +0.095 A 
ENDBRANCH  12  13
BRANCH   6   5
ATOM      5  N   UNL     1      -2.655   3.381  25.122  0.00  0.00    -0.216 NA
BRANCH   5   4
ATOM      4  C   UNL     1      -2.387   4.086  25.455  0.00  0.00    +0.089 C 
BRANCH   4   2
ATOM      1  C   UNL     1      -1.006   3.776  25.654  0.00  0.00    +0.001 C 
ATOM      2  C   UNL     1      -1.592   4.295  25.393  0.00  0.00    +0.017 C 
ATOM      3  C   UNL     1      -1.381   5.024  25.069  0.00  0.00    +0.001 C 
ENDBRANCH   4   2
ENDBRANCH   5   4
ENDBRANCH   6   5
TORSDOF 4
ENDMDL
