MODEL 1
REMARK VINA RESULT:      -9.4      0.000      0.000
REMARK  Name = 
REMARK  4 active torsions:
REMARK  status: ('A' for Active; 'I' for Inactive)
REMARK    1  A    between atoms: N_3  and  C_4
REMARK    2  A    between atoms: C_8  and  N_12
REMARK    3  A    between atoms: C_15  and  C_19
REMARK    4  A    between atoms: N_24  and  C_25
REMARK                            x       y       z     vdW  Elec       q    Type
REMARK                         _______ _______ _______ _____ _____    ______ ____
ROOT
ATOM      4  C   UNL     1       0.450   0.520  23.462  0.00  0.00    +0.156 C 
ATOM      5  C   UNL     1       0.405   1.344  23.471  0.00  0.00    +0.166 C 
ATOM      6  O   UNL     1      -0.280   1.557  23.877  0.00  0.00    -0.350 OA
ATOM      7  C   UNL     1      -0.658   0.866  24.120  0.00  0.00    +0.166 C 
ATOM      8  C   UNL     1      -1.316   0.570  24.521  0.00  0.00    +0.154 C 
ATOM      9  C   UNL     1      -1.271  -0.253  24.512  0.00  0.00    +0.166 C 
ATOM     10  O   UNL     1      -0.586  -0.467  24.105  0.00  0.00    -0.350 OA
ATOM     11  C   UNL     1      -0.207   0.225  23.863  0.00  0.00    +0.166 C 
ENDROOT
BRANCH   8  12
ATOM     12  N   UNL     1      -1.913   1.020  24.870  0.00  0.00    -0.200 NA
ATOM     13  C   UNL     1      -2.698   0.914  24.638  0.00  0.00    +0.237 A 
ATOM     14  N   UNL     1      -3.296   1.363  24.986  0.00  0.00    -0.212 NA
ATOM     15  C   UNL     1      -4.080   1.258  24.754  0.00  0.00    +0.092 A 
ATOM     16  C   UNL     1      -4.267   0.703  24.173  0.00  0.00    +0.040 A 
ATOM     17  C   UNL     1      -3.669   0.253  23.824  0.00  0.00    +0.103 A 
ATOM     18  N   UNL     1      -2.885   0.359  24.057  0.00  0.00    -0.211 NA
BRANCH  15  19
ATOM     19  C   UNL     1      -4.678   1.707  25.102  0.00  0.00    +0.047 A 
ATOM     20  C   UNL     1      -5.363   1.412  25.455  0.00  0.00    +0.009 A 
ATOM     21  C   UNL     1      -5.804   2.052  25.730  0.00  0.00    +0.008 A 
ATOM     22  C   UNL     1      -5.392   2.742  25.548  0.00  0.00    +0.035 A 
ATOM     23  S   UNL     1      -4.696   2.529  25.160  0.00  0.00    -0.085 S 
ENDBRANCH  15  19
ENDBRANCH   8  12
BRANCH   4   3
ATOM      1  O   UNL     1       2.023   1.006  23.578  0.00  0.00    -0.249 OA
ATOM      2  C   UNL     1       1.834   0.314  23.171  0.00  0.00    +0.339 C 
ATOM      3  N   UNL     1       1.048   0.071  23.113  0.00  0.00    -0.184 NA
ATOM     24  N   UNL     1       2.432  -0.135  22.822  0.00  0.00    -0.189 NA
BRANCH  24  25
ATOM     25  C   UNL     1       3.218   0.107  22.881  0.00  0.00    +0.097 C 
ATOM     26  C   UNL     1       3.477   0.773  22.468  0.00  0.00    +0.022 C 
ATOM     27  C   UNL     1       4.263   1.015  22.526  0.00  0.00    +0.002 C 
ATOM     28  C   UNL     1       4.791   0.592  22.997  0.00  0.00    +0.000 C 
ATOM     29  C   UNL     1       4.533  -0.074  23.411  0.00  0.00    +0.002 C 
ATOM     30  C   UNL     1       3.746  -0.316  23.352  0.00  0.00    +0.022 C 
ENDBRANCH  24  25
ENDBRANCH   4   3
TORSDOF 4
ENDMDL
MODEL 2
REMARK VINA RESULT:      -9.3      1.961      6.788
REMARK  Name = 
REMARK  4 active torsions:
REMARK  status: ('A' for Active; 'I' for Inactive)
REMARK    1  A    between atoms: N_3  and  C_4
REMARK    2  A    between atoms: C_8  and  N_12
REMARK    3  A    between atoms: C_15  and  C_19
REMARK    4  A    between atoms: N_24  and  C_25
REMARK                            x       y       z     vdW  Elec       q    Type
REMARK                         _______ _______ _______ _____ _____    ______ ____
ROOT
ATOM      4  C   UNL     1      -2.060   1.571  23.788  0.00  0.00    +0.156 C 
ATOM      5  C   UNL     1      -1.683   2.305  23.802  0.00  0.00    +0.166 C 
ATOM      6  O   UNL     1      -0.870   2.172  23.842  0.00  0.00    -0.350 OA
ATOM      7  C   UNL     1      -0.744   1.358  23.852  0.00  0.00    +0.166 C 
ATOM      8  C   UNL     1      -0.164   0.771  23.883  0.00  0.00    +0.154 C 
ATOM      9  C   UNL     1      -0.541   0.038  23.868  0.00  0.00    +0.166 C 
ATOM     10  O   UNL     1      -1.354   0.171  23.828  0.00  0.00    -0.350 OA
ATOM     11  C   UNL     1      -1.480   0.986  23.818  0.00  0.00    +0.166 C 
ENDROOT
BRANCH   8  12
ATOM     12  N   UNL     1       0.650   0.897  23.921  0.00  0.00    -0.200 NA
ATOM     13  C   UNL     1       1.150   0.537  23.372  0.00  0.00    +0.237 A 
ATOM     14  N   UNL     1       1.964   0.663  23.410  0.00  0.00    -0.212 NA
ATOM     15  C   UNL     1       2.464   0.303  22.860  0.00  0.00    +0.092 A 
ATOM     16  C   UNL     1       2.149  -0.182  22.273  0.00  0.00    +0.040 A 
ATOM     17  C   UNL     1       1.334  -0.308  22.234  0.00  0.00    +0.103 A 
ATOM     18  N   UNL     1       0.835   0.052  22.784  0.00  0.00    -0.211 NA
BRANCH  15  19
ATOM     19  C   UNL     1       3.278   0.429  22.898  0.00  0.00    +0.047 A 
ATOM     20  C   UNL     1       3.676   1.110  22.655  0.00  0.00    +0.009 A 
ATOM     21  C   UNL     1       4.481   0.997  22.792  0.00  0.00    +0.008 A 
ATOM     22  C   UNL     1       4.581   0.248  23.121  0.00  0.00    +0.035 A 
ATOM     23  S   UNL     1       3.837  -0.103  23.187  0.00  0.00    -0.085 S 
ENDBRANCH  15  19
ENDBRANCH   8  12
BRANCH   4   3
ATOM      1  O   UNL     1      -3.062   2.327  24.858  0.00  0.00    -0.249 OA
ATOM      2  C   UNL     1      -3.376   1.823  24.285  0.00  0.00    +0.339 C 
ATOM      3  N   UNL     1      -2.875   1.446  23.749  0.00  0.00    -0.184 NA
ATOM     24  N   UNL     1      -4.190   1.698  24.247  0.00  0.00    -0.189 NA
BRANCH  24  25
ATOM     25  C   UNL     1      -4.692   2.075  24.782  0.00  0.00    +0.097 C 
ATOM     26  C   UNL     1      -4.770   2.896  24.766  0.00  0.00    +0.022 C 
ATOM     27  C   UNL     1      -5.271   3.274  25.301  0.00  0.00    +0.002 C 
ATOM     28  C   UNL     1      -5.696   2.830  25.852  0.00  0.00    +0.000 C 
ATOM     29  C   UNL     1      -5.618   2.008  25.868  0.00  0.00    +0.002 C 
ATOM     30  C   UNL     1      -5.116   1.631  25.332  0.00  0.00    +0.022 C 
ENDBRANCH  24  25
ENDBRANCH   4   3
TORSDOF 4
ENDMDL
MODEL 3
REMARK VINA RESULT:      -8.3      2.021      2.627
REMARK  Name = 
REMARK  4 active torsions:
REMARK  status: ('A' for Active; 'I' for Inactive)
REMARK    1  A    between atoms: N_3  and  C_4
REMARK    2  A    between atoms: C_8  and  N_12
REMARK    3  A    between atoms: C_15  and  C_19
REMARK    4  A    between atoms: N_24  and  C_25
REMARK                            x       y       z     vdW  Elec       q    Type
REMARK                         _______ _______ _______ _____ _____    ______ ____
ROOT
ATOM      4  C   UNL     1       1.969   0.542  22.889  0.00  0.00    +0.156 C 
ATOM      5  C   UNL     1       1.779  -0.133  22.455  0.00  0.00    +0.166 C 
ATOM      6  O   UNL     1       0.996  -0.330  22.621  0.00  0.00    -0.350 OA
ATOM      7  C   UNL     1       0.701   0.222  23.157  0.00  0.00    +0.166 C 
ATOM      8  C   UNL     1       0.036   0.443  23.592  0.00  0.00    +0.154 C 
ATOM      9  C   UNL     1       0.226   1.119  24.026  0.00  0.00    +0.166 C 
ATOM     10  O   UNL     1       1.009   1.316  23.859  0.00  0.00    -0.350 OA
ATOM     11  C   UNL     1       1.303   0.762  23.323  0.00  0.00    +0.166 C 
ENDROOT
BRANCH   8  12
ATOM     12  N   UNL     1      -0.693   0.056  23.592  0.00  0.00    -0.200 NA
ATOM     13  C   UNL     1      -1.013  -0.222  24.301  0.00  0.00    +0.237 A 
ATOM     14  N   UNL     1      -1.740  -0.609  24.301  0.00  0.00    -0.212 NA
ATOM     15  C   UNL     1      -2.060  -0.887  25.010  0.00  0.00    +0.092 A 
ATOM     16  C   UNL     1      -1.651  -0.777  25.717  0.00  0.00    +0.040 A 
ATOM     17  C   UNL     1      -0.922  -0.390  25.717  0.00  0.00    +0.103 A 
ATOM     18  N   UNL     1      -0.603  -0.112  25.008  0.00  0.00    -0.211 NA
BRANCH  15  19
ATOM     19  C   UNL     1      -2.788  -1.274  25.010  0.00  0.00    +0.047 A 
ATOM     20  C   UNL     1      -2.912  -2.074  24.851  0.00  0.00    +0.009 A 
ATOM     21  C   UNL     1      -3.721  -2.224  24.912  0.00  0.00    +0.008 A 
ATOM     22  C   UNL     1      -4.096  -1.517  25.110  0.00  0.00    +0.035 A 
ATOM     23  S   UNL     1      -3.520  -0.930  25.171  0.00  0.00    -0.085 S 
ENDBRANCH  15  19
ENDBRANCH   8  12
BRANCH   4   3
ATOM      1  O   UNL     1       3.341  -0.281  23.291  0.00  0.00    -0.249 OA
ATOM      2  C   UNL     1       3.384   0.518  23.090  0.00  0.00    +0.339 C 
ATOM      3  N   UNL     1       2.698   0.929  22.888  0.00  0.00    -0.184 NA
ATOM     24  N   UNL     1       4.112   0.905  23.089  0.00  0.00    -0.189 NA
BRANCH  24  25
ATOM     25  C   UNL     1       4.799   0.494  23.290  0.00  0.00    +0.097 C 
ATOM     26  C   UNL     1       5.224   0.092  22.710  0.00  0.00    +0.022 C 
ATOM     27  C   UNL     1       5.911  -0.320  22.911  0.00  0.00    +0.002 C 
ATOM     28  C   UNL     1       6.171  -0.328  23.694  0.00  0.00    +0.000 C 
ATOM     29  C   UNL     1       5.745   0.074  24.275  0.00  0.00    +0.002 C 
ATOM     30  C   UNL     1       5.059   0.485  24.073  0.00  0.00    +0.022 C 
ENDBRANCH  24  25
ENDBRANCH   4   3
TORSDOF 4
ENDMDL
MODEL 4
REMARK VINA RESULT:      -7.7      2.462      6.552
REMARK  Name = 
REMARK  4 active torsions:
REMARK  status: ('A' for Active; 'I' for Inactive)
REMARK    1  A    between atoms: N_3  and  C_4
REMARK    2  A    between atoms: C_8  and  N_12
REMARK    3  A    between atoms: C_15  and  C_19
REMARK    4  A    between atoms: N_24  and  C_25
REMARK                            x       y       z     vdW  Elec       q    Type
REMARK                         _______ _______ _______ _____ _____    ______ ____
ROOT
ATOM      4  C   UNL     1      -1.493   0.370  24.827  0.00  0.00    +0.156 C 
ATOM      5  C   UNL     1      -0.987   0.171  25.447  0.00  0.00    +0.166 C 
ATOM      6  O   UNL     1      -0.222   0.392  25.231  0.00  0.00    -0.350 OA
ATOM      7  C   UNL     1      -0.256   0.726  24.478  0.00  0.00    +0.166 C 
ATOM      8  C   UNL     1       0.195   1.068  23.878  0.00  0.00    +0.154 C 
ATOM      9  C   UNL     1      -0.311   1.267  23.258  0.00  0.00    +0.166 C 
ATOM     10  O   UNL     1      -1.076   1.046  23.475  0.00  0.00    -0.350 OA
ATOM     11  C   UNL     1      -1.042   0.712  24.229  0.00  0.00    +0.166 C 
ENDROOT
BRANCH   8  12
ATOM     12  N   UNL     1       1.011   1.191  23.896  0.00  0.00    -0.200 NA
ATOM     13  C   UNL     1       1.505   0.763  23.392  0.00  0.00    +0.237 A 
ATOM     14  N   UNL     1       2.320   0.885  23.410  0.00  0.00    -0.212 NA
ATOM     15  C   UNL     1       2.813   0.456  22.906  0.00  0.00    +0.092 A 
ATOM     16  C   UNL     1       2.490  -0.096  22.385  0.00  0.00    +0.040 A 
ATOM     17  C   UNL     1       1.674  -0.219  22.367  0.00  0.00    +0.103 A 
ATOM     18  N   UNL     1       1.182   0.211  22.871  0.00  0.00    -0.211 NA
BRANCH  15  19
ATOM     19  C   UNL     1       3.628   0.579  22.924  0.00  0.00    +0.047 A 
ATOM     20  C   UNL     1       4.026   1.239  22.628  0.00  0.00    +0.009 A 
ATOM     21  C   UNL     1       4.832   1.131  22.762  0.00  0.00    +0.008 A 
ATOM     22  C   UNL     1       4.934   0.405  23.139  0.00  0.00    +0.035 A 
ATOM     23  S   UNL     1       4.189   0.064  23.239  0.00  0.00    -0.085 S 
ENDBRANCH  15  19
ENDBRANCH   8  12
BRANCH   4   3
ATOM      1  O   UNL     1      -2.094  -1.132  24.499  0.00  0.00    -0.249 OA
ATOM      2  C   UNL     1      -2.610  -0.504  24.646  0.00  0.00    +0.339 C 
ATOM      3  N   UNL     1      -2.309   0.246  24.809  0.00  0.00    -0.184 NA
ATOM     24  N   UNL     1      -3.425  -0.627  24.628  0.00  0.00    -0.189 NA
BRANCH  24  25
ATOM     25  C   UNL     1      -3.726  -1.378  24.464  0.00  0.00    +0.097 C 
ATOM     26  C   UNL     1      -3.578  -2.004  24.980  0.00  0.00    +0.022 C 
ATOM     27  C   UNL     1      -3.879  -2.754  24.816  0.00  0.00    +0.002 C 
ATOM     28  C   UNL     1      -4.329  -2.879  24.136  0.00  0.00    +0.000 C 
ATOM     29  C   UNL     1      -4.477  -2.252  23.619  0.00  0.00    +0.002 C 
ATOM     30  C   UNL     1      -4.176  -1.502  23.784  0.00  0.00    +0.022 C 
ENDBRANCH  24  25
ENDBRANCH   4   3
TORSDOF 4
ENDMDL
MODEL 5
REMARK VINA RESULT:      -7.4      2.072      6.716
REMARK  Name = 
REMARK  4 active torsions:
REMARK  status: ('A' for Active; 'I' for Inactive)
REMARK    1  A    between atoms: N_3  and  C_4
REMARK    2  A    between atoms: C_8  and  N_12
REMARK    3  A    between atoms: C_15  and  C_19
REMARK    4  A    between atoms: N_24  and  C_25
REMARK                            x       y       z     vdW  Elec       q    Type
REMARK                         _______ _______ _______ _____ _____    ______ ____
ROOT
ATOM      4  C   UNL     1      -3.224  -0.182  24.786  0.00  0.00    +0.156 C 
ATOM      5  C   UNL     1      -3.248  -0.363  23.982  0.00  0.00    +0.166 C 
ATOM      6  O   UNL     1      -2.475  -0.498  23.729  0.00  0.00    -0.350 OA
ATOM      7  C   UNL     1      -1.973  -0.401  24.376  0.00  0.00    +0.166 C 
ATOM      8  C   UNL     1      -1.186  -0.424  24.620  0.00  0.00    +0.154 C 
ATOM      9  C   UNL     1      -1.162  -0.243  25.425  0.00  0.00    +0.166 C 
ATOM     10  O   UNL     1      -1.935  -0.108  25.678  0.00  0.00    -0.350 OA
ATOM     11  C   UNL     1      -2.437  -0.206  25.030  0.00  0.00    +0.166 C 
ENDROOT
BRANCH   8  12
ATOM     12  N   UNL     1      -0.535  -0.598  24.143  0.00  0.00    -0.200 NA
ATOM     13  C   UNL     1       0.011  -0.007  23.959  0.00  0.00    +0.237 A 
ATOM     14  N   UNL     1       0.661  -0.181  23.483  0.00  0.00    -0.212 NA
ATOM     15  C   UNL     1       1.208   0.409  23.299  0.00  0.00    +0.092 A 
ATOM     16  C   UNL     1       1.104   1.173  23.593  0.00  0.00    +0.040 A 
ATOM     17  C   UNL     1       0.454   1.347  24.070  0.00  0.00    +0.103 A 
ATOM     18  N   UNL     1      -0.092   0.756  24.253  0.00  0.00    -0.211 NA
BRANCH  15  19
ATOM     19  C   UNL     1       1.858   0.236  22.822  0.00  0.00    +0.047 A 
ATOM     20  C   UNL     1       1.834  -0.135  22.085  0.00  0.00    +0.009 A 
ATOM     21  C   UNL     1       2.607  -0.197  21.806  0.00  0.00    +0.008 A 
ATOM     22  C   UNL     1       3.109   0.135  22.369  0.00  0.00    +0.035 A 
ATOM     23  S   UNL     1       2.646   0.403  22.997  0.00  0.00    -0.085 S 
ENDBRANCH  15  19
ENDBRANCH   8  12
BRANCH   4   3
ATOM      1  O   UNL     1      -4.078   1.209  24.543  0.00  0.00    -0.249 OA
ATOM      2  C   UNL     1      -4.302   0.687  25.142  0.00  0.00    +0.339 C 
ATOM      3  N   UNL     1      -3.875  -0.008  25.264  0.00  0.00    -0.184 NA
ATOM     24  N   UNL     1      -4.952   0.861  25.619  0.00  0.00    -0.189 NA
BRANCH  24  25
ATOM     25  C   UNL     1      -5.379   1.556  25.498  0.00  0.00    +0.097 C 
ATOM     26  C   UNL     1      -6.079   1.540  25.063  0.00  0.00    +0.022 C 
ATOM     27  C   UNL     1      -6.507   2.235  24.942  0.00  0.00    +0.002 C 
ATOM     28  C   UNL     1      -6.233   2.947  25.256  0.00  0.00    +0.000 C 
ATOM     29  C   UNL     1      -5.532   2.964  25.691  0.00  0.00    +0.002 C 
ATOM     30  C   UNL     1      -5.105   2.268  25.812  0.00  0.00    +0.022 C 
ENDBRANCH  24  25
ENDBRANCH   4   3
TORSDOF 4
ENDMDL
MODEL 6
REMARK VINA RESULT:      -6.9      3.148      4.646
REMARK  Name = 
REMARK  4 active torsions:
REMARK  status: ('A' for Active; 'I' for Inactive)
REMARK    1  A    between atoms: N_3  and  C_4
REMARK    2  A    between atoms: C_8  and  N_12
REMARK    3  A    between atoms: C_15  and  C_19
REMARK    4  A    between atoms: N_24  and  C_25
REMARK                            x       y       z     vdW  Elec       q    Type
REMARK                         _______ _______ _______ _____ _____    ______ ____
ROOT
ATOM      4  C   UNL     1      -0.477   1.898  24.556  0.00  0.00    +0.156 C 
ATOM      5  C   UNL     1      -0.594   1.698  23.764  0.00  0.00    +0.166 C 
ATOM      6  O   UNL     1      -0.891   0.929  23.738  0.00  0.00    -0.350 OA
ATOM      7  C   UNL     1      -0.958   0.654  24.512  0.00  0.00    +0.166 C 
ATOM      8  C   UNL     1      -1.182   0.009  24.975  0.00  0.00    +0.154 C 
ATOM      9  C   UNL     1      -1.066   0.209  25.766  0.00  0.00    +0.166 C 
ATOM     10  O   UNL     1      -0.769   0.978  25.793  0.00  0.00    -0.350 OA
ATOM     11  C   UNL     1      -0.702   1.253  25.018  0.00  0.00    +0.166 C 
ENDROOT
BRANCH   8  12
ATOM     12  N   UNL     1      -1.473  -0.711  24.694  0.00  0.00    -0.200 NA
ATOM     13  C   UNL     1      -2.265  -0.910  24.811  0.00  0.00    +0.237 A 
ATOM     14  N   UNL     1      -2.556  -1.629  24.531  0.00  0.00    -0.212 NA
ATOM     15  C   UNL     1      -3.348  -1.828  24.647  0.00  0.00    +0.092 A 
ATOM     16  C   UNL     1      -3.850  -1.307  25.044  0.00  0.00    +0.040 A 
ATOM     17  C   UNL     1      -3.559  -0.587  25.325  0.00  0.00    +0.103 A 
ATOM     18  N   UNL     1      -2.767  -0.389  25.208  0.00  0.00    -0.211 NA
BRANCH  15  19
ATOM     19  C   UNL     1      -3.639  -2.546  24.367  0.00  0.00    +0.047 A 
ATOM     20  C   UNL     1      -4.217  -2.643  23.786  0.00  0.00    +0.009 A 
ATOM     21  C   UNL     1      -4.338  -3.451  23.679  0.00  0.00    +0.008 A 
ATOM     22  C   UNL     1      -3.836  -3.855  24.193  0.00  0.00    +0.035 A 
ATOM     23  S   UNL     1      -3.403  -3.296  24.619  0.00  0.00    -0.085 S 
ENDBRANCH  15  19
ENDBRANCH   8  12
BRANCH   4   3
ATOM      1  O   UNL     1      -1.418   3.252  24.484  0.00  0.00    -0.249 OA
ATOM      2  C   UNL     1      -0.657   3.295  24.800  0.00  0.00    +0.339 C 
ATOM      3  N   UNL     1      -0.187   2.618  24.836  0.00  0.00    -0.184 NA
ATOM     24  N   UNL     1      -0.367   4.014  25.080  0.00  0.00    -0.189 NA
BRANCH  24  25
ATOM     25  C   UNL     1      -0.837   4.692  25.045  0.00  0.00    +0.097 C 
ATOM     26  C   UNL     1      -1.546   4.725  25.464  0.00  0.00    +0.022 C 
ATOM     27  C   UNL     1      -2.016   5.402  25.428  0.00  0.00    +0.002 C 
ATOM     28  C   UNL     1      -1.776   6.046  24.972  0.00  0.00    +0.000 C 
ATOM     29  C   UNL     1      -1.066   6.013  24.553  0.00  0.00    +0.002 C 
ATOM     30  C   UNL     1      -0.597   5.336  24.589  0.00  0.00    +0.022 C 
ENDBRANCH  24  25
ENDBRANCH   4   3
TORSDOF 4
ENDMDL
