MODEL 1
REMARK VINA RESULT:     -12.2      0.000      0.000
REMARK  Name = 
REMARK  4 active torsions:
REMARK  status: ('A' for Active; 'I' for Inactive)
REMARK    1  A    between atoms: C_4  and  N_19
REMARK    2  A    between atoms: C_6  and  C_7
REMARK    3  A    between atoms: C_9  and  C_12
REMARK    4  A    between atoms: C_20  and  C_22
REMARK                            x       y       z     vdW  Elec       q    Type
REMARK                         _______ _______ _______ _____ _____    ______ ____
ROOT
ATOM      1  C   UNL     1      -5.556   2.452  24.883  0.00  0.00    +0.090 C 
ATOM      2  N   UNL     1      -5.012   1.842  24.996  0.00  0.00    -0.264 NA
ATOM      3  C   UNL     1      -5.156   1.037  24.892  0.00  0.00    +0.094 C 
ATOM      4  C   UNL     1      -4.461   0.629  25.065  0.00  0.00    +0.113 C 
ATOM      5  C   UNL     1      -3.886   1.182  25.276  0.00  0.00    +0.049 C 
ATOM      6  C   UNL     1      -4.226   1.932  25.234  0.00  0.00    +0.139 C 
ENDROOT
BRANCH   6   7
ATOM      7  C   UNL     1      -3.849   2.646  25.400  0.00  0.00    +0.251 A 
ATOM      8  N   UNL     1      -3.123   2.893  25.095  0.00  0.00    -0.190 NA
ATOM      9  C   UNL     1      -2.956   3.638  25.407  0.00  0.00    +0.203 A 
ATOM     10  N   UNL     1      -3.578   3.851  25.906  0.00  0.00    -0.056 NA
ATOM     11  O   UNL     1      -4.130   3.238  25.902  0.00  0.00    -0.336 OA
BRANCH   9  12
ATOM     12  C   UNL     1      -2.284   4.091  25.248  0.00  0.00    +0.039 A 
ATOM     13  C   UNL     1      -2.332   4.914  25.256  0.00  0.00    +0.004 A 
ATOM     14  C   UNL     1      -1.660   5.367  25.097  0.00  0.00    +0.011 A 
ATOM     15  C   UNL     1      -0.942   4.996  24.931  0.00  0.00    +0.058 A 
ATOM     16 CL   UNL     1      -0.271   5.449  24.772  0.00  0.00    -0.082 Cl
ATOM     17  C   UNL     1      -0.896   4.172  24.924  0.00  0.00    +0.011 A 
ATOM     18  C   UNL     1      -1.567   3.720  25.082  0.00  0.00    +0.004 A 
ENDBRANCH   9  12
ENDBRANCH   6   7
BRANCH   4  19
ATOM     19  N   UNL     1      -4.358  -0.189  25.032  0.00  0.00    -0.201 NA
ATOM     20  C   UNL     1      -3.958  -0.530  24.395  0.00  0.00    +0.283 C 
ATOM     21  O   UNL     1      -3.661  -0.051  23.792  0.00  0.00    -0.267 OA
BRANCH  20  22
ATOM     22  C   UNL     1      -3.854  -1.347  24.361  0.00  0.00    +0.136 A 
ATOM     23  N   UNL     1      -3.297  -1.713  24.846  0.00  0.00    -0.239 NA
ATOM     24  C   UNL     1      -3.193  -2.530  24.813  0.00  0.00    +0.099 A 
ATOM     25  C   UNL     1      -3.648  -2.983  24.294  0.00  0.00    +0.021 A 
ATOM     26  C   UNL     1      -4.206  -2.617  23.809  0.00  0.00    +0.003 A 
ATOM     27  C   UNL     1      -4.309  -1.799  23.842  0.00  0.00    +0.024 A 
ENDBRANCH  20  22
ENDBRANCH   4  19
TORSDOF 4
ENDMDL
MODEL 2
REMARK VINA RESULT:     -12.2      2.003      5.552
REMARK  Name = 
REMARK  4 active torsions:
REMARK  status: ('A' for Active; 'I' for Inactive)
REMARK    1  A    between atoms: C_4  and  N_19
REMARK    2  A    between atoms: C_6  and  C_7
REMARK    3  A    between atoms: C_9  and  C_12
REMARK    4  A    between atoms: C_20  and  C_22
REMARK                            x       y       z     vdW  Elec       q    Type
REMARK                         _______ _______ _______ _____ _____    ______ ____
ROOT
ATOM      1  C   UNL     1      -5.440   2.348  25.595  0.00  0.00    +0.090 C 
ATOM      2  N   UNL     1      -4.697   2.462  25.255  0.00  0.00    -0.264 NA
ATOM      3  C   UNL     1      -4.277   3.172  25.236  0.00  0.00    +0.094 C 
ATOM      4  C   UNL     1      -3.565   3.035  24.843  0.00  0.00    +0.113 C 
ATOM      5  C   UNL     1      -3.545   2.241  24.620  0.00  0.00    +0.049 C 
ATOM      6  C   UNL     1      -4.244   1.887  24.874  0.00  0.00    +0.139 C 
ENDROOT
BRANCH   6   7
ATOM      7  C   UNL     1      -4.455   1.097  24.767  0.00  0.00    +0.251 A 
ATOM      8  N   UNL     1      -3.946   0.449  24.814  0.00  0.00    -0.190 NA
ATOM      9  C   UNL     1      -4.388  -0.233  24.670  0.00  0.00    +0.203 A 
ATOM     10  N   UNL     1      -5.170  -0.006  24.534  0.00  0.00    -0.056 NA
ATOM     11  O   UNL     1      -5.211   0.816  24.594  0.00  0.00    -0.336 OA
BRANCH   9  12
ATOM     12  C   UNL     1      -4.099  -1.006  24.663  0.00  0.00    +0.039 A 
ATOM     13  C   UNL     1      -3.686  -1.297  25.315  0.00  0.00    +0.004 A 
ATOM     14  C   UNL     1      -3.397  -2.070  25.309  0.00  0.00    +0.011 A 
ATOM     15  C   UNL     1      -3.520  -2.551  24.650  0.00  0.00    +0.058 A 
ATOM     16 CL   UNL     1      -3.231  -3.324  24.643  0.00  0.00    -0.082 Cl
ATOM     17  C   UNL     1      -3.932  -2.258  23.997  0.00  0.00    +0.011 A 
ATOM     18  C   UNL     1      -4.222  -1.486  24.004  0.00  0.00    +0.004 A 
ENDBRANCH   9  12
ENDBRANCH   6   7
BRANCH   4  19
ATOM     19  N   UNL     1      -2.975   3.595  24.699  0.00  0.00    -0.201 NA
ATOM     20  C   UNL     1      -2.350   3.681  25.231  0.00  0.00    +0.283 C 
ATOM     21  O   UNL     1      -2.314   3.208  25.906  0.00  0.00    -0.267 OA
BRANCH  20  22
ATOM     22  C   UNL     1      -1.760   4.240  25.087  0.00  0.00    +0.136 A 
ATOM     23  N   UNL     1      -1.016   3.998  24.829  0.00  0.00    -0.239 NA
ATOM     24  C   UNL     1      -0.427   4.557  24.686  0.00  0.00    +0.099 A 
ATOM     25  C   UNL     1      -0.582   5.359  24.800  0.00  0.00    +0.021 A 
ATOM     26  C   UNL     1      -1.327   5.601  25.059  0.00  0.00    +0.003 A 
ATOM     27  C   UNL     1      -1.917   5.043  25.202  0.00  0.00    +0.024 A 
ENDBRANCH  20  22
ENDBRANCH   4  19
TORSDOF 4
ENDMDL
MODEL 3
REMARK VINA RESULT:     -11.6      2.096      2.610
REMARK  Name = 
REMARK  4 active torsions:
REMARK  status: ('A' for Active; 'I' for Inactive)
REMARK    1  A    between atoms: C_4  and  N_19
REMARK    2  A    between atoms: C_6  and  C_7
REMARK    3  A    between atoms: C_9  and  C_12
REMARK    4  A    between atoms: C_20  and  C_22
REMARK                            x       y       z     vdW  Elec       q    Type
REMARK                         _______ _______ _______ _____ _____    ______ ____
ROOT
ATOM      1  C   UNL     1       0.336   0.789  24.128  0.00  0.00    +0.090 C 
ATOM      2  N   UNL     1      -0.351   0.465  24.451  0.00  0.00    -0.264 NA
ATOM      3  C   UNL     1      -0.650  -0.288  24.300  0.00  0.00    +0.094 C 
ATOM      4  C   UNL     1      -1.342  -0.380  24.737  0.00  0.00    +0.113 C 
ATOM      5  C   UNL     1      -1.472   0.317  25.159  0.00  0.00    +0.049 C 
ATOM      6  C   UNL     1      -0.859   0.840  24.983  0.00  0.00    +0.139 C 
ENDROOT
BRANCH   6   7
ATOM      7  C   UNL     1      -0.770   1.602  25.284  0.00  0.00    +0.251 A 
ATOM      8  N   UNL     1      -1.121   2.286  24.984  0.00  0.00    -0.190 NA
ATOM      9  C   UNL     1      -0.882   2.921  25.453  0.00  0.00    +0.203 A 
ATOM     10  N   UNL     1      -0.383   2.630  26.043  0.00  0.00    -0.056 NA
ATOM     11  O   UNL     1      -0.314   1.815  25.938  0.00  0.00    -0.336 OA
BRANCH   9  12
ATOM     12  C   UNL     1      -1.103   3.710  25.350  0.00  0.00    +0.039 A 
ATOM     13  C   UNL     1      -1.833   3.973  25.631  0.00  0.00    +0.004 A 
ATOM     14  C   UNL     1      -2.054   4.762  25.529  0.00  0.00    +0.011 A 
ATOM     15  C   UNL     1      -1.545   5.286  25.145  0.00  0.00    +0.058 A 
ATOM     16 CL   UNL     1      -1.766   6.075  25.042  0.00  0.00    -0.082 Cl
ATOM     17  C   UNL     1      -0.816   5.022  24.864  0.00  0.00    +0.011 A 
ATOM     18  C   UNL     1      -0.595   4.234  24.966  0.00  0.00    +0.004 A 
ENDBRANCH   9  12
ENDBRANCH   6   7
BRANCH   4  19
ATOM     19  N   UNL     1      -1.822  -1.052  24.751  0.00  0.00    -0.201 NA
ATOM     20  C   UNL     1      -2.554  -1.043  24.370  0.00  0.00    +0.283 C 
ATOM     21  O   UNL     1      -2.806  -0.364  23.975  0.00  0.00    -0.267 OA
BRANCH  20  22
ATOM     22  C   UNL     1      -3.034  -1.714  24.383  0.00  0.00    +0.136 A 
ATOM     23  N   UNL     1      -2.780  -2.396  24.770  0.00  0.00    -0.239 NA
ATOM     24  C   UNL     1      -3.260  -3.067  24.783  0.00  0.00    +0.099 A 
ATOM     25  C   UNL     1      -3.995  -3.056  24.409  0.00  0.00    +0.021 A 
ATOM     26  C   UNL     1      -4.250  -2.373  24.021  0.00  0.00    +0.003 A 
ATOM     27  C   UNL     1      -3.770  -1.702  24.008  0.00  0.00    +0.024 A 
ENDBRANCH  20  22
ENDBRANCH   4  19
TORSDOF 4
ENDMDL
MODEL 4
REMARK VINA RESULT:     -11.3      2.729      6.111
REMARK  Name = 
REMARK  4 active torsions:
REMARK  status: ('A' for Active; 'I' for Inactive)
REMARK    1  A    between atoms: C_4  and  N_19
REMARK    2  A    between atoms: C_6  and  C_7
REMARK    3  A    between atoms: C_9  and  C_12
REMARK    4  A    between atoms: C_20  and  C_22
REMARK                            x       y       z     vdW  Elec       q    Type
REMARK                         _______ _______ _______ _____ _____    ______ ____
ROOT
ATOM      1  C   UNL     1      -0.043  -0.021  24.569  0.00  0.00    +0.090 C 
ATOM      2  N   UNL     1      -0.490   0.614  24.846  0.00  0.00    -0.264 NA
ATOM      3  C   UNL     1      -0.255   1.405  24.854  0.00  0.00    +0.094 C 
ATOM      4  C   UNL     1      -0.870   1.850  25.177  0.00  0.00    +0.113 C 
ATOM      5  C   UNL     1      -1.484   1.334  25.370  0.00  0.00    +0.049 C 
ATOM      6  C   UNL     1      -1.250   0.571  25.166  0.00  0.00    +0.139 C 
ENDROOT
BRANCH   6   7
ATOM      7  C   UNL     1      -1.696  -0.116  25.263  0.00  0.00    +0.251 A 
ATOM      8  N   UNL     1      -2.220  -0.436  24.711  0.00  0.00    -0.190 NA
ATOM      9  C   UNL     1      -2.544  -1.121  25.036  0.00  0.00    +0.203 A 
ATOM     10  N   UNL     1      -2.221  -1.226  25.788  0.00  0.00    -0.056 NA
ATOM     11  O   UNL     1      -1.696  -0.604  25.928  0.00  0.00    -0.336 OA
BRANCH   9  12
ATOM     12  C   UNL     1      -3.096  -1.616  24.672  0.00  0.00    +0.039 A 
ATOM     13  C   UNL     1      -3.000  -2.435  24.707  0.00  0.00    +0.004 A 
ATOM     14  C   UNL     1      -3.552  -2.930  24.343  0.00  0.00    +0.011 A 
ATOM     15  C   UNL     1      -4.198  -2.606  23.946  0.00  0.00    +0.058 A 
ATOM     16 CL   UNL     1      -4.750  -3.101  23.582  0.00  0.00    -0.082 Cl
ATOM     17  C   UNL     1      -4.293  -1.787  23.912  0.00  0.00    +0.011 A 
ATOM     18  C   UNL     1      -3.742  -1.292  24.275  0.00  0.00    +0.004 A 
ENDBRANCH   9  12
ENDBRANCH   6   7
BRANCH   4  19
ATOM     19  N   UNL     1      -0.870   2.668  25.289  0.00  0.00    -0.201 NA
ATOM     20  C   UNL     1      -1.249   3.159  24.744  0.00  0.00    +0.283 C 
ATOM     21  O   UNL     1      -1.627   2.831  24.088  0.00  0.00    -0.267 OA
BRANCH  20  22
ATOM     22  C   UNL     1      -1.249   3.976  24.855  0.00  0.00    +0.136 A 
ATOM     23  N   UNL     1      -0.602   4.426  24.614  0.00  0.00    -0.239 NA
ATOM     24  C   UNL     1      -0.603   5.243  24.725  0.00  0.00    +0.099 A 
ATOM     25  C   UNL     1      -1.251   5.611  25.078  0.00  0.00    +0.021 A 
ATOM     26  C   UNL     1      -1.899   5.160  25.320  0.00  0.00    +0.003 A 
ATOM     27  C   UNL     1      -1.899   4.343  25.209  0.00  0.00    +0.024 A 
ENDBRANCH  20  22
ENDBRANCH   4  19
TORSDOF 4
ENDMDL
MODEL 5
REMARK VINA RESULT:      -9.6      3.307      4.633
REMARK  Name = 
REMARK  4 active torsions:
REMARK  status: ('A' for Active; 'I' for Inactive)
REMARK    1  A    between atoms: C_4  and  N_19
REMARK    2  A    between atoms: C_6  and  C_7
REMARK    3  A    between atoms: C_9  and  C_12
REMARK    4  A    between atoms: C_20  and  C_22
REMARK                            x       y       z     vdW  Elec       q    Type
REMARK                         _______ _______ _______ _____ _____    ______ ____
ROOT
ATOM      1  C   UNL     1      -0.971   2.892  26.252  0.00  0.00    +0.090 C 
ATOM      2  N   UNL     1      -0.779   2.629  25.494  0.00  0.00    -0.264 NA
ATOM      3  C   UNL     1      -0.049   2.329  25.255  0.00  0.00    +0.094 C 
ATOM      4  C   UNL     1      -0.103   2.134  24.455  0.00  0.00    +0.113 C 
ATOM      5  C   UNL     1      -0.866   2.315  24.200  0.00  0.00    +0.049 C 
ATOM      6  C   UNL     1      -1.284   2.620  24.841  0.00  0.00    +0.139 C 
ENDROOT
BRANCH   6   7
ATOM      7  C   UNL     1      -2.069   2.873  24.832  0.00  0.00    +0.251 A 
ATOM      8  N   UNL     1      -2.732   2.401  24.969  0.00  0.00    -0.190 NA
ATOM      9  C   UNL     1      -3.402   2.878  24.906  0.00  0.00    +0.203 A 
ATOM     10  N   UNL     1      -3.153   3.645  24.730  0.00  0.00    -0.056 NA
ATOM     11  O   UNL     1      -2.330   3.642  24.684  0.00  0.00    -0.336 OA
BRANCH   9  12
ATOM     12  C   UNL     1      -4.184   2.632  25.003  0.00  0.00    +0.039 A 
ATOM     13  C   UNL     1      -4.692   3.058  25.494  0.00  0.00    +0.004 A 
ATOM     14  C   UNL     1      -5.474   2.812  25.591  0.00  0.00    +0.011 A 
ATOM     15  C   UNL     1      -5.747   2.140  25.196  0.00  0.00    +0.058 A 
ATOM     16 CL   UNL     1      -6.528   1.894  25.293  0.00  0.00    -0.082 Cl
ATOM     17  C   UNL     1      -5.237   1.715  24.706  0.00  0.00    +0.011 A 
ATOM     18  C   UNL     1      -4.456   1.961  24.609  0.00  0.00    +0.004 A 
ENDBRANCH   9  12
ENDBRANCH   6   7
BRANCH   4  19
ATOM     19  N   UNL     1       0.502   1.815  23.992  0.00  0.00    -0.201 NA
ATOM     20  C   UNL     1       0.545   0.999  23.875  0.00  0.00    +0.283 C 
ATOM     21  O   UNL     1      -0.016   0.503  24.222  0.00  0.00    -0.267 OA
BRANCH  20  22
ATOM     22  C   UNL     1       1.148   0.680  23.413  0.00  0.00    +0.136 A 
ATOM     23  N   UNL     1       1.912   0.988  23.460  0.00  0.00    -0.239 NA
ATOM     24  C   UNL     1       2.515   0.669  22.997  0.00  0.00    +0.099 A 
ATOM     25  C   UNL     1       2.355   0.041  22.487  0.00  0.00    +0.021 A 
ATOM     26  C   UNL     1       1.591  -0.268  22.439  0.00  0.00    +0.003 A 
ATOM     27  C   UNL     1       0.988   0.051  22.902  0.00  0.00    +0.024 A 
ENDBRANCH  20  22
ENDBRANCH   4  19
TORSDOF 4
ENDMDL
MODEL 6
REMARK VINA RESULT:      -9.5      3.426      4.753
REMARK  Name = 
REMARK  4 active torsions:
REMARK  status: ('A' for Active; 'I' for Inactive)
REMARK    1  A    between atoms: C_4  and  N_19
REMARK    2  A    between atoms: C_6  and  C_7
REMARK    3  A    between atoms: C_9  and  C_12
REMARK    4  A    between atoms: C_20  and  C_22
REMARK                            x       y       z     vdW  Elec       q    Type
REMARK                         _______ _______ _______ _____ _____    ______ ____
ROOT
ATOM      1  C   UNL     1      -1.783  -0.660  25.932  0.00  0.00    +0.090 C 
ATOM      2  N   UNL     1      -1.457  -0.494  25.192  0.00  0.00    -0.264 NA
ATOM      3  C   UNL     1      -0.680  -0.644  24.960  0.00  0.00    +0.094 C 
ATOM      4  C   UNL     1      -0.593  -0.391  24.180  0.00  0.00    +0.113 C 
ATOM      5  C   UNL     1      -1.317  -0.083  23.930  0.00  0.00    +0.049 C 
ATOM      6  C   UNL     1      -1.851  -0.147  24.555  0.00  0.00    +0.139 C 
ENDROOT
BRANCH   6   7
ATOM      7  C   UNL     1      -2.639   0.094  24.546  0.00  0.00    +0.251 A 
ATOM      8  N   UNL     1      -2.928   0.820  24.812  0.00  0.00    -0.190 NA
ATOM      9  C   UNL     1      -3.745   0.826  24.699  0.00  0.00    +0.203 A 
ATOM     10  N   UNL     1      -3.962   0.103  24.365  0.00  0.00    -0.056 NA
ATOM     11  O   UNL     1      -3.278  -0.349  24.270  0.00  0.00    -0.336 OA
BRANCH   9  12
ATOM     12  C   UNL     1      -4.256   1.446  24.889  0.00  0.00    +0.039 A 
ATOM     13  C   UNL     1      -4.052   2.221  24.697  0.00  0.00    +0.004 A 
ATOM     14  C   UNL     1      -4.563   2.841  24.886  0.00  0.00    +0.011 A 
ATOM     15  C   UNL     1      -5.278   2.685  25.267  0.00  0.00    +0.058 A 
ATOM     16 CL   UNL     1      -5.789   3.304  25.457  0.00  0.00    -0.082 Cl
ATOM     17  C   UNL     1      -5.481   1.908  25.459  0.00  0.00    +0.011 A 
ATOM     18  C   UNL     1      -4.971   1.289  25.270  0.00  0.00    +0.004 A 
ENDBRANCH   9  12
ENDBRANCH   6   7
BRANCH   4  19
ATOM     19  N   UNL     1       0.096  -0.436  23.729  0.00  0.00    -0.201 NA
ATOM     20  C   UNL     1       0.530   0.247  23.567  0.00  0.00    +0.283 C 
ATOM     21  O   UNL     1       0.274   0.976  23.858  0.00  0.00    -0.267 OA
BRANCH  20  22
ATOM     22  C   UNL     1       1.219   0.202  23.116  0.00  0.00    +0.136 A 
ATOM     23  N   UNL     1       1.221  -0.218  22.407  0.00  0.00    -0.239 NA
ATOM     24  C   UNL     1       1.910  -0.263  21.956  0.00  0.00    +0.099 A 
ATOM     25  C   UNL     1       2.598   0.112  22.214  0.00  0.00    +0.021 A 
ATOM     26  C   UNL     1       2.596   0.532  22.925  0.00  0.00    +0.003 A 
ATOM     27  C   UNL     1       1.907   0.577  23.376  0.00  0.00    +0.024 A 
ENDBRANCH  20  22
ENDBRANCH   4  19
TORSDOF 4
ENDMDL
MODEL 7
REMARK VINA RESULT:      -8.3     16.841     18.677
REMARK  Name = 
REMARK  4 active torsions:
REMARK  status: ('A' for Active; 'I' for Inactive)
REMARK    1  A    between atoms: C_4  and  N_19
REMARK    2  A    between atoms: C_6  and  C_7
REMARK    3  A    between atoms: C_9  and  C_12
REMARK    4  A    between atoms: C_20  and  C_22
REMARK                            x       y       z     vdW  Elec       q    Type
REMARK                         _______ _______ _______ _____ _____    ______ ____
ROOT
ATOM      1  C   UNL     1      11.266   7.473  21.241  0.00  0.00    +0.090 C 
ATOM      2  N   UNL     1      11.547   7.799  20.537  0.00  0.00    -0.264 NA
ATOM      3  C   UNL     1      11.088   8.028  19.891  0.00  0.00    +0.094 C 
ATOM      4  C   UNL     1      11.593   8.323  19.311  0.00  0.00    +0.113 C 
ATOM      5  C   UNL     1      12.365   8.277  19.597  0.00  0.00    +0.049 C 
ATOM      6  C   UNL     1      12.337   7.953  20.355  0.00  0.00    +0.139 C 
ENDROOT
BRANCH   6   7
ATOM      7  C   UNL     1      12.984   7.808  20.845  0.00  0.00    +0.251 A 
ATOM      8  N   UNL     1      13.739   7.581  20.598  0.00  0.00    -0.190 NA
ATOM      9  C   UNL     1      14.212   7.497  21.268  0.00  0.00    +0.203 A 
ATOM     10  N   UNL     1      13.751   7.673  21.930  0.00  0.00    -0.056 NA
ATOM     11  O   UNL     1      12.992   7.865  21.668  0.00  0.00    -0.336 OA
BRANCH   9  12
ATOM     12  C   UNL     1      15.007   7.277  21.276  0.00  0.00    +0.039 A 
ATOM     13  C   UNL     1      15.590   7.841  21.425  0.00  0.00    +0.004 A 
ATOM     14  C   UNL     1      16.385   7.621  21.433  0.00  0.00    +0.011 A 
ATOM     15  C   UNL     1      16.597   6.837  21.291  0.00  0.00    +0.058 A 
ATOM     16 CL   UNL     1      17.393   6.616  21.299  0.00  0.00    -0.082 Cl
ATOM     17  C   UNL     1      16.014   6.273  21.141  0.00  0.00    +0.011 A 
ATOM     18  C   UNL     1      15.219   6.492  21.133  0.00  0.00    +0.004 A 
ENDBRANCH   9  12
ENDBRANCH   6   7
BRANCH   4  19
ATOM     19  N   UNL     1      11.366   8.614  18.572  0.00  0.00    -0.201 NA
ATOM     20  C   UNL     1      11.523   8.177  17.890  0.00  0.00    +0.283 C 
ATOM     21  O   UNL     1      11.907   7.449  17.947  0.00  0.00    -0.267 OA
BRANCH  20  22
ATOM     22  C   UNL     1      11.297   8.467  17.152  0.00  0.00    +0.136 A 
ATOM     23  N   UNL     1      10.509   8.422  16.915  0.00  0.00    -0.239 NA
ATOM     24  C   UNL     1      10.283   8.712  16.177  0.00  0.00    +0.099 A 
ATOM     25  C   UNL     1      10.845   9.048  15.675  0.00  0.00    +0.021 A 
ATOM     26  C   UNL     1      11.634   9.093  15.913  0.00  0.00    +0.003 A 
ATOM     27  C   UNL     1      11.860   8.803  16.651  0.00  0.00    +0.024 A 
ENDBRANCH  20  22
ENDBRANCH   4  19
TORSDOF 4
ENDMDL
