MODEL 1
REMARK VINA RESULT:     -13.0      0.000      0.000
REMARK  Name = 
REMARK  3 active torsions:
REMARK  status: ('A' for Active; 'I' for Inactive)
REMARK    1  A    between atoms: C_4  and  C_20
REMARK    2  A    between atoms: C_5  and  N_6
REMARK    3  A    between atoms: C_7  and  C_9
REMARK                            x       y       z     vdW  Elec       q    Type
REMARK                         _______ _______ _______ _____ _____    ______ ____
ROOT
ATOM      1  O   UNL     1      -5.668   3.472  25.324  0.00  0.00    -0.220 OA
ATOM      2  C   UNL     1      -5.072   2.971  25.053  0.00  0.00    +0.184 C 
ATOM      3  C   UNL     1      -4.314   3.199  24.823  0.00  0.00    +0.042 C 
ATOM      4  C   UNL     1      -3.903   2.521  24.592  0.00  0.00    +0.049 C 
ATOM      5  C   UNL     1      -4.408   1.874  24.679  0.00  0.00    +0.133 C 
ATOM     18  C   UNL     1      -5.131   2.152  24.964  0.00  0.00    +0.202 C 
ATOM     19  O   UNL     1      -5.795   1.692  25.131  0.00  0.00    -0.219 OA
ENDROOT
BRANCH   4  20
ATOM     20  C   UNL     1      -3.124   2.495  24.321  0.00  0.00    -0.002 A 
ATOM     21  C   UNL     1      -2.970   2.399  23.516  0.00  0.00    -0.001 A 
ATOM     22  C   UNL     1      -2.191   2.373  23.246  0.00  0.00    +0.020 A 
ATOM     23  C   UNL     1      -1.566   2.443  23.780  0.00  0.00    +0.099 A 
ATOM     24  N   UNL     1      -1.720   2.538  24.584  0.00  0.00    -0.243 NA
ATOM     25  C   UNL     1      -2.499   2.564  24.855  0.00  0.00    +0.095 A 
ENDBRANCH   4  20
BRANCH   5   6
ATOM      6  N   UNL     1      -4.222   1.088  24.511  0.00  0.00    -0.200 NA
ATOM      7  C   UNL     1      -4.367   0.501  25.073  0.00  0.00    +0.271 C 
ATOM      8  O   UNL     1      -4.697   0.700  25.802  0.00  0.00    -0.268 OA
BRANCH   7   9
ATOM      9  C   UNL     1      -4.182  -0.285  24.904  0.00  0.00    +0.084 A 
ATOM     10  C   UNL     1      -4.427  -0.711  24.242  0.00  0.00    +0.012 A 
ATOM     11  C   UNL     1      -4.116  -1.472  24.297  0.00  0.00    +0.007 A 
ATOM     12  C   UNL     1      -3.678  -1.518  24.995  0.00  0.00    +0.030 A 
ATOM     13  S   UNL     1      -3.718  -0.785  25.370  0.00  0.00    -0.082 S 
ATOM     14  C   UNL     1      -3.298  -2.222  25.198  0.00  0.00    +0.006 A 
ATOM     15  C   UNL     1      -3.357  -2.879  24.704  0.00  0.00    +0.001 A 
ATOM     16  C   UNL     1      -3.795  -2.834  24.006  0.00  0.00    +0.000 A 
ATOM     17  C   UNL     1      -4.175  -2.130  23.803  0.00  0.00    +0.001 A 
ENDBRANCH   7   9
ENDBRANCH   5   6
TORSDOF 3
ENDMDL
MODEL 2
REMARK VINA RESULT:     -12.1      1.408      2.283
REMARK  Name = 
REMARK  3 active torsions:
REMARK  status: ('A' for Active; 'I' for Inactive)
REMARK    1  A    between atoms: C_4  and  C_20
REMARK    2  A    between atoms: C_5  and  N_6
REMARK    3  A    between atoms: C_7  and  C_9
REMARK                            x       y       z     vdW  Elec       q    Type
REMARK                         _______ _______ _______ _____ _____    ______ ____
ROOT
ATOM      1  O   UNL     1      -2.095   3.814  24.472  0.00  0.00    -0.220 OA
ATOM      2  C   UNL     1      -2.690   3.251  24.574  0.00  0.00    +0.184 C 
ATOM      3  C   UNL     1      -3.444   3.392  24.876  0.00  0.00    +0.042 C 
ATOM      4  C   UNL     1      -3.855   2.676  24.880  0.00  0.00    +0.049 C 
ATOM      5  C   UNL     1      -3.354   2.093  24.581  0.00  0.00    +0.133 C 
ATOM     18  C   UNL     1      -2.633   2.448  24.392  0.00  0.00    +0.202 C 
ATOM     19  O   UNL     1      -1.973   2.068  24.076  0.00  0.00    -0.219 OA
ENDROOT
BRANCH   4  20
ATOM     20  C   UNL     1      -4.631   2.563  25.138  0.00  0.00    -0.002 A 
ATOM     21  C   UNL     1      -5.218   2.352  24.598  0.00  0.00    -0.001 A 
ATOM     22  C   UNL     1      -5.993   2.239  24.856  0.00  0.00    +0.020 A 
ATOM     23  C   UNL     1      -6.182   2.338  25.654  0.00  0.00    +0.099 A 
ATOM     24  N   UNL     1      -5.594   2.549  26.193  0.00  0.00    -0.243 NA
ATOM     25  C   UNL     1      -4.818   2.662  25.935  0.00  0.00    +0.095 A 
ENDBRANCH   4  20
BRANCH   5   6
ATOM      6  N   UNL     1      -3.540   1.295  24.487  0.00  0.00    -0.200 NA
ATOM      7  C   UNL     1      -3.052   0.715  24.816  0.00  0.00    +0.271 C 
ATOM      8  O   UNL     1      -2.378   0.936  25.237  0.00  0.00    -0.268 OA
BRANCH   7   9
ATOM      9  C   UNL     1      -3.238  -0.083  24.722  0.00  0.00    +0.084 A 
ATOM     10  C   UNL     1      -3.704  -0.405  24.123  0.00  0.00    +0.012 A 
ATOM     11  C   UNL     1      -3.745  -1.220  24.242  0.00  0.00    +0.007 A 
ATOM     12  C   UNL     1      -3.304  -1.402  24.915  0.00  0.00    +0.030 A 
ATOM     13  S   UNL     1      -2.990  -0.699  25.212  0.00  0.00    -0.082 S 
ATOM     14  C   UNL     1      -3.244  -2.184  25.170  0.00  0.00    +0.006 A 
ATOM     15  C   UNL     1      -3.626  -2.784  24.753  0.00  0.00    +0.001 A 
ATOM     16  C   UNL     1      -4.067  -2.603  24.080  0.00  0.00    +0.000 A 
ATOM     17  C   UNL     1      -4.127  -1.821  23.824  0.00  0.00    +0.001 A 
ENDBRANCH   7   9
ENDBRANCH   5   6
TORSDOF 3
ENDMDL
MODEL 3
REMARK VINA RESULT:     -11.5      1.876      4.243
REMARK  Name = 
REMARK  3 active torsions:
REMARK  status: ('A' for Active; 'I' for Inactive)
REMARK    1  A    between atoms: C_4  and  C_20
REMARK    2  A    between atoms: C_5  and  N_6
REMARK    3  A    between atoms: C_7  and  C_9
REMARK                            x       y       z     vdW  Elec       q    Type
REMARK                         _______ _______ _______ _____ _____    ______ ____
ROOT
ATOM      1  O   UNL     1      -3.961  -3.056  23.932  0.00  0.00    -0.220 OA
ATOM      2  C   UNL     1      -3.627  -2.364  24.233  0.00  0.00    +0.184 C 
ATOM      3  C   UNL     1      -2.849  -2.272  24.491  0.00  0.00    +0.042 C 
ATOM      4  C   UNL     1      -2.755  -1.493  24.746  0.00  0.00    +0.049 C 
ATOM      5  C   UNL     1      -3.475  -1.103  24.646  0.00  0.00    +0.133 C 
ATOM     18  C   UNL     1      -4.014  -1.641  24.329  0.00  0.00    +0.202 C 
ATOM     19  O   UNL     1      -4.802  -1.484  24.141  0.00  0.00    -0.219 OA
ENDROOT
BRANCH   4  20
ATOM     20  C   UNL     1      -2.062  -1.162  25.049  0.00  0.00    -0.002 A 
ATOM     21  C   UNL     1      -1.993  -1.017  25.858  0.00  0.00    -0.001 A 
ATOM     22  C   UNL     1      -1.301  -0.686  26.160  0.00  0.00    +0.020 A 
ATOM     23  C   UNL     1      -0.677  -0.501  25.653  0.00  0.00    +0.099 A 
ATOM     24  N   UNL     1      -0.745  -0.646  24.844  0.00  0.00    -0.243 NA
ATOM     25  C   UNL     1      -1.438  -0.977  24.541  0.00  0.00    +0.095 A 
ENDBRANCH   4  20
BRANCH   5   6
ATOM      6  N   UNL     1      -3.629  -0.314  24.831  0.00  0.00    -0.200 NA
ATOM      7  C   UNL     1      -3.925   0.195  24.252  0.00  0.00    +0.271 C 
ATOM      8  O   UNL     1      -4.067  -0.086  23.490  0.00  0.00    -0.268 OA
BRANCH   7   9
ATOM      9  C   UNL     1      -4.079   0.984  24.437  0.00  0.00    +0.084 A 
ATOM     10  C   UNL     1      -4.618   1.255  25.000  0.00  0.00    +0.012 A 
ATOM     11  C   UNL     1      -4.593   2.079  25.001  0.00  0.00    +0.007 A 
ATOM     12  C   UNL     1      -4.038   2.318  24.440  0.00  0.00    +0.030 A 
ATOM     13  S   UNL     1      -3.720   1.642  24.091  0.00  0.00    -0.082 S 
ATOM     14  C   UNL     1      -3.895   3.122  24.319  0.00  0.00    +0.006 A 
ATOM     15  C   UNL     1      -4.305   3.685  24.759  0.00  0.00    +0.001 A 
ATOM     16  C   UNL     1      -4.859   3.446  25.321  0.00  0.00    +0.000 A 
ATOM     17  C   UNL     1      -5.004   2.643  25.442  0.00  0.00    +0.001 A 
ENDBRANCH   7   9
ENDBRANCH   5   6
TORSDOF 3
ENDMDL
