REMARK  Name = 
REMARK  5 active torsions:
REMARK  status: ('A' for Active; 'I' for Inactive)
REMARK    1  A    between atoms: C_2  and  N_3
REMARK    2  A    between atoms: C_9  and  C_10
REMARK    3  A    between atoms: C_10  and  C_11
REMARK    4  A    between atoms: C_14  and  C_15
REMARK    5  A    between atoms: C_15  and  C_16
REMARK                            x       y       z     vdW  Elec       q    Type
REMARK                         _______ _______ _______ _____ _____    ______ ____
ROOT
ATOM      3  N   UNL     1      -3.572   1.238   0.000  0.00  0.00    -0.188 NA
ATOM      4  C   UNL     1      -2.858   0.825   0.000  0.00  0.00    +0.323 C 
ATOM      5  O   UNL     1      -2.858   0.000   0.000  0.00  0.00    -0.251 OA
ATOM      6  N   UNL     1      -2.143   1.238   0.000  0.00  0.00    -0.263 N 
ATOM      7  C   UNL     1      -2.143   2.062   0.000  0.00  0.00    +0.095 C 
ATOM      8  C   UNL     1      -1.429   2.475   0.000  0.00  0.00    +0.022 C 
ATOM      9  C   UNL     1      -0.715   2.062   0.000  0.00  0.00    +0.015 C 
ATOM     14  C   UNL     1      -0.715   1.238   0.000  0.00  0.00    +0.026 C 
ATOM     27  C   UNL     1      -1.429   0.825   0.000  0.00  0.00    +0.095 C 
ENDROOT
BRANCH   3   2
ATOM      1  C   UNL     1      -5.001   1.238   0.000  0.00  0.00    +0.025 C 
ATOM      2  C   UNL     1      -4.287   0.825   0.000  0.00  0.00    +0.117 C 
ENDBRANCH   3   2
BRANCH   9  10
ATOM     10  C   UNL     1       0.000   2.475   0.000  0.00  0.00    +0.114 C 
BRANCH  10  11
ATOM     11  C   UNL     1       0.000   3.300   0.000  0.00  0.00    +0.365 C 
ATOM     12  O   UNL     1      -0.715   3.712   0.000  0.00  0.00    -0.246 OA
ATOM     13  O   UNL     1       0.715   3.712   0.000  0.00  0.00    -0.246 OA
ENDBRANCH  10  11
ENDBRANCH   9  10
BRANCH  14  15
ATOM     15  C   UNL     1       0.000   0.825   0.000  0.00  0.00    +0.047 C 
BRANCH  15  16
ATOM     16  C   UNL     1       0.000   0.000   0.000  0.00  0.00    +0.053 C 
ATOM     17  N   UNL     1      -0.715  -0.412   0.000  0.00  0.00    -0.274 NA
ATOM     18  C   UNL     1      -0.715  -1.238   0.000  0.00  0.00    +0.130 C 
ATOM     19  C   UNL     1       0.000  -1.650   0.000  0.00  0.00    +0.053 C 
ATOM     20  C   UNL     1       0.715  -1.238   0.000  0.00  0.00    -0.019 A 
ATOM     21  C   UNL     1       0.715  -0.412   0.000  0.00  0.00    +0.009 A 
ATOM     22  C   UNL     1       1.429   0.000   0.000  0.00  0.00    -0.003 A 
ATOM     23  C   UNL     1       2.143  -0.412   0.000  0.00  0.00    -0.022 A 
ATOM     24  C   UNL     1       2.858   0.000   0.000  0.00  0.00    +0.031 C 
ATOM     25  C   UNL     1       2.143  -1.238   0.000  0.00  0.00    -0.005 A 
ATOM     26  C   UNL     1       1.429  -1.650   0.000  0.00  0.00    -0.004 A 
ENDBRANCH  15  16
ENDBRANCH  14  15
TORSDOF 5
