MODEL 1
REMARK VINA RESULT:     -12.3      0.000      0.000
REMARK  Name = 
REMARK  6 active torsions:
REMARK  status: ('A' for Active; 'I' for Inactive)
REMARK    1  A    between atoms: C_6  and  C_8
REMARK    2  A    between atoms: C_10  and  C_11
REMARK    3  A    between atoms: C_11  and  C_12
REMARK    4  A    between atoms: C_12  and  N_16
REMARK    5  A    between atoms: N_16  and  C_17
REMARK    6  A    between atoms: C_17  and  C_18
REMARK                            x       y       z     vdW  Elec       q    Type
REMARK                         _______ _______ _______ _____ _____    ______ ____
ROOT
ATOM     11  C   UNL     1      -4.214   2.386  24.645  0.00  0.00    +0.070 C 
ENDROOT
BRANCH  11  10
ATOM      8  C   UNL     1      -4.301   0.280  24.982  0.00  0.00    +0.177 A 
ATOM      9  C   UNL     1      -3.941   0.942  24.647  0.00  0.00    +0.058 A 
ATOM     10  C   UNL     1      -4.378   1.607  24.861  0.00  0.00    +0.102 A 
ATOM     24  N   UNL     1      -5.010   1.358  25.329  0.00  0.00    -0.081 NA
ATOM     25  O   UNL     1      -4.962   0.537  25.404  0.00  0.00    -0.354 OA
BRANCH   8   6
ATOM      1  O   UNL     1      -4.254  -2.185  23.536  0.00  0.00    -0.287 OA
ATOM      2  C   UNL     1      -4.022  -1.733  24.188  0.00  0.00    +0.196 A 
ATOM      3  C   UNL     1      -3.535  -2.063  24.765  0.00  0.00    +0.042 A 
ATOM      4  C   UNL     1      -3.303  -1.612  25.416  0.00  0.00    +0.003 A 
ATOM      5  C   UNL     1      -3.559  -0.831  25.488  0.00  0.00    +0.003 A 
ATOM      6  C   UNL     1      -4.046  -0.501  24.910  0.00  0.00    +0.040 A 
ATOM      7  C   UNL     1      -4.278  -0.952  24.259  0.00  0.00    +0.045 A 
ENDBRANCH   8   6
ENDBRANCH  11  10
BRANCH  11  12
ATOM     12  C   UNL     1      -4.317   2.996  25.190  0.00  0.00    +0.120 C 
ATOM     13  C   UNL     1      -4.419   3.607  25.737  0.00  0.00    +0.161 C 
ATOM     14  O   UNL     1      -5.234   3.580  25.612  0.00  0.00    -0.351 OA
ATOM     15  C   UNL     1      -5.132   2.971  25.067  0.00  0.00    +0.161 C 
BRANCH  12  16
ATOM     16  N   UNL     1      -3.501   3.022  25.314  0.00  0.00    -0.211 NA
BRANCH  16  17
ATOM     17  C   UNL     1      -3.128   3.747  25.445  0.00  0.00    +0.115 C 
BRANCH  17  18
ATOM     18  C   UNL     1      -2.305   3.796  25.418  0.00  0.00    -0.005 A 
ATOM     19  C   UNL     1      -1.943   4.398  24.984  0.00  0.00    -0.003 A 
ATOM     20  C   UNL     1      -1.120   4.449  24.956  0.00  0.00    -0.000 A 
ATOM     21  C   UNL     1      -0.659   3.898  25.361  0.00  0.00    -0.000 A 
ATOM     22  C   UNL     1      -1.021   3.296  25.795  0.00  0.00    -0.000 A 
ATOM     23  C   UNL     1      -1.844   3.246  25.822  0.00  0.00    -0.003 A 
ENDBRANCH  17  18
ENDBRANCH  16  17
ENDBRANCH  12  16
ENDBRANCH  11  12
TORSDOF 6
ENDMDL
MODEL 2
REMARK VINA RESULT:     -12.2      1.225      4.626
REMARK  Name = 
REMARK  6 active torsions:
REMARK  status: ('A' for Active; 'I' for Inactive)
REMARK    1  A    between atoms: C_6  and  C_8
REMARK    2  A    between atoms: C_10  and  C_11
REMARK    3  A    between atoms: C_11  and  C_12
REMARK    4  A    between atoms: C_12  and  N_16
REMARK    5  A    between atoms: N_16  and  C_17
REMARK    6  A    between atoms: C_17  and  C_18
REMARK                            x       y       z     vdW  Elec       q    Type
REMARK                         _______ _______ _______ _____ _____    ______ ____
ROOT
ATOM     11  C   UNL     1      -4.400   2.014  24.494  0.00  0.00    +0.070 C 
ENDROOT
BRANCH  11  10
ATOM      8  C   UNL     1      -2.879   3.348  25.175  0.00  0.00    +0.177 A 
ATOM      9  C   UNL     1      -3.145   2.761  24.660  0.00  0.00    +0.058 A 
ATOM     10  C   UNL     1      -3.921   2.574  24.865  0.00  0.00    +0.102 A 
ATOM     24  N   UNL     1      -4.136   3.044  25.507  0.00  0.00    -0.081 NA
ATOM     25  O   UNL     1      -3.492   3.523  25.699  0.00  0.00    -0.354 OA
BRANCH   8   6
ATOM      1  O   UNL     1      -1.244   5.689  25.040  0.00  0.00    -0.287 OA
ATOM      2  C   UNL     1      -1.315   4.868  25.100  0.00  0.00    +0.196 A 
ATOM      3  C   UNL     1      -0.639   4.400  25.154  0.00  0.00    +0.042 A 
ATOM      4  C   UNL     1      -0.710   3.579  25.215  0.00  0.00    +0.003 A 
ATOM      5  C   UNL     1      -1.457   3.229  25.222  0.00  0.00    +0.003 A 
ATOM      6  C   UNL     1      -2.133   3.699  25.168  0.00  0.00    +0.040 A 
ATOM      7  C   UNL     1      -2.062   4.518  25.107  0.00  0.00    +0.045 A 
ENDBRANCH   8   6
ENDBRANCH  11  10
BRANCH  11  12
ATOM     12  C   UNL     1      -4.979   1.615  24.924  0.00  0.00    +0.120 C 
ATOM     13  C   UNL     1      -5.560   1.217  25.355  0.00  0.00    +0.161 C 
ATOM     14  O   UNL     1      -6.064   1.865  25.276  0.00  0.00    -0.351 OA
ATOM     15  C   UNL     1      -5.484   2.264  24.845  0.00  0.00    +0.161 C 
BRANCH  12  16
ATOM     16  N   UNL     1      -4.476   0.967  25.003  0.00  0.00    -0.211 NA
BRANCH  16  17
ATOM     17  C   UNL     1      -4.769   0.203  24.897  0.00  0.00    +0.115 C 
BRANCH  17  18
ATOM     18  C   UNL     1      -4.251  -0.440  24.891  0.00  0.00    -0.005 A 
ATOM     19  C   UNL     1      -4.140  -0.872  24.197  0.00  0.00    -0.003 A 
ATOM     20  C   UNL     1      -3.622  -1.515  24.190  0.00  0.00    -0.000 A 
ATOM     21  C   UNL     1      -3.216  -1.724  24.877  0.00  0.00    -0.000 A 
ATOM     22  C   UNL     1      -3.327  -1.292  25.571  0.00  0.00    -0.000 A 
ATOM     23  C   UNL     1      -3.845  -0.649  25.577  0.00  0.00    -0.003 A 
ENDBRANCH  17  18
ENDBRANCH  16  17
ENDBRANCH  12  16
ENDBRANCH  11  12
TORSDOF 6
ENDMDL
