MODEL 1
REMARK VINA RESULT:     -12.0      0.000      0.000
REMARK  Name = 
REMARK  8 active torsions:
REMARK  status: ('A' for Active; 'I' for Inactive)
REMARK    1  A    between atoms: O_2  and  C_3
REMARK    2  A    between atoms: C_3  and  C_4
REMARK    3  A    between atoms: C_4  and  N_5
REMARK    4  A    between atoms: N_5  and  C_6
REMARK    5  A    between atoms: C_7  and  C_12
REMARK    6  A    between atoms: C_15  and  C_17
REMARK    7  A    between atoms: N_21  and  C_22
REMARK    8  A    between atoms: C_22  and  C_23
REMARK                            x       y       z     vdW  Elec       q    Type
REMARK                         _______ _______ _______ _____ _____    ______ ____
ROOT
ATOM     12  C   UNL     1      -2.823   3.020  24.528  0.00  0.00    +0.206 A 
ATOM     13  N   UNL     1      -3.144   2.920  23.775  0.00  0.00    -0.056 NA
ATOM     14  O   UNL     1      -3.838   2.480  23.849  0.00  0.00    -0.336 OA
ATOM     15  C   UNL     1      -3.946   2.308  24.649  0.00  0.00    +0.251 A 
ATOM     16  N   UNL     1      -3.319   2.642  25.069  0.00  0.00    -0.190 NA
ENDROOT
BRANCH  12   7
ATOM      6  C   UNL     1      -1.398   3.052  24.628  0.00  0.00    +0.151 A 
ATOM      7  C   UNL     1      -2.129   3.426  24.709  0.00  0.00    +0.072 A 
ATOM      8  C   UNL     1      -2.165   4.208  24.971  0.00  0.00    +0.008 A 
ATOM      9  C   UNL     1      -1.471   4.615  25.151  0.00  0.00    +0.021 A 
ATOM     10  C   UNL     1      -0.740   4.241  25.070  0.00  0.00    +0.100 A 
ATOM     11  N   UNL     1      -0.704   3.460  24.809  0.00  0.00    -0.228 NA
BRANCH   6   5
ATOM      5  N   UNL     1      -1.362   2.270  24.367  0.00  0.00    -0.218 NA
BRANCH   5   4
ATOM      4  C   UNL     1      -0.660   1.843  24.439  0.00  0.00    +0.146 C 
BRANCH   4   3
ATOM      3  C   UNL     1      -0.578   1.116  24.059  0.00  0.00    +0.166 C 
BRANCH   3   2
ATOM      1  C   UNL     1      -0.267  -0.278  24.113  0.00  0.00    +0.174 C 
ATOM      2  O   UNL     1      -0.419   0.436  24.498  0.00  0.00    -0.349 OA
ENDBRANCH   3   2
ENDBRANCH   4   3
ENDBRANCH   5   4
ENDBRANCH   6   5
ENDBRANCH  12   7
BRANCH  15  17
ATOM     17  C   UNL     1      -4.571   1.878  24.973  0.00  0.00    +0.138 C 
ATOM     18  C   UNL     1      -5.217   2.193  25.380  0.00  0.00    +0.027 C 
ATOM     19  C   UNL     1      -5.706   1.568  25.605  0.00  0.00    +0.019 C 
ATOM     20  C   UNL     1      -5.362   0.867  25.338  0.00  0.00    +0.073 C 
ATOM     21  N   UNL     1      -4.662   1.059  24.948  0.00  0.00    -0.263 NA
BRANCH  21  22
ATOM     22  C   UNL     1      -4.142   0.525  24.594  0.00  0.00    +0.101 C 
BRANCH  22  23
ATOM     23  C   UNL     1      -3.960  -0.185  24.972  0.00  0.00    +0.014 A 
ATOM     24  C   UNL     1      -3.783  -0.278  25.773  0.00  0.00    +0.096 A 
ATOM     25  N   UNL     1      -3.637  -1.077  25.911  0.00  0.00    -0.244 NA
ATOM     26  C   UNL     1      -3.724  -1.480  25.196  0.00  0.00    +0.081 A 
ATOM     27  C   UNL     1      -3.924  -0.928  24.616  0.00  0.00    +0.016 A 
ATOM     28  C   UNL     1      -4.047  -1.175  23.838  0.00  0.00    +0.001 A 
ATOM     29  C   UNL     1      -3.970  -1.972  23.641  0.00  0.00    +0.000 A 
ATOM     30  C   UNL     1      -3.770  -2.523  24.221  0.00  0.00    +0.002 A 
ATOM     31  C   UNL     1      -3.647  -2.278  24.999  0.00  0.00    +0.019 A 
ENDBRANCH  22  23
ENDBRANCH  21  22
ENDBRANCH  15  17
TORSDOF 8
ENDMDL
MODEL 2
REMARK VINA RESULT:     -11.7      1.147      4.277
REMARK  Name = 
REMARK  8 active torsions:
REMARK  status: ('A' for Active; 'I' for Inactive)
REMARK    1  A    between atoms: O_2  and  C_3
REMARK    2  A    between atoms: C_3  and  C_4
REMARK    3  A    between atoms: C_4  and  N_5
REMARK    4  A    between atoms: N_5  and  C_6
REMARK    5  A    between atoms: C_7  and  C_12
REMARK    6  A    between atoms: C_15  and  C_17
REMARK    7  A    between atoms: N_21  and  C_22
REMARK    8  A    between atoms: C_22  and  C_23
REMARK                            x       y       z     vdW  Elec       q    Type
REMARK                         _______ _______ _______ _____ _____    ______ ____
ROOT
ATOM     12  C   UNL     1      -3.626  -0.243  24.410  0.00  0.00    +0.206 A 
ATOM     13  N   UNL     1      -3.596   0.146  23.683  0.00  0.00    -0.056 NA
ATOM     14  O   UNL     1      -3.932   0.893  23.780  0.00  0.00    -0.336 OA
ATOM     15  C   UNL     1      -4.169   0.965  24.567  0.00  0.00    +0.251 A 
ATOM     16  N   UNL     1      -3.980   0.263  24.957  0.00  0.00    -0.190 NA
ENDROOT
BRANCH  12   7
ATOM      6  C   UNL     1      -2.538  -1.149  24.607  0.00  0.00    +0.151 A 
ATOM      7  C   UNL     1      -3.349  -1.005  24.562  0.00  0.00    +0.072 A 
ATOM      8  C   UNL     1      -3.885  -1.624  24.670  0.00  0.00    +0.008 A 
ATOM      9  C   UNL     1      -3.608  -2.386  24.823  0.00  0.00    +0.021 A 
ATOM     10  C   UNL     1      -2.797  -2.530  24.867  0.00  0.00    +0.100 A 
ATOM     11  N   UNL     1      -2.263  -1.912  24.760  0.00  0.00    -0.228 NA
BRANCH   6   5
ATOM      5  N   UNL     1      -2.003  -0.531  24.499  0.00  0.00    -0.218 NA
BRANCH   5   4
ATOM      4  C   UNL     1      -1.192  -0.681  24.504  0.00  0.00    +0.146 C 
BRANCH   4   3
ATOM      3  C   UNL     1      -0.661  -0.087  24.294  0.00  0.00    +0.166 C 
BRANCH   3   2
ATOM      1  C   UNL     1       0.513   0.283  23.568  0.00  0.00    +0.174 C 
ATOM      2  O   UNL     1       0.075  -0.284  23.977  0.00  0.00    -0.349 OA
ENDBRANCH   3   2
ENDBRANCH   4   3
ENDBRANCH   5   4
ENDBRANCH   6   5
ENDBRANCH  12   7
BRANCH  15  17
ATOM     17  C   UNL     1      -4.532   1.624  24.907  0.00  0.00    +0.138 C 
ATOM     18  C   UNL     1      -5.334   1.696  25.089  0.00  0.00    +0.027 C 
ATOM     19  C   UNL     1      -5.455   2.443  25.418  0.00  0.00    +0.019 C 
ATOM     20  C   UNL     1      -4.727   2.833  25.439  0.00  0.00    +0.073 C 
ATOM     21  N   UNL     1      -4.158   2.327  25.123  0.00  0.00    -0.263 NA
BRANCH  21  22
ATOM     22  C   UNL     1      -3.354   2.494  25.038  0.00  0.00    +0.101 C 
BRANCH  22  23
ATOM     23  C   UNL     1      -3.052   3.213  25.307  0.00  0.00    +0.014 A 
ATOM     24  C   UNL     1      -3.441   3.748  25.801  0.00  0.00    +0.096 A 
ATOM     25  N   UNL     1      -2.937   4.388  25.929  0.00  0.00    -0.244 NA
ATOM     26  C   UNL     1      -2.238   4.249  25.515  0.00  0.00    +0.081 A 
ATOM     27  C   UNL     1      -2.309   3.523  25.131  0.00  0.00    +0.016 A 
ATOM     28  C   UNL     1      -1.687   3.238  24.670  0.00  0.00    +0.001 A 
ATOM     29  C   UNL     1      -0.994   3.679  24.593  0.00  0.00    +0.000 A 
ATOM     30  C   UNL     1      -0.923   4.405  24.977  0.00  0.00    +0.002 A 
ATOM     31  C   UNL     1      -1.545   4.691  25.439  0.00  0.00    +0.019 A 
ENDBRANCH  22  23
ENDBRANCH  21  22
ENDBRANCH  15  17
TORSDOF 8
ENDMDL
MODEL 3
REMARK VINA RESULT:     -11.6      1.160      3.175
REMARK  Name = 
REMARK  8 active torsions:
REMARK  status: ('A' for Active; 'I' for Inactive)
REMARK    1  A    between atoms: O_2  and  C_3
REMARK    2  A    between atoms: C_3  and  C_4
REMARK    3  A    between atoms: C_4  and  N_5
REMARK    4  A    between atoms: N_5  and  C_6
REMARK    5  A    between atoms: C_7  and  C_12
REMARK    6  A    between atoms: C_15  and  C_17
REMARK    7  A    between atoms: N_21  and  C_22
REMARK    8  A    between atoms: C_22  and  C_23
REMARK                            x       y       z     vdW  Elec       q    Type
REMARK                         _______ _______ _______ _____ _____    ______ ____
ROOT
ATOM     12  C   UNL     1      -1.112   2.489  25.227  0.00  0.00    +0.206 A 
ATOM     13  N   UNL     1      -1.034   2.048  25.920  0.00  0.00    -0.056 NA
ATOM     14  O   UNL     1      -0.786   1.289  25.712  0.00  0.00    -0.336 OA
ATOM     15  C   UNL     1      -0.711   1.262  24.891  0.00  0.00    +0.251 A 
ATOM     16  N   UNL     1      -0.912   2.003  24.591  0.00  0.00    -0.190 NA
ENDROOT
BRANCH  12   7
ATOM      6  C   UNL     1      -2.151   3.467  25.147  0.00  0.00    +0.151 A 
ATOM      7  C   UNL     1      -1.349   3.278  25.179  0.00  0.00    +0.072 A 
ATOM      8  C   UNL     1      -0.782   3.878  25.165  0.00  0.00    +0.008 A 
ATOM      9  C   UNL     1      -1.019   4.667  25.118  0.00  0.00    +0.021 A 
ATOM     10  C   UNL     1      -1.821   4.856  25.085  0.00  0.00    +0.100 A 
ATOM     11  N   UNL     1      -2.386   4.256  25.099  0.00  0.00    -0.228 NA
BRANCH   6   5
ATOM      5  N   UNL     1      -2.717   2.867  25.161  0.00  0.00    -0.218 NA
BRANCH   5   4
ATOM      4  C   UNL     1      -3.510   3.045  25.017  0.00  0.00    +0.146 C 
BRANCH   4   3
ATOM      3  C   UNL     1      -4.095   2.490  25.190  0.00  0.00    +0.166 C 
BRANCH   3   2
ATOM      1  C   UNL     1      -5.492   2.212  25.075  0.00  0.00    +0.174 C 
ATOM      2  O   UNL     1      -4.781   2.458  24.735  0.00  0.00    -0.349 OA
ENDBRANCH   3   2
ENDBRANCH   4   3
ENDBRANCH   5   4
ENDBRANCH   6   5
ENDBRANCH  12   7
BRANCH  15  17
ATOM     17  C   UNL     1      -0.475   0.607  24.446  0.00  0.00    +0.138 C 
ATOM     18  C   UNL     1       0.216   0.548  23.998  0.00  0.00    +0.027 C 
ATOM     19  C   UNL     1       0.229  -0.198  23.647  0.00  0.00    +0.019 C 
ATOM     20  C   UNL     1      -0.454  -0.600  23.878  0.00  0.00    +0.073 C 
ATOM     21  N   UNL     1      -0.888  -0.103  24.372  0.00  0.00    -0.263 NA
BRANCH  21  22
ATOM     22  C   UNL     1      -1.610  -0.284  24.728  0.00  0.00    +0.101 C 
BRANCH  22  23
ATOM     23  C   UNL     1      -1.911  -1.050  24.684  0.00  0.00    +0.014 A 
ATOM     24  C   UNL     1      -1.485  -1.747  24.805  0.00  0.00    +0.096 A 
ATOM     25  N   UNL     1      -2.001  -2.382  24.707  0.00  0.00    -0.244 NA
ATOM     26  C   UNL     1      -2.746  -2.079  24.526  0.00  0.00    +0.081 A 
ATOM     27  C   UNL     1      -2.691  -1.256  24.512  0.00  0.00    +0.016 A 
ATOM     28  C   UNL     1      -3.358  -0.800  24.344  0.00  0.00    +0.001 A 
ATOM     29  C   UNL     1      -4.080  -1.167  24.190  0.00  0.00    +0.000 A 
ATOM     30  C   UNL     1      -4.136  -1.990  24.204  0.00  0.00    +0.002 A 
ATOM     31  C   UNL     1      -3.470  -2.446  24.372  0.00  0.00    +0.019 A 
ENDBRANCH  22  23
ENDBRANCH  21  22
ENDBRANCH  15  17
TORSDOF 8
ENDMDL
MODEL 4
REMARK VINA RESULT:     -11.1      1.349      3.053
REMARK  Name = 
REMARK  8 active torsions:
REMARK  status: ('A' for Active; 'I' for Inactive)
REMARK    1  A    between atoms: O_2  and  C_3
REMARK    2  A    between atoms: C_3  and  C_4
REMARK    3  A    between atoms: C_4  and  N_5
REMARK    4  A    between atoms: N_5  and  C_6
REMARK    5  A    between atoms: C_7  and  C_12
REMARK    6  A    between atoms: C_15  and  C_17
REMARK    7  A    between atoms: N_21  and  C_22
REMARK    8  A    between atoms: C_22  and  C_23
REMARK                            x       y       z     vdW  Elec       q    Type
REMARK                         _______ _______ _______ _____ _____    ______ ____
ROOT
ATOM     12  C   UNL     1      -3.327   2.153  24.355  0.00  0.00    +0.206 A 
ATOM     13  N   UNL     1      -3.228   2.110  23.537  0.00  0.00    -0.056 NA
ATOM     14  O   UNL     1      -2.593   1.605  23.383  0.00  0.00    -0.336 OA
ATOM     15  C   UNL     1      -2.301   1.337  24.106  0.00  0.00    +0.251 A 
ATOM     16  N   UNL     1      -2.754   1.675  24.707  0.00  0.00    -0.190 NA
ENDROOT
BRANCH  12   7
ATOM      6  C   UNL     1      -3.703   3.330  25.072  0.00  0.00    +0.151 A 
ATOM      7  C   UNL     1      -3.899   2.596  24.750  0.00  0.00    +0.072 A 
ATOM      8  C   UNL     1      -4.668   2.305  24.824  0.00  0.00    +0.008 A 
ATOM      9  C   UNL     1      -5.240   2.748  25.219  0.00  0.00    +0.021 A 
ATOM     10  C   UNL     1      -5.044   3.482  25.541  0.00  0.00    +0.100 A 
ATOM     11  N   UNL     1      -4.276   3.773  25.467  0.00  0.00    -0.228 NA
BRANCH   6   5
ATOM      5  N   UNL     1      -2.934   3.621  24.998  0.00  0.00    -0.218 NA
BRANCH   5   4
ATOM      4  C   UNL     1      -2.736   4.350  25.329  0.00  0.00    +0.146 C 
BRANCH   4   3
ATOM      3  C   UNL     1      -1.944   4.553  25.434  0.00  0.00    +0.166 C 
BRANCH   3   2
ATOM      1  C   UNL     1      -0.833   5.308  24.946  0.00  0.00    +0.174 C 
ATOM      2  O   UNL     1      -1.643   5.237  25.085  0.00  0.00    -0.349 OA
ENDBRANCH   3   2
ENDBRANCH   4   3
ENDBRANCH   5   4
ENDBRANCH   6   5
ENDBRANCH  12   7
BRANCH  15  17
ATOM     17  C   UNL     1      -1.665   0.821  24.211  0.00  0.00    +0.138 C 
ATOM     18  C   UNL     1      -0.868   1.005  24.105  0.00  0.00    +0.027 C 
ATOM     19  C   UNL     1      -0.426   0.328  24.269  0.00  0.00    +0.019 C 
ATOM     20  C   UNL     1      -0.950  -0.275  24.476  0.00  0.00    +0.073 C 
ATOM     21  N   UNL     1      -1.715   0.030  24.441  0.00  0.00    -0.263 NA
BRANCH  21  22
ATOM     22  C   UNL     1      -2.410  -0.384  24.605  0.00  0.00    +0.101 C 
BRANCH  22  23
ATOM     23  C   UNL     1      -2.406  -1.208  24.614  0.00  0.00    +0.014 A 
ATOM     24  C   UNL     1      -1.768  -1.688  24.826  0.00  0.00    +0.096 A 
ATOM     25  N   UNL     1      -2.007  -2.475  24.756  0.00  0.00    -0.244 NA
ATOM     26  C   UNL     1      -2.792  -2.481  24.502  0.00  0.00    +0.081 A 
ATOM     27  C   UNL     1      -3.038  -1.699  24.414  0.00  0.00    +0.016 A 
ATOM     28  C   UNL     1      -3.807  -1.534  24.164  0.00  0.00    +0.001 A 
ATOM     29  C   UNL     1      -4.329  -2.151  24.000  0.00  0.00    +0.000 A 
ATOM     30  C   UNL     1      -4.082  -2.934  24.088  0.00  0.00    +0.002 A 
ATOM     31  C   UNL     1      -3.314  -3.099  24.338  0.00  0.00    +0.019 A 
ENDBRANCH  22  23
ENDBRANCH  21  22
ENDBRANCH  15  17
TORSDOF 8
ENDMDL
MODEL 5
REMARK VINA RESULT:     -11.0      1.154      5.288
REMARK  Name = 
REMARK  8 active torsions:
REMARK  status: ('A' for Active; 'I' for Inactive)
REMARK    1  A    between atoms: O_2  and  C_3
REMARK    2  A    between atoms: C_3  and  C_4
REMARK    3  A    between atoms: C_4  and  N_5
REMARK    4  A    between atoms: N_5  and  C_6
REMARK    5  A    between atoms: C_7  and  C_12
REMARK    6  A    between atoms: C_15  and  C_17
REMARK    7  A    between atoms: N_21  and  C_22
REMARK    8  A    between atoms: C_22  and  C_23
REMARK                            x       y       z     vdW  Elec       q    Type
REMARK                         _______ _______ _______ _____ _____    ______ ____
ROOT
ATOM     12  C   UNL     1      -2.324  -0.583  24.865  0.00  0.00    +0.206 A 
ATOM     13  N   UNL     1      -2.089  -0.440  25.643  0.00  0.00    -0.056 NA
ATOM     14  O   UNL     1      -1.417   0.038  25.622  0.00  0.00    -0.336 OA
ATOM     15  C   UNL     1      -1.237   0.190  24.832  0.00  0.00    +0.251 A 
ATOM     16  N   UNL     1      -1.797  -0.194  24.363  0.00  0.00    -0.190 NA
ENDROOT
BRANCH  12   7
ATOM      6  C   UNL     1      -3.721  -0.693  24.584  0.00  0.00    +0.151 A 
ATOM      7  C   UNL     1      -2.972  -1.036  24.630  0.00  0.00    +0.072 A 
ATOM      8  C   UNL     1      -2.871  -1.833  24.442  0.00  0.00    +0.008 A 
ATOM      9  C   UNL     1      -3.519  -2.287  24.207  0.00  0.00    +0.021 A 
ATOM     10  C   UNL     1      -4.268  -1.944  24.161  0.00  0.00    +0.100 A 
ATOM     11  N   UNL     1      -4.368  -1.147  24.349  0.00  0.00    -0.228 NA
BRANCH   6   5
ATOM      5  N   UNL     1      -3.822   0.104  24.772  0.00  0.00    -0.218 NA
BRANCH   5   4
ATOM      4  C   UNL     1      -4.556   0.464  24.663  0.00  0.00    +0.146 C 
BRANCH   4   3
ATOM      3  C   UNL     1      -4.734   1.165  25.059  0.00  0.00    +0.166 C 
BRANCH   3   2
ATOM      1  C   UNL     1      -5.719   2.200  25.095  0.00  0.00    +0.174 C 
ATOM      2  O   UNL     1      -5.163   1.756  24.676  0.00  0.00    -0.349 OA
ENDBRANCH   3   2
ENDBRANCH   4   3
ENDBRANCH   5   4
ENDBRANCH   6   5
ENDBRANCH  12   7
BRANCH  15  17
ATOM     17  C   UNL     1      -0.606   0.646  24.557  0.00  0.00    +0.138 C 
ATOM     18  C   UNL     1       0.059   0.364  24.157  0.00  0.00    +0.027 C 
ATOM     19  C   UNL     1       0.546   1.007  23.987  0.00  0.00    +0.019 C 
ATOM     20  C   UNL     1       0.183   1.687  24.281  0.00  0.00    +0.073 C 
ATOM     21  N   UNL     1      -0.529   1.464  24.633  0.00  0.00    -0.263 NA
BRANCH  21  22
ATOM     22  C   UNL     1      -1.069   1.970  24.997  0.00  0.00    +0.101 C 
BRANCH  22  23
ATOM     23  C   UNL     1      -1.009   2.785  24.888  0.00  0.00    +0.014 A 
ATOM     24  C   UNL     1      -0.449   3.172  24.421  0.00  0.00    +0.096 A 
ATOM     25  N   UNL     1      -0.592   3.983  24.471  0.00  0.00    -0.244 NA
ATOM     26  C   UNL     1      -1.240   4.097  24.968  0.00  0.00    +0.081 A 
ATOM     27  C   UNL     1      -1.498   3.357  25.226  0.00  0.00    +0.016 A 
ATOM     28  C   UNL     1      -2.144   3.300  25.735  0.00  0.00    +0.001 A 
ATOM     29  C   UNL     1      -2.533   3.982  25.986  0.00  0.00    +0.000 A 
ATOM     30  C   UNL     1      -2.275   4.722  25.728  0.00  0.00    +0.002 A 
ATOM     31  C   UNL     1      -1.629   4.780  25.219  0.00  0.00    +0.019 A 
ENDBRANCH  22  23
ENDBRANCH  21  22
ENDBRANCH  15  17
TORSDOF 8
ENDMDL
MODEL 6
REMARK VINA RESULT:     -11.0      1.534      3.914
REMARK  Name = 
REMARK  8 active torsions:
REMARK  status: ('A' for Active; 'I' for Inactive)
REMARK    1  A    between atoms: O_2  and  C_3
REMARK    2  A    between atoms: C_3  and  C_4
REMARK    3  A    between atoms: C_4  and  N_5
REMARK    4  A    between atoms: N_5  and  C_6
REMARK    5  A    between atoms: C_7  and  C_12
REMARK    6  A    between atoms: C_15  and  C_17
REMARK    7  A    between atoms: N_21  and  C_22
REMARK    8  A    between atoms: C_22  and  C_23
REMARK                            x       y       z     vdW  Elec       q    Type
REMARK                         _______ _______ _______ _____ _____    ______ ____
ROOT
ATOM     12  C   UNL     1      -0.424   1.602  24.820  0.00  0.00    +0.206 A 
ATOM     13  N   UNL     1      -0.364   1.655  25.641  0.00  0.00    -0.056 NA
ATOM     14  O   UNL     1      -0.708   2.367  25.876  0.00  0.00    -0.336 OA
ATOM     15  C   UNL     1      -0.981   2.753  25.200  0.00  0.00    +0.251 A 
ATOM     16  N   UNL     1      -0.805   2.280  24.547  0.00  0.00    -0.190 NA
ENDROOT
BRANCH  12   7
ATOM      6  C   UNL     1      -0.529   0.246  24.379  0.00  0.00    +0.151 A 
ATOM      7  C   UNL     1      -0.150   0.978  24.354  0.00  0.00    +0.072 A 
ATOM      8  C   UNL     1       0.504   1.088  23.862  0.00  0.00    +0.008 A 
ATOM      9  C   UNL     1       0.778   0.464  23.396  0.00  0.00    +0.021 A 
ATOM     10  C   UNL     1       0.398  -0.268  23.421  0.00  0.00    +0.100 A 
ATOM     11  N   UNL     1      -0.255  -0.377  23.912  0.00  0.00    -0.228 NA
BRANCH   6   5
ATOM      5  N   UNL     1      -1.183   0.137  24.870  0.00  0.00    -0.218 NA
BRANCH   5   4
ATOM      4  C   UNL     1      -1.623  -0.560  24.824  0.00  0.00    +0.146 C 
BRANCH   4   3
ATOM      3  C   UNL     1      -2.197  -0.723  25.392  0.00  0.00    +0.166 C 
BRANCH   3   2
ATOM      1  C   UNL     1      -3.388  -1.413  25.778  0.00  0.00    +0.174 C 
ATOM      2  O   UNL     1      -2.858  -1.175  25.192  0.00  0.00    -0.349 OA
ENDBRANCH   3   2
ENDBRANCH   4   3
ENDBRANCH   5   4
ENDBRANCH   6   5
ENDBRANCH  12   7
BRANCH  15  17
ATOM     17  C   UNL     1      -1.363   3.484  25.179  0.00  0.00    +0.138 C 
ATOM     18  C   UNL     1      -0.995   4.223  25.170  0.00  0.00    +0.027 C 
ATOM     19  C   UNL     1      -1.584   4.801  25.150  0.00  0.00    +0.019 C 
ATOM     20  C   UNL     1      -2.315   4.419  25.147  0.00  0.00    +0.073 C 
ATOM     21  N   UNL     1      -2.179   3.606  25.165  0.00  0.00    -0.263 NA
BRANCH  21  22
ATOM     22  C   UNL     1      -2.756   3.017  25.168  0.00  0.00    +0.101 C 
BRANCH  22  23
ATOM     23  C   UNL     1      -3.528   3.197  25.397  0.00  0.00    +0.014 A 
ATOM     24  C   UNL     1      -3.760   3.848  25.848  0.00  0.00    +0.096 A 
ATOM     25  N   UNL     1      -4.578   3.812  25.945  0.00  0.00    -0.244 NA
ATOM     26  C   UNL     1      -4.852   3.140  25.554  0.00  0.00    +0.081 A 
ATOM     27  C   UNL     1      -4.202   2.760  25.215  0.00  0.00    +0.016 A 
ATOM     28  C   UNL     1      -4.311   2.064  24.785  0.00  0.00    +0.001 A 
ATOM     29  C   UNL     1      -5.067   1.748  24.693  0.00  0.00    +0.000 A 
ATOM     30  C   UNL     1      -5.716   2.128  25.032  0.00  0.00    +0.002 A 
ATOM     31  C   UNL     1      -5.609   2.824  25.462  0.00  0.00    +0.019 A 
ENDBRANCH  22  23
ENDBRANCH  21  22
ENDBRANCH  15  17
TORSDOF 8
ENDMDL
MODEL 7
REMARK VINA RESULT:     -10.6      1.805      3.892
REMARK  Name = 
REMARK  8 active torsions:
REMARK  status: ('A' for Active; 'I' for Inactive)
REMARK    1  A    between atoms: O_2  and  C_3
REMARK    2  A    between atoms: C_3  and  C_4
REMARK    3  A    between atoms: C_4  and  N_5
REMARK    4  A    between atoms: N_5  and  C_6
REMARK    5  A    between atoms: C_7  and  C_12
REMARK    6  A    between atoms: C_15  and  C_17
REMARK    7  A    between atoms: N_21  and  C_22
REMARK    8  A    between atoms: C_22  and  C_23
REMARK                            x       y       z     vdW  Elec       q    Type
REMARK                         _______ _______ _______ _____ _____    ______ ____
ROOT
ATOM     12  C   UNL     1      -1.285   0.843  24.282  0.00  0.00    +0.206 A 
ATOM     13  N   UNL     1      -1.428   1.119  23.518  0.00  0.00    -0.056 NA
ATOM     14  O   UNL     1      -1.600   1.925  23.567  0.00  0.00    -0.336 OA
ATOM     15  C   UNL     1      -1.563   2.146  24.361  0.00  0.00    +0.251 A 
ATOM     16  N   UNL     1      -1.369   1.477  24.803  0.00  0.00    -0.190 NA
ENDROOT
BRANCH  12   7
ATOM      6  C   UNL     1      -0.400  -0.276  24.201  0.00  0.00    +0.151 A 
ATOM      7  C   UNL     1      -1.093   0.068  24.488  0.00  0.00    +0.072 A 
ATOM      8  C   UNL     1      -1.594  -0.364  24.982  0.00  0.00    +0.008 A 
ATOM      9  C   UNL     1      -1.401  -1.139  25.188  0.00  0.00    +0.021 A 
ATOM     10  C   UNL     1      -0.709  -1.483  24.901  0.00  0.00    +0.100 A 
ATOM     11  N   UNL     1      -0.208  -1.051  24.408  0.00  0.00    -0.228 NA
BRANCH   6   5
ATOM      5  N   UNL     1       0.101   0.156  23.708  0.00  0.00    -0.218 NA
BRANCH   5   4
ATOM      4  C   UNL     1       0.769  -0.203  23.382  0.00  0.00    +0.146 C 
BRANCH   4   3
ATOM      3  C   UNL     1       1.368   0.261  23.057  0.00  0.00    +0.166 C 
BRANCH   3   2
ATOM      1  C   UNL     1       2.666   0.170  22.466  0.00  0.00    +0.174 C 
ATOM      2  O   UNL     1       1.874  -0.058  22.489  0.00  0.00    -0.349 OA
ENDBRANCH   3   2
ENDBRANCH   4   3
ENDBRANCH   5   4
ENDBRANCH   6   5
ENDBRANCH  12   7
BRANCH  15  17
ATOM     17  C   UNL     1      -1.698   2.903  24.661  0.00  0.00    +0.138 C 
ATOM     18  C   UNL     1      -1.118   3.435  24.912  0.00  0.00    +0.027 C 
ATOM     19  C   UNL     1      -1.497   4.121  25.169  0.00  0.00    +0.019 C 
ATOM     20  C   UNL     1      -2.310   4.013  25.077  0.00  0.00    +0.073 C 
ATOM     21  N   UNL     1      -2.434   3.261  24.763  0.00  0.00    -0.263 NA
BRANCH  21  22
ATOM     22  C   UNL     1      -3.165   2.925  24.583  0.00  0.00    +0.101 C 
BRANCH  22  23
ATOM     23  C   UNL     1      -3.835   3.142  25.011  0.00  0.00    +0.014 A 
ATOM     24  C   UNL     1      -3.923   3.830  25.459  0.00  0.00    +0.096 A 
ATOM     25  N   UNL     1      -4.678   3.823  25.792  0.00  0.00    -0.244 NA
ATOM     26  C   UNL     1      -5.056   3.131  25.551  0.00  0.00    +0.081 A 
ATOM     27  C   UNL     1      -4.536   2.710  25.068  0.00  0.00    +0.016 A 
ATOM     28  C   UNL     1      -4.767   1.988  24.744  0.00  0.00    +0.001 A 
ATOM     29  C   UNL     1      -5.518   1.687  24.901  0.00  0.00    +0.000 A 
ATOM     30  C   UNL     1      -6.039   2.107  25.383  0.00  0.00    +0.002 A 
ATOM     31  C   UNL     1      -5.808   2.829  25.709  0.00  0.00    +0.019 A 
ENDBRANCH  22  23
ENDBRANCH  21  22
ENDBRANCH  15  17
TORSDOF 8
ENDMDL
MODEL 8
REMARK VINA RESULT:     -10.4      1.385      3.628
REMARK  Name = 
REMARK  8 active torsions:
REMARK  status: ('A' for Active; 'I' for Inactive)
REMARK    1  A    between atoms: O_2  and  C_3
REMARK    2  A    between atoms: C_3  and  C_4
REMARK    3  A    between atoms: C_4  and  N_5
REMARK    4  A    between atoms: N_5  and  C_6
REMARK    5  A    between atoms: C_7  and  C_12
REMARK    6  A    between atoms: C_15  and  C_17
REMARK    7  A    between atoms: N_21  and  C_22
REMARK    8  A    between atoms: C_22  and  C_23
REMARK                            x       y       z     vdW  Elec       q    Type
REMARK                         _______ _______ _______ _____ _____    ______ ____
ROOT
ATOM     12  C   UNL     1      -1.113   0.081  24.476  0.00  0.00    +0.206 A 
ATOM     13  N   UNL     1      -1.240   0.059  25.291  0.00  0.00    -0.056 NA
ATOM     14  O   UNL     1      -2.033  -0.129  25.420  0.00  0.00    -0.336 OA
ATOM     15  C   UNL     1      -2.395  -0.222  24.685  0.00  0.00    +0.251 A 
ATOM     16  N   UNL     1      -1.827  -0.093  24.101  0.00  0.00    -0.190 NA
ENDROOT
BRANCH  12   7
ATOM      6  C   UNL     1      -0.106   1.020  24.094  0.00  0.00    +0.151 A 
ATOM      7  C   UNL     1      -0.397   0.248  24.102  0.00  0.00    +0.072 A 
ATOM      8  C   UNL     1       0.028  -0.357  23.737  0.00  0.00    +0.008 A 
ATOM      9  C   UNL     1       0.745  -0.190  23.363  0.00  0.00    +0.021 A 
ATOM     10  C   UNL     1       1.036   0.581  23.354  0.00  0.00    +0.100 A 
ATOM     11  N   UNL     1       0.611   1.186  23.720  0.00  0.00    -0.228 NA
BRANCH   6   5
ATOM      5  N   UNL     1      -0.531   1.626  24.459  0.00  0.00    -0.218 NA
BRANCH   5   4
ATOM      4  C   UNL     1      -0.283   2.409  24.382  0.00  0.00    +0.146 C 
BRANCH   4   3
ATOM      3  C   UNL     1      -0.628   2.998  24.844  0.00  0.00    +0.166 C 
BRANCH   3   2
ATOM      1  C   UNL     1      -0.788   4.400  25.069  0.00  0.00    +0.174 C 
ATOM      2  O   UNL     1      -0.698   3.765  24.549  0.00  0.00    -0.349 OA
ENDBRANCH   3   2
ENDBRANCH   4   3
ENDBRANCH   5   4
ENDBRANCH   6   5
ENDBRANCH  12   7
BRANCH  15  17
ATOM     17  C   UNL     1      -3.188  -0.413  24.555  0.00  0.00    +0.138 C 
ATOM     18  C   UNL     1      -3.483  -1.162  24.371  0.00  0.00    +0.027 C 
ATOM     19  C   UNL     1      -4.302  -1.100  24.289  0.00  0.00    +0.019 C 
ATOM     20  C   UNL     1      -4.512  -0.313  24.422  0.00  0.00    +0.073 C 
ATOM     21  N   UNL     1      -3.825   0.111  24.586  0.00  0.00    -0.263 NA
BRANCH  21  22
ATOM     22  C   UNL     1      -3.780   0.918  24.752  0.00  0.00    +0.101 C 
BRANCH  22  23
ATOM     23  C   UNL     1      -4.445   1.319  25.030  0.00  0.00    +0.014 A 
ATOM     24  C   UNL     1      -5.133   0.971  25.326  0.00  0.00    +0.096 A 
ATOM     25  N   UNL     1      -5.652   1.575  25.539  0.00  0.00    -0.244 NA
ATOM     26  C   UNL     1      -5.287   2.295  25.375  0.00  0.00    +0.081 A 
ATOM     27  C   UNL     1      -4.541   2.137  25.060  0.00  0.00    +0.016 A 
ATOM     28  C   UNL     1      -4.046   2.760  24.841  0.00  0.00    +0.001 A 
ATOM     29  C   UNL     1      -4.296   3.539  24.937  0.00  0.00    +0.000 A 
ATOM     30  C   UNL     1      -5.042   3.698  25.252  0.00  0.00    +0.002 A 
ATOM     31  C   UNL     1      -5.538   3.076  25.471  0.00  0.00    +0.019 A 
ENDBRANCH  22  23
ENDBRANCH  21  22
ENDBRANCH  15  17
TORSDOF 8
ENDMDL
MODEL 9
REMARK VINA RESULT:     -10.4      1.157      3.732
REMARK  Name = 
REMARK  8 active torsions:
REMARK  status: ('A' for Active; 'I' for Inactive)
REMARK    1  A    between atoms: O_2  and  C_3
REMARK    2  A    between atoms: C_3  and  C_4
REMARK    3  A    between atoms: C_4  and  N_5
REMARK    4  A    between atoms: N_5  and  C_6
REMARK    5  A    between atoms: C_7  and  C_12
REMARK    6  A    between atoms: C_15  and  C_17
REMARK    7  A    between atoms: N_21  and  C_22
REMARK    8  A    between atoms: C_22  and  C_23
REMARK                            x       y       z     vdW  Elec       q    Type
REMARK                         _______ _______ _______ _____ _____    ______ ____
ROOT
ATOM     12  C   UNL     1      -3.764   2.738  24.760  0.00  0.00    +0.206 A 
ATOM     13  N   UNL     1      -3.566   2.890  23.974  0.00  0.00    -0.056 NA
ATOM     14  O   UNL     1      -2.746   2.979  23.929  0.00  0.00    -0.336 OA
ATOM     15  C   UNL     1      -2.439   2.881  24.688  0.00  0.00    +0.251 A 
ATOM     16  N   UNL     1      -3.067   2.733  25.202  0.00  0.00    -0.190 NA
ENDROOT
BRANCH  12   7
ATOM      6  C   UNL     1      -4.874   1.869  24.992  0.00  0.00    +0.151 A 
ATOM      7  C   UNL     1      -4.525   2.614  25.052  0.00  0.00    +0.072 A 
ATOM      8  C   UNL     1      -4.937   3.236  25.405  0.00  0.00    +0.008 A 
ATOM      9  C   UNL     1      -5.699   3.112  25.698  0.00  0.00    +0.021 A 
ATOM     10  C   UNL     1      -6.048   2.367  25.637  0.00  0.00    +0.100 A 
ATOM     11  N   UNL     1      -5.636   1.746  25.285  0.00  0.00    -0.228 NA
BRANCH   6   5
ATOM      5  N   UNL     1      -4.462   1.248  24.639  0.00  0.00    -0.218 NA
BRANCH   5   4
ATOM      4  C   UNL     1      -4.747   0.476  24.699  0.00  0.00    +0.146 C 
BRANCH   4   3
ATOM      3  C   UNL     1      -4.426  -0.120  24.229  0.00  0.00    +0.166 C 
BRANCH   3   2
ATOM      1  C   UNL     1      -4.277  -1.518  23.973  0.00  0.00    +0.174 C 
ATOM      2  O   UNL     1      -4.415  -0.899  24.501  0.00  0.00    -0.349 OA
ENDBRANCH   3   2
ENDBRANCH   4   3
ENDBRANCH   5   4
ENDBRANCH   6   5
ENDBRANCH  12   7
BRANCH  15  17
ATOM     17  C   UNL     1      -1.642   2.924  24.898  0.00  0.00    +0.138 C 
ATOM     18  C   UNL     1      -1.202   3.617  24.994  0.00  0.00    +0.027 C 
ATOM     19  C   UNL     1      -0.433   3.403  25.204  0.00  0.00    +0.019 C 
ATOM     20  C   UNL     1      -0.398   2.579  25.237  0.00  0.00    +0.073 C 
ATOM     21  N   UNL     1      -1.144   2.284  25.048  0.00  0.00    -0.263 NA
BRANCH  21  22
ATOM     22  C   UNL     1      -1.356   1.487  25.016  0.00  0.00    +0.101 C 
BRANCH  22  23
ATOM     23  C   UNL     1      -0.848   0.940  24.666  0.00  0.00    +0.014 A 
ATOM     24  C   UNL     1      -0.317   1.093  24.053  0.00  0.00    +0.096 A 
ATOM     25  N   UNL     1       0.078   0.391  23.876  0.00  0.00    -0.244 NA
ATOM     26  C   UNL     1      -0.209  -0.196  24.379  0.00  0.00    +0.081 A 
ATOM     27  C   UNL     1      -0.781   0.143  24.867  0.00  0.00    +0.016 A 
ATOM     28  C   UNL     1      -1.166  -0.319  25.432  0.00  0.00    +0.001 A 
ATOM     29  C   UNL     1      -0.981  -1.118  25.509  0.00  0.00    +0.000 A 
ATOM     30  C   UNL     1      -0.409  -1.457  25.020  0.00  0.00    +0.002 A 
ATOM     31  C   UNL     1      -0.022  -0.997  24.455  0.00  0.00    +0.019 A 
ENDBRANCH  22  23
ENDBRANCH  21  22
ENDBRANCH  15  17
TORSDOF 8
ENDMDL
MODEL 10
REMARK VINA RESULT:     -10.3      1.256      3.459
REMARK  Name = 
REMARK  8 active torsions:
REMARK  status: ('A' for Active; 'I' for Inactive)
REMARK    1  A    between atoms: O_2  and  C_3
REMARK    2  A    between atoms: C_3  and  C_4
REMARK    3  A    between atoms: C_4  and  N_5
REMARK    4  A    between atoms: N_5  and  C_6
REMARK    5  A    between atoms: C_7  and  C_12
REMARK    6  A    between atoms: C_15  and  C_17
REMARK    7  A    between atoms: N_21  and  C_22
REMARK    8  A    between atoms: C_22  and  C_23
REMARK                            x       y       z     vdW  Elec       q    Type
REMARK                         _______ _______ _______ _____ _____    ______ ____
ROOT
ATOM     12  C   UNL     1      -4.380   1.491  24.666  0.00  0.00    +0.206 A 
ATOM     13  N   UNL     1      -4.137   1.444  23.879  0.00  0.00    -0.056 NA
ATOM     14  O   UNL     1      -3.824   0.690  23.753  0.00  0.00    -0.336 OA
ATOM     15  C   UNL     1      -3.875   0.273  24.463  0.00  0.00    +0.251 A 
ATOM     16  N   UNL     1      -4.219   0.767  25.027  0.00  0.00    -0.190 NA
ENDROOT
BRANCH  12   7
ATOM      6  C   UNL     1      -4.266   2.810  25.203  0.00  0.00    +0.151 A 
ATOM      7  C   UNL     1      -4.725   2.147  25.027  0.00  0.00    +0.072 A 
ATOM      8  C   UNL     1      -5.529   2.141  25.213  0.00  0.00    +0.008 A 
ATOM      9  C   UNL     1      -5.874   2.797  25.574  0.00  0.00    +0.021 A 
ATOM     10  C   UNL     1      -5.415   3.460  25.750  0.00  0.00    +0.100 A 
ATOM     11  N   UNL     1      -4.612   3.466  25.565  0.00  0.00    -0.228 NA
BRANCH   6   5
ATOM      5  N   UNL     1      -3.462   2.817  25.018  0.00  0.00    -0.218 NA
BRANCH   5   4
ATOM      4  C   UNL     1      -2.991   3.455  25.245  0.00  0.00    +0.146 C 
BRANCH   4   3
ATOM      3  C   UNL     1      -2.197   3.480  25.024  0.00  0.00    +0.166 C 
BRANCH   3   2
ATOM      1  C   UNL     1      -0.943   4.164  25.057  0.00  0.00    +0.174 C 
ATOM      2  O   UNL     1      -1.687   4.020  25.383  0.00  0.00    -0.349 OA
ENDBRANCH   3   2
ENDBRANCH   4   3
ENDBRANCH   5   4
ENDBRANCH   6   5
ENDBRANCH  12   7
BRANCH  15  17
ATOM     17  C   UNL     1      -3.626  -0.504  24.587  0.00  0.00    +0.138 C 
ATOM     18  C   UNL     1      -4.109  -1.174  24.586  0.00  0.00    +0.027 C 
ATOM     19  C   UNL     1      -3.632  -1.832  24.732  0.00  0.00    +0.019 C 
ATOM     20  C   UNL     1      -2.856  -1.568  24.824  0.00  0.00    +0.073 C 
ATOM     21  N   UNL     1      -2.852  -0.748  24.735  0.00  0.00    -0.263 NA
BRANCH  21  22
ATOM     22  C   UNL     1      -2.191  -0.258  24.784  0.00  0.00    +0.101 C 
BRANCH  22  23
ATOM     23  C   UNL     1      -1.437  -0.570  24.667  0.00  0.00    +0.014 A 
ATOM     24  C   UNL     1      -1.171  -1.308  24.926  0.00  0.00    +0.096 A 
ATOM     25  N   UNL     1      -0.386  -1.393  24.689  0.00  0.00    -0.244 NA
ATOM     26  C   UNL     1      -0.165  -0.710  24.285  0.00  0.00    +0.081 A 
ATOM     27  C   UNL     1      -0.815  -0.201  24.271  0.00  0.00    +0.016 A 
ATOM     28  C   UNL     1      -0.755   0.533  23.899  0.00  0.00    +0.001 A 
ATOM     29  C   UNL     1      -0.047   0.759  23.542  0.00  0.00    +0.000 A 
ATOM     30  C   UNL     1       0.602   0.250  23.556  0.00  0.00    +0.002 A 
ATOM     31  C   UNL     1       0.544  -0.484  23.927  0.00  0.00    +0.019 A 
ENDBRANCH  22  23
ENDBRANCH  21  22
ENDBRANCH  15  17
TORSDOF 8
ENDMDL
