MODEL 1
REMARK VINA RESULT:     -17.4      0.000      0.000
REMARK  Name = 
REMARK  3 active torsions:
REMARK  status: ('A' for Active; 'I' for Inactive)
REMARK    1  A    between atoms: C_5  and  C_8
REMARK    2  A    between atoms: C_19  and  N_20
REMARK    3  A    between atoms: C_21  and  C_23
REMARK                            x       y       z     vdW  Elec       q    Type
REMARK                         _______ _______ _______ _____ _____    ______ ____
ROOT
ATOM      8  C   UNL     1      -2.064   1.893  24.491  0.00  0.00    +0.249 C 
ATOM      9  O   UNL     1      -1.221   2.126  24.416  0.00  0.00    -0.270 OA
ATOM     10  N   UNL     1      -2.394   2.604  24.784  0.00  0.00    -0.276 N 
ATOM     11  C   UNL     1      -2.297   3.397  25.027  0.00  0.00    +0.096 C 
ATOM     12  C   UNL     1      -3.232   3.612  25.266  0.00  0.00    +0.043 C 
ATOM     13  C   UNL     1      -3.938   3.943  25.501  0.00  0.00    +0.011 C 
ATOM     14  C   UNL     1      -3.710   3.325  25.257  0.00  0.00    +0.058 C 
ATOM     15  C   UNL     1      -2.802   3.133  25.031  0.00  0.00    +0.099 C 
ATOM     16  C   UNL     1      -4.005   2.485  25.033  0.00  0.00    +0.041 A 
ATOM     17  C   UNL     1      -4.696   2.034  25.009  0.00  0.00    +0.014 A 
ATOM     18  C   UNL     1      -4.669   1.252  24.747  0.00  0.00    +0.023 A 
ATOM     19  C   UNL     1      -3.951   0.921  24.509  0.00  0.00    +0.130 A 
ATOM     29  C   UNL     1      -3.261   1.372  24.534  0.00  0.00    +0.276 A 
ATOM     30  O   UNL     1      -2.267   1.205  24.301  0.00  0.00    -0.266 OA
ATOM     31  N   UNL     1      -3.288   2.153  24.796  0.00  0.00    -0.298 N 
ATOM     32  C   UNL     1      -3.531   2.731  25.030  0.00  0.00    +0.110 C 
ENDROOT
BRANCH   8   5
ATOM      1  F   UNL     1      -5.007  -0.675  24.247  0.00  0.00    -0.204 F 
ATOM      2  C   UNL     1      -4.263  -0.021  24.225  0.00  0.00    +0.140 A 
ATOM      3  C   UNL     1      -3.844   0.305  24.954  0.00  0.00    +0.030 A 
ATOM      4  C   UNL     1      -3.142   0.915  25.058  0.00  0.00    +0.007 A 
ATOM      5  C   UNL     1      -2.773   1.276  24.415  0.00  0.00    +0.054 A 
ATOM      6  C   UNL     1      -3.019   1.103  23.647  0.00  0.00    +0.007 A 
ATOM      7  C   UNL     1      -3.636   0.569  23.522  0.00  0.00    +0.030 A 
ENDBRANCH   8   5
BRANCH  19  20
ATOM     20  N   UNL     1      -3.826   0.157  24.235  0.00  0.00    -0.171 NA
ATOM     21  C   UNL     1      -4.044  -0.357  25.065  0.00  0.00    +0.269 C 
ATOM     22  O   UNL     1      -4.317  -0.316  25.975  0.00  0.00    -0.268 OA
BRANCH  21  23
ATOM     23  C   UNL     1      -3.890  -1.251  24.720  0.00  0.00    +0.055 A 
ATOM     24  C   UNL     1      -4.141  -1.574  24.004  0.00  0.00    +0.005 A 
ATOM     25  C   UNL     1      -3.949  -2.354  23.813  0.00  0.00    +0.000 A 
ATOM     26  C   UNL     1      -3.506  -2.810  24.340  0.00  0.00    +0.000 A 
ATOM     27  C   UNL     1      -3.256  -2.486  25.056  0.00  0.00    +0.000 A 
ATOM     28  C   UNL     1      -3.448  -1.707  25.246  0.00  0.00    +0.005 A 
ENDBRANCH  21  23
ENDBRANCH  19  20
TORSDOF 3
ENDMDL
MODEL 2
REMARK VINA RESULT:     -17.3      1.040      1.710
REMARK  Name = 
REMARK  3 active torsions:
REMARK  status: ('A' for Active; 'I' for Inactive)
REMARK    1  A    between atoms: C_5  and  C_8
REMARK    2  A    between atoms: C_19  and  N_20
REMARK    3  A    between atoms: C_21  and  C_23
REMARK                            x       y       z     vdW  Elec       q    Type
REMARK                         _______ _______ _______ _____ _____    ______ ____
ROOT
ATOM      8  C   UNL     1      -5.166   2.103  24.954  0.00  0.00    +0.249 C 
ATOM      9  O   UNL     1      -5.980   2.414  25.066  0.00  0.00    -0.270 OA
ATOM     10  N   UNL     1      -4.715   2.770  25.181  0.00  0.00    -0.276 N 
ATOM     11  C   UNL     1      -4.682   3.559  25.453  0.00  0.00    +0.096 C 
ATOM     12  C   UNL     1      -3.701   3.680  25.489  0.00  0.00    +0.043 C 
ATOM     13  C   UNL     1      -2.933   3.936  25.573  0.00  0.00    +0.011 C 
ATOM     14  C   UNL     1      -3.266   3.351  25.374  0.00  0.00    +0.058 C 
ATOM     15  C   UNL     1      -4.215   3.250  25.344  0.00  0.00    +0.099 C 
ATOM     16  C   UNL     1      -3.107   2.496  25.078  0.00  0.00    +0.041 A 
ATOM     17  C   UNL     1      -2.484   1.986  24.899  0.00  0.00    +0.014 A 
ATOM     18  C   UNL     1      -2.641   1.220  24.635  0.00  0.00    +0.023 A 
ATOM     19  C   UNL     1      -3.421   0.964  24.552  0.00  0.00    +0.130 A 
ATOM     29  C   UNL     1      -4.044   1.474  24.731  0.00  0.00    +0.276 A 
ATOM     30  O   UNL     1      -5.076   1.407  24.714  0.00  0.00    -0.266 OA
ATOM     31  N   UNL     1      -3.887   2.240  24.994  0.00  0.00    -0.298 N 
ATOM     32  C   UNL     1      -3.545   2.785  25.180  0.00  0.00    +0.110 C 
ENDROOT
BRANCH   8   5
ATOM      1  F   UNL     1      -2.614  -0.672  23.907  0.00  0.00    -0.204 F 
ATOM      2  C   UNL     1      -3.265  -0.007  24.247  0.00  0.00    +0.140 A 
ATOM      3  C   UNL     1      -3.579   0.693  23.773  0.00  0.00    +0.030 A 
ATOM      4  C   UNL     1      -4.185   1.375  23.982  0.00  0.00    +0.007 A 
ATOM      5  C   UNL     1      -4.553   1.427  24.718  0.00  0.00    +0.054 A 
ATOM      6  C   UNL     1      -4.393   0.867  25.301  0.00  0.00    +0.007 A 
ATOM      7  C   UNL     1      -3.863   0.252  25.147  0.00  0.00    +0.030 A 
ENDBRANCH   8   5
BRANCH  19  20
ATOM     20  N   UNL     1      -3.675   0.225  24.298  0.00  0.00    -0.171 NA
ATOM     21  C   UNL     1      -3.183  -0.354  24.949  0.00  0.00    +0.269 C 
ATOM     22  O   UNL     1      -2.586  -0.387  25.688  0.00  0.00    -0.268 OA
BRANCH  21  23
ATOM     23  C   UNL     1      -3.496  -1.216  24.633  0.00  0.00    +0.055 A 
ATOM     24  C   UNL     1      -3.943  -1.384  23.960  0.00  0.00    +0.005 A 
ATOM     25  C   UNL     1      -4.153  -2.164  23.789  0.00  0.00    +0.000 A 
ATOM     26  C   UNL     1      -3.916  -2.774  24.291  0.00  0.00    +0.000 A 
ATOM     27  C   UNL     1      -3.470  -2.606  24.963  0.00  0.00    +0.000 A 
ATOM     28  C   UNL     1      -3.259  -1.827  25.134  0.00  0.00    +0.005 A 
ENDBRANCH  21  23
ENDBRANCH  19  20
TORSDOF 3
ENDMDL
MODEL 3
REMARK VINA RESULT:     -16.8      1.127      3.797
REMARK  Name = 
REMARK  3 active torsions:
REMARK  status: ('A' for Active; 'I' for Inactive)
REMARK    1  A    between atoms: C_5  and  C_8
REMARK    2  A    between atoms: C_19  and  N_20
REMARK    3  A    between atoms: C_21  and  C_23
REMARK                            x       y       z     vdW  Elec       q    Type
REMARK                         _______ _______ _______ _____ _____    ______ ____
ROOT
ATOM      8  C   UNL     1      -2.094  -0.587  25.361  0.00  0.00    +0.249 C 
ATOM      9  O   UNL     1      -1.370  -0.770  25.824  0.00  0.00    -0.270 OA
ATOM     10  N   UNL     1      -2.378  -1.359  25.209  0.00  0.00    -0.276 N 
ATOM     11  C   UNL     1      -2.296  -2.187  25.290  0.00  0.00    +0.096 C 
ATOM     12  C   UNL     1      -3.098  -2.482  24.794  0.00  0.00    +0.043 C 
ATOM     13  C   UNL     1      -3.705  -2.881  24.425  0.00  0.00    +0.011 C 
ATOM     14  C   UNL     1      -3.508  -2.215  24.526  0.00  0.00    +0.058 C 
ATOM     15  C   UNL     1      -2.729  -1.946  25.008  0.00  0.00    +0.099 C 
ATOM     16  C   UNL     1      -3.761  -1.352  24.336  0.00  0.00    +0.041 A 
ATOM     17  C   UNL     1      -4.352  -0.928  23.948  0.00  0.00    +0.014 A 
ATOM     18  C   UNL     1      -4.328  -0.104  23.935  0.00  0.00    +0.023 A 
ATOM     19  C   UNL     1      -3.712   0.297  24.310  0.00  0.00    +0.130 A 
ATOM     29  C   UNL     1      -3.120  -0.126  24.698  0.00  0.00    +0.276 A 
ATOM     30  O   UNL     1      -2.267   0.122  25.227  0.00  0.00    -0.266 OA
ATOM     31  N   UNL     1      -3.144  -0.951  24.711  0.00  0.00    -0.298 N 
ATOM     32  C   UNL     1      -3.354  -1.577  24.601  0.00  0.00    +0.110 C 
ENDROOT
BRANCH   8   5
ATOM      1  F   UNL     1      -4.662   1.879  23.737  0.00  0.00    -0.204 F 
ATOM      2  C   UNL     1      -3.959   1.275  24.087  0.00  0.00    +0.140 A 
ATOM      3  C   UNL     1      -4.042   0.764  24.825  0.00  0.00    +0.030 A 
ATOM      4  C   UNL     1      -3.458   0.164  25.246  0.00  0.00    +0.007 A 
ATOM      5  C   UNL     1      -2.701   0.011  24.957  0.00  0.00    +0.054 A 
ATOM      6  C   UNL     1      -2.434   0.389  24.276  0.00  0.00    +0.007 A 
ATOM      7  C   UNL     1      -2.924   0.923  23.881  0.00  0.00    +0.030 A 
ENDBRANCH   8   5
BRANCH  19  20
ATOM     20  N   UNL     1      -3.603   1.110  24.350  0.00  0.00    -0.171 NA
ATOM     21  C   UNL     1      -4.424   1.365  24.862  0.00  0.00    +0.269 C 
ATOM     22  O   UNL     1      -5.218   1.063  25.288  0.00  0.00    -0.268 OA
BRANCH  21  23
ATOM     23  C   UNL     1      -4.275   2.323  24.897  0.00  0.00    +0.055 A 
ATOM     24  C   UNL     1      -3.915   2.806  24.334  0.00  0.00    +0.005 A 
ATOM     25  C   UNL     1      -3.842   3.617  24.473  0.00  0.00    +0.000 A 
ATOM     26  C   UNL     1      -4.130   3.943  25.175  0.00  0.00    +0.000 A 
ATOM     27  C   UNL     1      -4.490   3.459  25.737  0.00  0.00    +0.000 A 
ATOM     28  C   UNL     1      -4.563   2.649  25.598  0.00  0.00    +0.005 A 
ENDBRANCH  21  23
ENDBRANCH  19  20
TORSDOF 3
ENDMDL
