MODEL 1
REMARK VINA RESULT:      -8.1      0.000      0.000
REMARK  Name = 
REMARK  8 active torsions:
REMARK  status: ('A' for Active; 'I' for Inactive)
REMARK    1  A    between atoms: O_2  and  C_3
REMARK    2  A    between atoms: C_3  and  C_5
REMARK    3  A    between atoms: C_10  and  C_11
REMARK    4  A    between atoms: C_11  and  C_12
REMARK    5  A    between atoms: C_14  and  C_15
REMARK    6  A    between atoms: C_18  and  C_19
REMARK    7  A    between atoms: C_19  and  N_20
REMARK    8  A    between atoms: N_20  and  C_21
REMARK                            x       y       z     vdW  Elec       q    Type
REMARK                         _______ _______ _______ _____ _____    ______ ____
ROOT
ATOM     12  C   UNL     1      -2.336  -0.116  24.628  0.00  0.00    +0.026 C 
ATOM     13  C   UNL     1      -2.213   0.624  24.285  0.00  0.00    +0.005 C 
ATOM     14  C   UNL     1      -1.484   0.804  23.942  0.00  0.00    +0.006 C 
ATOM     18  C   UNL     1      -0.879   0.244  23.942  0.00  0.00    +0.039 C 
ATOM     30  C   UNL     1      -1.001  -0.496  24.285  0.00  0.00    -0.033 C 
ATOM     31  C   UNL     1      -1.729  -0.676  24.629  0.00  0.00    -0.048 C 
ATOM     32  C   UNL     1      -1.852  -1.416  24.972  0.00  0.00    +0.026 C 
ENDROOT
BRANCH  14  15
ATOM     15  C   UNL     1      -1.362   1.544  23.598  0.00  0.00    +0.000 C 
ATOM     16  C   UNL     1      -1.599   1.682  22.820  0.00  0.00    +0.000 C 
ATOM     17  C   UNL     1      -1.002   2.147  24.033  0.00  0.00    +0.000 C 
ENDBRANCH  14  15
BRANCH  12  11
ATOM     11  C   UNL     1      -3.063  -0.296  24.972  0.00  0.00    +0.070 C 
BRANCH  11  10
ATOM      5  C   UNL     1      -5.383   2.353  25.399  0.00  0.00    +0.077 A 
ATOM      6  C   UNL     1      -4.653   2.066  25.652  0.00  0.00    +0.027 A 
ATOM      7  C   UNL     1      -4.355   1.363  25.340  0.00  0.00    +0.100 A 
ATOM      8  C   UNL     1      -4.787   0.946  24.775  0.00  0.00    +0.100 A 
ATOM      9  N   UNL     1      -4.357   0.275  24.568  0.00  0.00    -0.229 NA
ATOM     10  C   UNL     1      -3.657   0.275  25.005  0.00  0.00    +0.139 A 
ATOM     33  N   UNL     1      -3.657   0.948  25.483  0.00  0.00    -0.229 NA
ATOM     34  C   UNL     1      -5.519   1.233  24.521  0.00  0.00    +0.021 A 
ATOM     35  C   UNL     1      -5.816   1.936  24.833  0.00  0.00    +0.008 A 
BRANCH   5   3
ATOM      3  C   UNL     1      -5.681   3.055  25.711  0.00  0.00    +0.341 C 
ATOM      4  O   UNL     1      -6.160   3.038  26.382  0.00  0.00    -0.245 OA
BRANCH   3   2
ATOM      1  C   UNL     1      -5.847   4.472  25.626  0.00  0.00    +0.256 C 
ATOM      2  O   UNL     1      -5.502   3.776  25.351  0.00  0.00    -0.441 OA
ENDBRANCH   3   2
ENDBRANCH   5   3
ENDBRANCH  11  10
ENDBRANCH  12  11
BRANCH  18  19
ATOM     19  C   UNL     1      -0.150   0.424  23.599  0.00  0.00    +0.093 C 
BRANCH  19  20
ATOM     20  N   UNL     1       0.407  -0.173  23.479  0.00  0.00    -0.219 NA
BRANCH  20  21
ATOM     21  C   UNL     1       1.153   0.013  23.181  0.00  0.00    +0.076 C 
ATOM     22  C   UNL     1       1.681   0.456  23.634  0.00  0.00    +0.039 C 
ATOM     23  C   UNL     1       2.427   0.641  23.334  0.00  0.00    +0.095 C 
ATOM     24  N   UNL     1       2.646   0.383  22.582  0.00  0.00    -0.279 N 
ATOM     25  C   UNL     1       2.118  -0.060  22.129  0.00  0.00    +0.095 C 
ATOM     26  C   UNL     1       1.372  -0.246  22.428  0.00  0.00    +0.039 C 
ATOM     27  C   UNL     1       3.392   0.568  22.282  0.00  0.00    +0.226 C 
ATOM     28  C   UNL     1       3.920   1.012  22.736  0.00  0.00    +0.095 C 
ATOM     29  O   UNL     1       3.610   0.310  21.531  0.00  0.00    -0.275 OA
ENDBRANCH  20  21
ENDBRANCH  19  20
ENDBRANCH  18  19
TORSDOF 8
ENDMDL
MODEL 2
REMARK VINA RESULT:      -8.0      0.987      6.828
REMARK  Name = 
REMARK  8 active torsions:
REMARK  status: ('A' for Active; 'I' for Inactive)
REMARK    1  A    between atoms: O_2  and  C_3
REMARK    2  A    between atoms: C_3  and  C_5
REMARK    3  A    between atoms: C_10  and  C_11
REMARK    4  A    between atoms: C_11  and  C_12
REMARK    5  A    between atoms: C_14  and  C_15
REMARK    6  A    between atoms: C_18  and  C_19
REMARK    7  A    between atoms: C_19  and  N_20
REMARK    8  A    between atoms: N_20  and  C_21
REMARK                            x       y       z     vdW  Elec       q    Type
REMARK                         _______ _______ _______ _____ _____    ______ ____
ROOT
ATOM     12  C   UNL     1      -0.833   0.015  24.283  0.00  0.00    +0.026 C 
ATOM     13  C   UNL     1      -0.587   0.768  24.513  0.00  0.00    +0.005 C 
ATOM     14  C   UNL     1      -1.145   1.360  24.651  0.00  0.00    +0.006 C 
ATOM     18  C   UNL     1      -1.948   1.199  24.558  0.00  0.00    +0.039 C 
ATOM     30  C   UNL     1      -2.194   0.446  24.327  0.00  0.00    -0.033 C 
ATOM     31  C   UNL     1      -1.637  -0.146  24.189  0.00  0.00    -0.048 C 
ATOM     32  C   UNL     1      -1.883  -0.899  23.958  0.00  0.00    +0.026 C 
ENDROOT
BRANCH  14  15
ATOM     15  C   UNL     1      -0.899   2.113  24.881  0.00  0.00    +0.000 C 
ATOM     16  C   UNL     1      -0.749   2.691  24.312  0.00  0.00    +0.000 C 
ATOM     17  C   UNL     1      -0.804   2.289  25.682  0.00  0.00    +0.000 C 
ENDBRANCH  14  15
BRANCH  12  11
ATOM     11  C   UNL     1      -0.275  -0.577  24.145  0.00  0.00    +0.070 C 
BRANCH  11  10
ATOM      5  C   UNL     1       2.834   0.237  22.646  0.00  0.00    +0.077 A 
ATOM      6  C   UNL     1       2.440   0.193  23.368  0.00  0.00    +0.027 A 
ATOM      7  C   UNL     1       1.653  -0.052  23.395  0.00  0.00    +0.100 A 
ATOM      8  C   UNL     1       1.260  -0.253  22.698  0.00  0.00    +0.100 A 
ATOM      9  N   UNL     1       0.490  -0.474  22.894  0.00  0.00    -0.229 NA
ATOM     10  C   UNL     1       0.407  -0.410  23.712  0.00  0.00    +0.139 A 
ATOM     33  N   UNL     1       1.126  -0.149  24.021  0.00  0.00    -0.229 NA
ATOM     34  C   UNL     1       1.654  -0.209  21.974  0.00  0.00    +0.021 A 
ATOM     35  C   UNL     1       2.441   0.036  21.949  0.00  0.00    +0.008 A 
BRANCH   5   3
ATOM      3  C   UNL     1       3.621   0.482  22.619  0.00  0.00    +0.341 C 
ATOM      4  O   UNL     1       3.823   1.178  22.224  0.00  0.00    -0.245 OA
BRANCH   3   2
ATOM      1  C   UNL     1       4.973   0.329  23.056  0.00  0.00    +0.256 C 
ATOM      2  O   UNL     1       4.207   0.032  22.987  0.00  0.00    -0.441 OA
ENDBRANCH   3   2
ENDBRANCH   5   3
ENDBRANCH  11  10
ENDBRANCH  12  11
BRANCH  18  19
ATOM     19  C   UNL     1      -2.507   1.791  24.695  0.00  0.00    +0.093 C 
BRANCH  19  20
ATOM     20  N   UNL     1      -3.271   1.715  24.393  0.00  0.00    -0.219 NA
BRANCH  20  21
ATOM     21  C   UNL     1      -3.887   2.163  24.709  0.00  0.00    +0.076 C 
ATOM     22  C   UNL     1      -3.938   2.970  24.543  0.00  0.00    +0.039 C 
ATOM     23  C   UNL     1      -4.554   3.417  24.859  0.00  0.00    +0.095 C 
ATOM     24  N   UNL     1      -5.119   3.060  25.341  0.00  0.00    -0.279 N 
ATOM     25  C   UNL     1      -5.068   2.253  25.507  0.00  0.00    +0.095 C 
ATOM     26  C   UNL     1      -4.452   1.804  25.191  0.00  0.00    +0.039 C 
ATOM     27  C   UNL     1      -5.736   3.507  25.658  0.00  0.00    +0.226 C 
ATOM     28  C   UNL     1      -5.787   4.314  25.492  0.00  0.00    +0.095 C 
ATOM     29  O   UNL     1      -6.301   3.149  26.140  0.00  0.00    -0.275 OA
ENDBRANCH  20  21
ENDBRANCH  19  20
ENDBRANCH  18  19
TORSDOF 8
ENDMDL
MODEL 3
REMARK VINA RESULT:      -7.2      1.509      2.056
REMARK  Name = 
REMARK  8 active torsions:
REMARK  status: ('A' for Active; 'I' for Inactive)
REMARK    1  A    between atoms: O_2  and  C_3
REMARK    2  A    between atoms: C_3  and  C_5
REMARK    3  A    between atoms: C_10  and  C_11
REMARK    4  A    between atoms: C_11  and  C_12
REMARK    5  A    between atoms: C_14  and  C_15
REMARK    6  A    between atoms: C_18  and  C_19
REMARK    7  A    between atoms: C_19  and  N_20
REMARK    8  A    between atoms: N_20  and  C_21
REMARK                            x       y       z     vdW  Elec       q    Type
REMARK                         _______ _______ _______ _____ _____    ______ ____
ROOT
ATOM     12  C   UNL     1      -2.396   2.488  23.499  0.00  0.00    +0.026 C 
ATOM     13  C   UNL     1      -1.998   2.656  24.202  0.00  0.00    +0.005 C 
ATOM     14  C   UNL     1      -1.270   2.299  24.358  0.00  0.00    +0.006 C 
ATOM     18  C   UNL     1      -0.941   1.777  23.812  0.00  0.00    +0.039 C 
ATOM     30  C   UNL     1      -1.339   1.609  23.109  0.00  0.00    -0.033 C 
ATOM     31  C   UNL     1      -2.067   1.965  22.952  0.00  0.00    -0.048 C 
ATOM     32  C   UNL     1      -2.465   1.797  22.249  0.00  0.00    +0.026 C 
ENDROOT
BRANCH  14  15
ATOM     15  C   UNL     1      -0.872   2.467  25.060  0.00  0.00    +0.000 C 
ATOM     16  C   UNL     1      -0.415   3.151  25.123  0.00  0.00    +0.000 C 
ATOM     17  C   UNL     1      -0.930   1.950  25.701  0.00  0.00    +0.000 C 
ENDBRANCH  14  15
BRANCH  12  11
ATOM     11  C   UNL     1      -3.124   2.844  23.342  0.00  0.00    +0.070 C 
BRANCH  11  10
ATOM      5  C   UNL     1      -5.741   2.396  25.693  0.00  0.00    +0.077 A 
ATOM      6  C   UNL     1      -5.294   2.008  25.120  0.00  0.00    +0.027 A 
ATOM      7  C   UNL     1      -4.708   2.416  24.707  0.00  0.00    +0.100 A 
ATOM      8  C   UNL     1      -4.570   3.213  24.867  0.00  0.00    +0.100 A 
ATOM      9  N   UNL     1      -3.960   3.470  24.375  0.00  0.00    -0.229 NA
ATOM     10  C   UNL     1      -3.721   2.832  23.911  0.00  0.00    +0.139 A 
ATOM     33  N   UNL     1      -4.183   2.181  24.116  0.00  0.00    -0.229 NA
ATOM     34  C   UNL     1      -5.018   3.603  25.441  0.00  0.00    +0.021 A 
ATOM     35  C   UNL     1      -5.604   3.194  25.854  0.00  0.00    +0.008 A 
BRANCH   5   3
ATOM      3  C   UNL     1      -6.327   1.988  26.106  0.00  0.00    +0.341 C 
ATOM      4  O   UNL     1      -6.935   1.612  25.695  0.00  0.00    -0.245 OA
BRANCH   3   2
ATOM      1  C   UNL     1      -6.798   1.435  27.336  0.00  0.00    +0.256 C 
ATOM      2  O   UNL     1      -6.305   1.955  26.930  0.00  0.00    -0.441 OA
ENDBRANCH   3   2
ENDBRANCH   5   3
ENDBRANCH  11  10
ENDBRANCH  12  11
BRANCH  18  19
ATOM     19  C   UNL     1      -0.213   1.420  23.968  0.00  0.00    +0.093 C 
BRANCH  19  20
ATOM     20  N   UNL     1       0.006   0.736  23.562  0.00  0.00    -0.219 NA
BRANCH  20  21
ATOM     21  C   UNL     1       0.793   0.618  23.347  0.00  0.00    +0.076 C 
ATOM     22  C   UNL     1       1.360   1.192  23.520  0.00  0.00    +0.039 C 
ATOM     23  C   UNL     1       2.147   1.073  23.303  0.00  0.00    +0.095 C 
ATOM     24  N   UNL     1       2.368   0.381  22.914  0.00  0.00    -0.279 N 
ATOM     25  C   UNL     1       1.801  -0.194  22.741  0.00  0.00    +0.095 C 
ATOM     26  C   UNL     1       1.014  -0.076  22.957  0.00  0.00    +0.039 C 
ATOM     27  C   UNL     1       3.155   0.261  22.698  0.00  0.00    +0.226 C 
ATOM     28  C   UNL     1       3.722   0.835  22.871  0.00  0.00    +0.095 C 
ATOM     29  O   UNL     1       3.376  -0.431  22.309  0.00  0.00    -0.275 OA
ENDBRANCH  20  21
ENDBRANCH  19  20
ENDBRANCH  18  19
TORSDOF 8
ENDMDL
MODEL 4
REMARK VINA RESULT:      -5.3     15.344     16.130
REMARK  Name = 
REMARK  8 active torsions:
REMARK  status: ('A' for Active; 'I' for Inactive)
REMARK    1  A    between atoms: O_2  and  C_3
REMARK    2  A    between atoms: C_3  and  C_5
REMARK    3  A    between atoms: C_10  and  C_11
REMARK    4  A    between atoms: C_11  and  C_12
REMARK    5  A    between atoms: C_14  and  C_15
REMARK    6  A    between atoms: C_18  and  C_19
REMARK    7  A    between atoms: C_19  and  N_20
REMARK    8  A    between atoms: N_20  and  C_21
REMARK                            x       y       z     vdW  Elec       q    Type
REMARK                         _______ _______ _______ _____ _____    ______ ____
ROOT
ATOM     12  C   UNL     1      -8.886 -10.002  13.719  0.00  0.00    +0.026 C 
ATOM     13  C   UNL     1      -8.169 -10.087  14.118  0.00  0.00    +0.005 C 
ATOM     14  C   UNL     1      -7.458  -9.954  13.720  0.00  0.00    +0.006 C 
ATOM     18  C   UNL     1      -7.465  -9.737  12.924  0.00  0.00    +0.039 C 
ATOM     30  C   UNL     1      -8.182  -9.652  12.526  0.00  0.00    -0.033 C 
ATOM     31  C   UNL     1      -8.893  -9.784  12.923  0.00  0.00    -0.048 C 
ATOM     32  C   UNL     1      -9.610  -9.699  12.524  0.00  0.00    +0.026 C 
ENDROOT
BRANCH  14  15
ATOM     15  C   UNL     1      -6.741 -10.039  14.118  0.00  0.00    +0.000 C 
ATOM     16  C   UNL     1      -6.385 -10.781  14.173  0.00  0.00    +0.000 C 
ATOM     17  C   UNL     1      -6.379  -9.382  14.462  0.00  0.00    +0.000 C 
ENDBRANCH  14  15
BRANCH  12  11
ATOM     11  C   UNL     1      -9.597 -10.134  14.116  0.00  0.00    +0.070 C 
BRANCH  11  10
ATOM      5  C   UNL     1      -9.871  -9.741  17.631  0.00  0.00    +0.077 A 
ATOM      6  C   UNL     1      -9.801 -10.303  17.031  0.00  0.00    +0.027 A 
ATOM      7  C   UNL     1      -9.755 -10.064  16.243  0.00  0.00    +0.100 A 
ATOM      8  C   UNL     1      -9.779  -9.261  16.055  0.00  0.00    +0.100 A 
ATOM      9  N   UNL     1      -9.723  -9.189  15.235  0.00  0.00    -0.229 NA
ATOM     10  C   UNL     1      -9.664  -9.948  14.917  0.00  0.00    +0.139 A 
ATOM     33  N   UNL     1      -9.684 -10.487  15.540  0.00  0.00    -0.229 NA
ATOM     34  C   UNL     1      -9.849  -8.698  16.655  0.00  0.00    +0.021 A 
ATOM     35  C   UNL     1      -9.895  -8.939  17.442  0.00  0.00    +0.008 A 
BRANCH   5   3
ATOM      3  C   UNL     1      -9.917  -9.981  18.418  0.00  0.00    +0.341 C 
ATOM      4  O   UNL     1     -10.541  -9.724  18.891  0.00  0.00    -0.245 OA
BRANCH   3   2
ATOM      1  C   UNL     1      -9.333 -10.647  19.540  0.00  0.00    +0.256 C 
ATOM      2  O   UNL     1      -9.338 -10.479  18.733  0.00  0.00    -0.441 OA
ENDBRANCH   3   2
ENDBRANCH   5   3
ENDBRANCH  11  10
ENDBRANCH  12  11
BRANCH  18  19
ATOM     19  C   UNL     1      -6.754  -9.605  12.526  0.00  0.00    +0.093 C 
BRANCH  19  20
ATOM     20  N   UNL     1      -6.761  -9.403  11.726  0.00  0.00    -0.219 NA
BRANCH  20  21
ATOM     21  C   UNL     1      -6.057  -9.389  11.297  0.00  0.00    +0.076 C 
ATOM     22  C   UNL     1      -5.763 -10.084  10.964  0.00  0.00    +0.039 C 
ATOM     23  C   UNL     1      -5.058 -10.069  10.535  0.00  0.00    +0.095 C 
ATOM     24  N   UNL     1      -4.648  -9.361  10.439  0.00  0.00    -0.279 N 
ATOM     25  C   UNL     1      -4.942  -8.666  10.773  0.00  0.00    +0.095 C 
ATOM     26  C   UNL     1      -5.646  -8.679  11.202  0.00  0.00    +0.039 C 
ATOM     27  C   UNL     1      -3.943  -9.346  10.010  0.00  0.00    +0.226 C 
ATOM     28  C   UNL     1      -3.649 -10.041   9.677  0.00  0.00    +0.095 C 
ATOM     29  O   UNL     1      -3.533  -8.637   9.915  0.00  0.00    -0.275 OA
ENDBRANCH  20  21
ENDBRANCH  19  20
ENDBRANCH  18  19
TORSDOF 8
ENDMDL
MODEL 5
REMARK VINA RESULT:      -4.2     15.777     17.082
REMARK  Name = 
REMARK  8 active torsions:
REMARK  status: ('A' for Active; 'I' for Inactive)
REMARK    1  A    between atoms: O_2  and  C_3
REMARK    2  A    between atoms: C_3  and  C_5
REMARK    3  A    between atoms: C_10  and  C_11
REMARK    4  A    between atoms: C_11  and  C_12
REMARK    5  A    between atoms: C_14  and  C_15
REMARK    6  A    between atoms: C_18  and  C_19
REMARK    7  A    between atoms: C_19  and  N_20
REMARK    8  A    between atoms: N_20  and  C_21
REMARK                            x       y       z     vdW  Elec       q    Type
REMARK                         _______ _______ _______ _____ _____    ______ ____
ROOT
ATOM     12  C   UNL     1      -9.236  -9.118  14.919  0.00  0.00    +0.026 C 
ATOM     13  C   UNL     1      -8.561  -9.403  14.538  0.00  0.00    +0.005 C 
ATOM     14  C   UNL     1      -8.600  -9.627  13.745  0.00  0.00    +0.006 C 
ATOM     18  C   UNL     1      -9.311  -9.566  13.332  0.00  0.00    +0.039 C 
ATOM     30  C   UNL     1      -9.985  -9.281  13.713  0.00  0.00    -0.033 C 
ATOM     31  C   UNL     1      -9.948  -9.057  14.506  0.00  0.00    -0.048 C 
ATOM     32  C   UNL     1     -10.622  -8.772  14.887  0.00  0.00    +0.026 C 
ENDROOT
BRANCH  14  15
ATOM     15  C   UNL     1      -7.925  -9.912  13.364  0.00  0.00    +0.000 C 
ATOM     16  C   UNL     1      -7.425  -9.391  12.966  0.00  0.00    +0.000 C 
ATOM     17  C   UNL     1      -7.751 -10.718  13.382  0.00  0.00    +0.000 C 
ENDBRANCH  14  15
BRANCH  12  11
ATOM     11  C   UNL     1      -9.199  -8.894  15.712  0.00  0.00    +0.070 C 
BRANCH  11  10
ATOM      5  C   UNL     1      -6.672 -10.313  17.758  0.00  0.00    +0.077 A 
ATOM      6  C   UNL     1      -6.808  -9.758  17.164  0.00  0.00    +0.027 A 
ATOM      7  C   UNL     1      -7.570  -9.647  16.867  0.00  0.00    +0.100 A 
ATOM      8  C   UNL     1      -8.197 -10.093  17.166  0.00  0.00    +0.100 A 
ATOM      9  N   UNL     1      -8.883  -9.865  16.770  0.00  0.00    -0.229 NA
ATOM     10  C   UNL     1      -8.681  -9.279  16.226  0.00  0.00    +0.139 A 
ATOM     33  N   UNL     1      -7.869  -9.145  16.287  0.00  0.00    -0.229 NA
ATOM     34  C   UNL     1      -8.061 -10.649  17.761  0.00  0.00    +0.021 A 
ATOM     35  C   UNL     1      -7.299 -10.759  18.056  0.00  0.00    +0.008 A 
BRANCH   5   3
ATOM      3  C   UNL     1      -5.911 -10.423  18.054  0.00  0.00    +0.341 C 
ATOM      4  O   UNL     1      -5.747 -10.254  18.844  0.00  0.00    -0.245 OA
BRANCH   3   2
ATOM      1  C   UNL     1      -4.543 -10.781  17.846  0.00  0.00    +0.256 C 
ATOM      2  O   UNL     1      -5.312 -10.703  17.559  0.00  0.00    -0.441 OA
ENDBRANCH   3   2
ENDBRANCH   5   3
ENDBRANCH  11  10
ENDBRANCH  12  11
BRANCH  18  19
ATOM     19  C   UNL     1      -9.349  -9.789  12.539  0.00  0.00    +0.093 C 
BRANCH  19  20
ATOM     20  N   UNL     1     -10.081  -9.929  12.185  0.00  0.00    -0.219 NA
BRANCH  20  21
ATOM     21  C   UNL     1     -10.141  -9.973  11.364  0.00  0.00    +0.076 C 
ATOM     22  C   UNL     1      -9.893 -10.652  10.967  0.00  0.00    +0.039 C 
ATOM     23  C   UNL     1      -9.954 -10.695  10.145  0.00  0.00    +0.095 C 
ATOM     24  N   UNL     1     -10.261 -10.059   9.720  0.00  0.00    -0.279 N 
ATOM     25  C   UNL     1     -10.509  -9.379  10.117  0.00  0.00    +0.095 C 
ATOM     26  C   UNL     1     -10.449  -9.336  10.938  0.00  0.00    +0.039 C 
ATOM     27  C   UNL     1     -10.322 -10.102   8.898  0.00  0.00    +0.226 C 
ATOM     28  C   UNL     1     -10.074 -10.781   8.502  0.00  0.00    +0.095 C 
ATOM     29  O   UNL     1     -10.630  -9.466   8.474  0.00  0.00    -0.275 OA
ENDBRANCH  20  21
ENDBRANCH  19  20
ENDBRANCH  18  19
TORSDOF 8
ENDMDL
