MODEL 1
REMARK VINA RESULT:     -17.3      0.000      0.000
REMARK  Name = 
REMARK  4 active torsions:
REMARK  status: ('A' for Active; 'I' for Inactive)
REMARK    1  A    between atoms: O_2  and  C_3
REMARK    2  A    between atoms: C_6  and  C_9
REMARK    3  A    between atoms: C_18  and  C_19
REMARK    4  A    between atoms: C_20  and  C_21
REMARK                            x       y       z     vdW  Elec       q    Type
REMARK                         _______ _______ _______ _____ _____    ______ ____
ROOT
ATOM      9  C   UNL     1      -4.577   3.846  25.183  0.00  0.00    +0.249 C 
ATOM     10  O   UNL     1      -4.777   4.663  25.370  0.00  0.00    -0.270 OA
ATOM     11  N   UNL     1      -5.149   3.184  25.366  0.00  0.00    -0.276 N 
ATOM     12  C   UNL     1      -5.888   2.947  25.674  0.00  0.00    +0.096 C 
ATOM     13  C   UNL     1      -5.823   1.972  25.530  0.00  0.00    +0.043 C 
ATOM     14  C   UNL     1      -5.924   1.165  25.481  0.00  0.00    +0.011 C 
ATOM     15  C   UNL     1      -5.433   1.637  25.313  0.00  0.00    +0.058 C 
ATOM     16  C   UNL     1      -5.511   2.578  25.459  0.00  0.00    +0.099 C 
ATOM     17  C   UNL     1      -4.596   1.705  24.941  0.00  0.00    +0.041 A 
ATOM     18  C   UNL     1      -4.000   1.237  24.615  0.00  0.00    +0.012 A 
ATOM     28  C   UNL     1      -3.305   1.586  24.340  0.00  0.00    +0.006 A 
ATOM     29  C   UNL     1      -3.206   2.404  24.391  0.00  0.00    +0.061 A 
ATOM     30  C   UNL     1      -3.802   2.872  24.717  0.00  0.00    +0.261 A 
ATOM     31  O   UNL     1      -3.755   3.920  24.818  0.00  0.00    -0.267 OA
ATOM     32  N   UNL     1      -4.497   2.523  24.991  0.00  0.00    -0.299 N 
ATOM     33  C   UNL     1      -4.949   2.053  25.142  0.00  0.00    +0.110 C 
ENDROOT
BRANCH   9   6
ATOM      3  C   UNL     1      -2.471   2.615  24.307  0.00  0.00    +0.139 A 
ATOM      4  C   UNL     1      -3.072   2.529  23.769  0.00  0.00    +0.037 A 
ATOM      5  C   UNL     1      -3.837   2.972  24.079  0.00  0.00    +0.008 A 
ATOM      6  C   UNL     1      -3.851   3.375  24.798  0.00  0.00    +0.054 A 
ATOM      7  C   UNL     1      -3.176   3.399  25.272  0.00  0.00    +0.008 A 
ATOM      8  C   UNL     1      -2.486   3.018  25.026  0.00  0.00    +0.037 A 
BRANCH   3   2
ATOM      1  C   UNL     1      -1.075   2.657  24.008  0.00  0.00    +0.252 C 
ATOM      2  O   UNL     1      -1.782   2.234  24.061  0.00  0.00    -0.471 OA
ENDBRANCH   3   2
ENDBRANCH   9   6
BRANCH  18  19
ATOM     19  C   UNL     1      -4.107   0.366  24.561  0.00  0.00    +0.001 C 
ATOM     20  C   UNL     1      -3.398  -0.077  24.474  0.00  0.00    +0.000 C 
BRANCH  20  21
ATOM     21  C   UNL     1      -3.541  -0.889  24.427  0.00  0.00    +0.000 A 
ATOM     22  C   UNL     1      -3.207  -1.361  25.015  0.00  0.00    +0.001 A 
ATOM     23  C   UNL     1      -3.325  -2.178  25.005  0.00  0.00    +0.011 A 
ATOM     24  C   UNL     1      -3.777  -2.522  24.407  0.00  0.00    +0.058 A 
ATOM     25 CL   UNL     1      -3.895  -3.337  24.396  0.00  0.00    -0.082 Cl
ATOM     26  C   UNL     1      -4.111  -2.048  23.818  0.00  0.00    +0.011 A 
ATOM     27  C   UNL     1      -3.992  -1.233  23.829  0.00  0.00    +0.001 A 
ENDBRANCH  20  21
ENDBRANCH  18  19
TORSDOF 4
ENDMDL
MODEL 2
REMARK VINA RESULT:     -17.2      1.171      2.621
REMARK  Name = 
REMARK  4 active torsions:
REMARK  status: ('A' for Active; 'I' for Inactive)
REMARK    1  A    between atoms: O_2  and  C_3
REMARK    2  A    between atoms: C_6  and  C_9
REMARK    3  A    between atoms: C_18  and  C_19
REMARK    4  A    between atoms: C_20  and  C_21
REMARK                            x       y       z     vdW  Elec       q    Type
REMARK                         _______ _______ _______ _____ _____    ______ ____
ROOT
ATOM      9  C   UNL     1      -2.025   4.095  25.194  0.00  0.00    +0.249 C 
ATOM     10  O   UNL     1      -1.681   4.879  25.296  0.00  0.00    -0.270 OA
ATOM     11  N   UNL     1      -1.501   3.373  25.134  0.00  0.00    -0.276 N 
ATOM     12  C   UNL     1      -0.730   3.052  25.129  0.00  0.00    +0.096 C 
ATOM     13  C   UNL     1      -0.950   2.096  25.013  0.00  0.00    +0.043 C 
ATOM     14  C   UNL     1      -0.963   1.286  24.922  0.00  0.00    +0.011 C 
ATOM     15  C   UNL     1      -1.427   1.811  24.962  0.00  0.00    +0.058 C 
ATOM     16  C   UNL     1      -1.198   2.732  25.074  0.00  0.00    +0.099 C 
ATOM     17  C   UNL     1      -2.331   1.977  24.945  0.00  0.00    +0.041 A 
ATOM     18  C   UNL     1      -3.053   1.585  24.872  0.00  0.00    +0.012 A 
ATOM     28  C   UNL     1      -3.758   2.012  24.892  0.00  0.00    +0.006 A 
ATOM     29  C   UNL     1      -3.741   2.832  24.984  0.00  0.00    +0.061 A 
ATOM     30  C   UNL     1      -3.019   3.224  25.057  0.00  0.00    +0.261 A 
ATOM     31  O   UNL     1      -2.910   4.265  25.178  0.00  0.00    -0.267 OA
ATOM     32  N   UNL     1      -2.314   2.797  25.037  0.00  0.00    -0.299 N 
ATOM     33  C   UNL     1      -1.892   2.279  24.996  0.00  0.00    +0.110 C 
ENDROOT
BRANCH   9   6
ATOM      3  C   UNL     1      -4.425   3.118  25.194  0.00  0.00    +0.139 A 
ATOM      4  C   UNL     1      -4.088   2.994  24.466  0.00  0.00    +0.037 A 
ATOM      5  C   UNL     1      -3.220   3.345  24.459  0.00  0.00    +0.008 A 
ATOM      6  C   UNL     1      -2.889   3.715  25.117  0.00  0.00    +0.054 A 
ATOM      7  C   UNL     1      -3.325   3.787  25.814  0.00  0.00    +0.008 A 
ATOM      8  C   UNL     1      -4.094   3.488  25.851  0.00  0.00    +0.037 A 
BRANCH   3   2
ATOM      1  C   UNL     1      -5.799   3.278  25.553  0.00  0.00    +0.252 C 
ATOM      2  O   UNL     1      -5.193   2.819  25.231  0.00  0.00    -0.471 OA
ENDBRANCH   3   2
ENDBRANCH   9   6
BRANCH  18  19
ATOM     19  C   UNL     1      -3.069   0.711  24.773  0.00  0.00    +0.001 C 
ATOM     20  C   UNL     1      -3.816   0.350  24.904  0.00  0.00    +0.000 C 
BRANCH  20  21
ATOM     21  C   UNL     1      -3.790  -0.469  24.802  0.00  0.00    +0.000 A 
ATOM     22  C   UNL     1      -4.018  -0.761  24.065  0.00  0.00    +0.001 A 
ATOM     23  C   UNL     1      -4.006  -1.574  23.922  0.00  0.00    +0.011 A 
ATOM     24  C   UNL     1      -3.766  -2.094  24.516  0.00  0.00    +0.058 A 
ATOM     25 CL   UNL     1      -3.754  -2.906  24.374  0.00  0.00    -0.082 Cl
ATOM     26  C   UNL     1      -3.538  -1.800  25.253  0.00  0.00    +0.011 A 
ATOM     27  C   UNL     1      -3.550  -0.989  25.395  0.00  0.00    +0.001 A 
ENDBRANCH  20  21
ENDBRANCH  18  19
TORSDOF 4
ENDMDL
MODEL 3
REMARK VINA RESULT:     -14.8      2.540      4.848
REMARK  Name = 
REMARK  4 active torsions:
REMARK  status: ('A' for Active; 'I' for Inactive)
REMARK    1  A    between atoms: O_2  and  C_3
REMARK    2  A    between atoms: C_6  and  C_9
REMARK    3  A    between atoms: C_18  and  C_19
REMARK    4  A    between atoms: C_20  and  C_21
REMARK                            x       y       z     vdW  Elec       q    Type
REMARK                         _______ _______ _______ _____ _____    ______ ____
ROOT
ATOM      9  C   UNL     1      -3.042  -1.574  24.839  0.00  0.00    +0.249 C 
ATOM     10  O   UNL     1      -3.200  -2.422  24.844  0.00  0.00    -0.270 OA
ATOM     11  N   UNL     1      -2.206  -1.266  24.911  0.00  0.00    -0.276 N 
ATOM     12  C   UNL     1      -1.392  -1.432  24.991  0.00  0.00    +0.096 C 
ATOM     13  C   UNL     1      -1.036  -0.510  25.003  0.00  0.00    +0.043 C 
ATOM     14  C   UNL     1      -0.592   0.173  25.029  0.00  0.00    +0.011 C 
ATOM     15  C   UNL     1      -1.269  -0.004  24.970  0.00  0.00    +0.058 C 
ATOM     16  C   UNL     1      -1.597  -0.901  24.959  0.00  0.00    +0.099 C 
ATOM     17  C   UNL     1      -2.105   0.366  24.883  0.00  0.00    +0.041 A 
ATOM     18  C   UNL     1      -2.479   1.099  24.831  0.00  0.00    +0.012 A 
ATOM     28  C   UNL     1      -3.300   1.139  24.753  0.00  0.00    +0.006 A 
ATOM     29  C   UNL     1      -3.746   0.445  24.727  0.00  0.00    +0.061 A 
ATOM     30  C   UNL     1      -3.372  -0.288  24.779  0.00  0.00    +0.261 A 
ATOM     31  O   UNL     1      -3.867  -1.218  24.754  0.00  0.00    -0.267 OA
ATOM     32  N   UNL     1      -2.552  -0.328  24.857  0.00  0.00    -0.299 N 
ATOM     33  C   UNL     1      -1.914  -0.133  24.912  0.00  0.00    +0.110 C 
ENDROOT
BRANCH   9   6
ATOM      3  C   UNL     1      -4.491   0.575  24.860  0.00  0.00    +0.139 A 
ATOM      4  C   UNL     1      -4.066   0.548  24.170  0.00  0.00    +0.037 A 
ATOM      5  C   UNL     1      -3.540  -0.226  24.155  0.00  0.00    +0.008 A 
ATOM      6  C   UNL     1      -3.541  -0.771  24.774  0.00  0.00    +0.054 A 
ATOM      7  C   UNL     1      -4.016  -0.644  25.436  0.00  0.00    +0.008 A 
ATOM      8  C   UNL     1      -4.492   0.029  25.479  0.00  0.00    +0.037 A 
BRANCH   3   2
ATOM      1  C   UNL     1      -5.772   1.174  25.067  0.00  0.00    +0.252 C 
ATOM      2  O   UNL     1      -4.967   1.247  24.902  0.00  0.00    -0.471 OA
ENDBRANCH   3   2
ENDBRANCH   9   6
BRANCH  18  19
ATOM     19  C   UNL     1      -2.002   1.837  24.859  0.00  0.00    +0.001 C 
ATOM     20  C   UNL     1      -2.445   2.551  24.838  0.00  0.00    +0.000 C 
BRANCH  20  21
ATOM     21  C   UNL     1      -1.963   3.220  24.865  0.00  0.00    +0.000 A 
ATOM     22  C   UNL     1      -2.186   3.820  25.385  0.00  0.00    +0.001 A 
ATOM     23  C   UNL     1      -1.730   4.506  25.443  0.00  0.00    +0.011 A 
ATOM     24  C   UNL     1      -1.052   4.591  24.981  0.00  0.00    +0.058 A 
ATOM     25 CL   UNL     1      -0.597   5.275  25.039  0.00  0.00    -0.082 Cl
ATOM     26  C   UNL     1      -0.829   3.989  24.462  0.00  0.00    +0.011 A 
ATOM     27  C   UNL     1      -1.284   3.305  24.404  0.00  0.00    +0.001 A 
ENDBRANCH  20  21
ENDBRANCH  18  19
TORSDOF 4
ENDMDL
MODEL 4
REMARK VINA RESULT:     -14.8      2.482      4.472
REMARK  Name = 
REMARK  4 active torsions:
REMARK  status: ('A' for Active; 'I' for Inactive)
REMARK    1  A    between atoms: O_2  and  C_3
REMARK    2  A    between atoms: C_6  and  C_9
REMARK    3  A    between atoms: C_18  and  C_19
REMARK    4  A    between atoms: C_20  and  C_21
REMARK                            x       y       z     vdW  Elec       q    Type
REMARK                         _______ _______ _______ _____ _____    ______ ____
ROOT
ATOM      9  C   UNL     1      -1.416  -1.855  24.758  0.00  0.00    +0.249 C 
ATOM     10  O   UNL     1      -1.048  -2.631  24.681  0.00  0.00    -0.270 OA
ATOM     11  N   UNL     1      -2.304  -1.775  24.803  0.00  0.00    -0.276 N 
ATOM     12  C   UNL     1      -3.053  -2.145  24.808  0.00  0.00    +0.096 C 
ATOM     13  C   UNL     1      -3.631  -1.349  24.896  0.00  0.00    +0.043 C 
ATOM     14  C   UNL     1      -4.234  -0.806  24.964  0.00  0.00    +0.011 C 
ATOM     15  C   UNL     1      -3.533  -0.801  24.933  0.00  0.00    +0.058 C 
ATOM     16  C   UNL     1      -2.988  -1.581  24.849  0.00  0.00    +0.099 C 
ATOM     17  C   UNL     1      -2.815  -0.228  24.945  0.00  0.00    +0.041 A 
ATOM     18  C   UNL     1      -2.638   0.576  24.999  0.00  0.00    +0.012 A 
ATOM     28  C   UNL     1      -1.852   0.827  24.984  0.00  0.00    +0.006 A 
ATOM     29  C   UNL     1      -1.244   0.274  24.914  0.00  0.00    +0.061 A 
ATOM     30  C   UNL     1      -1.421  -0.530  24.860  0.00  0.00    +0.261 A 
ATOM     31  O   UNL     1      -0.706  -1.299  24.769  0.00  0.00    -0.267 OA
ATOM     32  N   UNL     1      -2.206  -0.781  24.876  0.00  0.00    -0.299 N 
ATOM     33  C   UNL     1      -2.875  -0.758  24.907  0.00  0.00    +0.110 C 
ENDROOT
BRANCH   9   6
ATOM      3  C   UNL     1      -0.578   0.597  24.705  0.00  0.00    +0.139 A 
ATOM      4  C   UNL     1      -0.895   0.441  25.434  0.00  0.00    +0.037 A 
ATOM      5  C   UNL     1      -1.201  -0.444  25.461  0.00  0.00    +0.008 A 
ATOM      6  C   UNL     1      -1.135  -0.952  24.815  0.00  0.00    +0.054 A 
ATOM      7  C   UNL     1      -0.792  -0.687  24.114  0.00  0.00    +0.008 A 
ATOM      8  C   UNL     1      -0.513   0.089  24.059  0.00  0.00    +0.037 A 
BRANCH   3   2
ATOM      1  C   UNL     1       0.472   1.515  24.395  0.00  0.00    +0.252 C 
ATOM      2  O   UNL     1      -0.300   1.372  24.650  0.00  0.00    -0.471 OA
ENDBRANCH   3   2
ENDBRANCH   9   6
BRANCH  18  19
ATOM     19  C   UNL     1      -3.287   1.164  25.074  0.00  0.00    +0.001 C 
ATOM     20  C   UNL     1      -3.070   1.960  24.914  0.00  0.00    +0.000 C 
BRANCH  20  21
ATOM     21  C   UNL     1      -3.706   2.480  24.994  0.00  0.00    +0.000 A 
ATOM     22  C   UNL     1      -3.665   3.028  25.609  0.00  0.00    +0.001 A 
ATOM     23  C   UNL     1      -4.280   3.566  25.723  0.00  0.00    +0.011 A 
ATOM     24  C   UNL     1      -4.936   3.556  25.223  0.00  0.00    +0.058 A 
ATOM     25 CL   UNL     1      -5.550   4.093  25.337  0.00  0.00    -0.082 Cl
ATOM     26  C   UNL     1      -4.976   3.006  24.609  0.00  0.00    +0.011 A 
ATOM     27  C   UNL     1      -4.362   2.469  24.494  0.00  0.00    +0.001 A 
ENDBRANCH  20  21
ENDBRANCH  18  19
TORSDOF 4
ENDMDL
MODEL 5
REMARK VINA RESULT:     -14.8      2.974      4.723
REMARK  Name = 
REMARK  4 active torsions:
REMARK  status: ('A' for Active; 'I' for Inactive)
REMARK    1  A    between atoms: O_2  and  C_3
REMARK    2  A    between atoms: C_6  and  C_9
REMARK    3  A    between atoms: C_18  and  C_19
REMARK    4  A    between atoms: C_20  and  C_21
REMARK                            x       y       z     vdW  Elec       q    Type
REMARK                         _______ _______ _______ _____ _____    ______ ____
ROOT
ATOM      9  C   UNL     1      -3.624  -2.039  24.575  0.00  0.00    +0.249 C 
ATOM     10  O   UNL     1      -4.073  -2.764  24.450  0.00  0.00    -0.270 OA
ATOM     11  N   UNL     1      -3.997  -1.241  24.427  0.00  0.00    -0.276 N 
ATOM     12  C   UNL     1      -4.667  -0.802  24.192  0.00  0.00    +0.096 C 
ATOM     13  C   UNL     1      -4.305   0.113  24.282  0.00  0.00    +0.043 C 
ATOM     14  C   UNL     1      -4.161   0.915  24.304  0.00  0.00    +0.011 C 
ATOM     15  C   UNL     1      -3.812   0.321  24.438  0.00  0.00    +0.058 C 
ATOM     16  C   UNL     1      -4.176  -0.557  24.346  0.00  0.00    +0.099 C 
ATOM     17  C   UNL     1      -2.992   0.015  24.718  0.00  0.00    +0.041 A 
ATOM     18  C   UNL     1      -2.251   0.292  24.954  0.00  0.00    +0.012 A 
ATOM     28  C   UNL     1      -1.660  -0.243  25.166  0.00  0.00    +0.006 A 
ATOM     29  C   UNL     1      -1.809  -1.054  25.142  0.00  0.00    +0.061 A 
ATOM     30  C   UNL     1      -2.549  -1.331  24.907  0.00  0.00    +0.261 A 
ATOM     31  O   UNL     1      -2.822  -2.347  24.850  0.00  0.00    -0.267 OA
ATOM     32  N   UNL     1      -3.141  -0.796  24.695  0.00  0.00    -0.299 N 
ATOM     33  C   UNL     1      -3.452  -0.216  24.574  0.00  0.00    +0.110 C 
ENDROOT
BRANCH   9   6
ATOM      3  C   UNL     1      -1.162  -1.477  25.158  0.00  0.00    +0.139 A 
ATOM      4  C   UNL     1      -1.645  -1.188  25.741  0.00  0.00    +0.037 A 
ATOM      5  C   UNL     1      -2.537  -1.388  25.538  0.00  0.00    +0.008 A 
ATOM      6  C   UNL     1      -2.751  -1.798  24.855  0.00  0.00    +0.054 A 
ATOM      7  C   UNL     1      -2.172  -2.048  24.324  0.00  0.00    +0.008 A 
ATOM      8  C   UNL     1      -1.377  -1.887  24.475  0.00  0.00    +0.037 A 
BRANCH   3   2
ATOM      1  C   UNL     1       0.177  -1.935  25.358  0.00  0.00    +0.252 C 
ATOM      2  O   UNL     1      -0.367  -1.316  25.309  0.00  0.00    -0.471 OA
ENDBRANCH   3   2
ENDBRANCH   9   6
BRANCH  18  19
ATOM     19  C   UNL     1      -2.094   1.156  24.978  0.00  0.00    +0.001 C 
ATOM     20  C   UNL     1      -1.287   1.371  25.073  0.00  0.00    +0.000 C 
BRANCH  20  21
ATOM     21  C   UNL     1      -1.181   2.189  25.091  0.00  0.00    +0.000 A 
ATOM     22  C   UNL     1      -0.862   2.540  24.416  0.00  0.00    +0.001 A 
ATOM     23  C   UNL     1      -0.740   3.356  24.393  0.00  0.00    +0.011 A 
ATOM     24  C   UNL     1      -0.936   3.821  25.046  0.00  0.00    +0.058 A 
ATOM     25 CL   UNL     1      -0.814   4.635  25.023  0.00  0.00    -0.082 Cl
ATOM     26  C   UNL     1      -1.255   3.469  25.721  0.00  0.00    +0.011 A 
ATOM     27  C   UNL     1      -1.377   2.654  25.743  0.00  0.00    +0.001 A 
ENDBRANCH  20  21
ENDBRANCH  18  19
TORSDOF 4
ENDMDL
