MODEL 1
REMARK VINA RESULT:     -11.8      0.000      0.000
REMARK  Name = 
REMARK  8 active torsions:
REMARK  status: ('A' for Active; 'I' for Inactive)
REMARK    1  A    between atoms: C_2  and  C_4
REMARK    2  A    between atoms: C_6  and  C_7
REMARK    3  A    between atoms: C_7  and  C_8
REMARK    4  A    between atoms: C_11  and  C_13
REMARK    5  A    between atoms: C_22  and  C_23
REMARK    6  A    between atoms: C_23  and  N_24
REMARK    7  A    between atoms: N_24  and  C_25
REMARK    8  A    between atoms: C_25  and  C_26
REMARK                            x       y       z     vdW  Elec       q    Type
REMARK                         _______ _______ _______ _____ _____    ______ ____
ROOT
ATOM      4  C   UNL     1      -3.483   1.184  24.029  0.00  0.00    +0.006 C 
ATOM      5  C   UNL     1      -3.638   1.950  24.290  0.00  0.00    +0.005 C 
ATOM      6  C   UNL     1      -4.296   2.099  24.765  0.00  0.00    +0.027 C 
ATOM     19  C   UNL     1      -4.799   1.481  24.978  0.00  0.00    -0.048 C 
ATOM     20  C   UNL     1      -5.457   1.630  25.453  0.00  0.00    +0.026 C 
ATOM     21  C   UNL     1      -4.643   0.715  24.716  0.00  0.00    -0.033 C 
ATOM     22  C   UNL     1      -3.985   0.566  24.241  0.00  0.00    +0.039 C 
ENDROOT
BRANCH   4   2
ATOM      1  C   UNL     1      -2.119   0.778  23.895  0.00  0.00    +0.000 C 
ATOM      2  C   UNL     1      -2.825   1.036  23.554  0.00  0.00    +0.000 C 
ATOM      3  C   UNL     1      -2.871   1.145  22.737  0.00  0.00    +0.000 C 
ENDBRANCH   4   2
BRANCH   6   7
ATOM      7  C   UNL     1      -4.451   2.866  25.027  0.00  0.00    +0.091 C 
BRANCH   7   8
ATOM      8  C   UNL     1      -3.844   3.325  25.345  0.00  0.00    +0.227 A 
ATOM      9  N   UNL     1      -3.766   3.546  26.135  0.00  0.00    -0.111 NA
ATOM     10  N   UNL     1      -3.082   4.000  26.207  0.00  0.00    -0.107 NA
ATOM     11  C   UNL     1      -2.736   4.060  25.460  0.00  0.00    +0.250 A 
ATOM     12  O   UNL     1      -3.207   3.643  24.927  0.00  0.00    -0.420 OA
BRANCH  11  13
ATOM     13  C   UNL     1      -2.041   4.467  25.279  0.00  0.00    +0.055 A 
ATOM     14  C   UNL     1      -2.059   5.281  25.155  0.00  0.00    +0.005 A 
ATOM     15  C   UNL     1      -1.364   5.687  24.974  0.00  0.00    +0.000 A 
ATOM     16  C   UNL     1      -0.650   5.278  24.917  0.00  0.00    +0.000 A 
ATOM     17  C   UNL     1      -0.632   4.462  25.041  0.00  0.00    +0.000 A 
ATOM     18  C   UNL     1      -1.327   4.056  25.222  0.00  0.00    +0.005 A 
ENDBRANCH  11  13
ENDBRANCH   7   8
ENDBRANCH   6   7
BRANCH  22  23
ATOM     23  C   UNL     1      -3.831  -0.201  23.980  0.00  0.00    +0.094 C 
BRANCH  23  24
ATOM     24  N   UNL     1      -4.173  -0.845  24.364  0.00  0.00    -0.204 NA
BRANCH  24  25
ATOM     25  C   UNL     1      -4.218  -1.577  23.985  0.00  0.00    +0.165 C 
BRANCH  25  26
ATOM     26  C   UNL     1      -3.886  -2.245  24.335  0.00  0.00    -0.059 C 
ATOM     27  C   UNL     1      -3.555  -2.914  24.687  0.00  0.00    -0.013 C 
ENDBRANCH  25  26
ENDBRANCH  24  25
ENDBRANCH  23  24
ENDBRANCH  22  23
TORSDOF 8
ENDMDL
MODEL 2
REMARK VINA RESULT:     -11.4      1.307      5.239
REMARK  Name = 
REMARK  8 active torsions:
REMARK  status: ('A' for Active; 'I' for Inactive)
REMARK    1  A    between atoms: C_2  and  C_4
REMARK    2  A    between atoms: C_6  and  C_7
REMARK    3  A    between atoms: C_7  and  C_8
REMARK    4  A    between atoms: C_11  and  C_13
REMARK    5  A    between atoms: C_22  and  C_23
REMARK    6  A    between atoms: C_23  and  N_24
REMARK    7  A    between atoms: N_24  and  C_25
REMARK    8  A    between atoms: C_25  and  C_26
REMARK                            x       y       z     vdW  Elec       q    Type
REMARK                         _______ _______ _______ _____ _____    ______ ____
ROOT
ATOM      4  C   UNL     1      -2.034   1.923  24.624  0.00  0.00    +0.006 C 
ATOM      5  C   UNL     1      -2.686   1.448  24.452  0.00  0.00    +0.005 C 
ATOM      6  C   UNL     1      -3.438   1.783  24.400  0.00  0.00    +0.027 C 
ATOM     19  C   UNL     1      -3.539   2.592  24.521  0.00  0.00    -0.048 C 
ATOM     20  C   UNL     1      -4.291   2.927  24.470  0.00  0.00    +0.026 C 
ATOM     21  C   UNL     1      -2.887   3.067  24.693  0.00  0.00    -0.033 C 
ATOM     22  C   UNL     1      -2.134   2.732  24.744  0.00  0.00    +0.039 C 
ENDROOT
BRANCH   4   2
ATOM      1  C   UNL     1      -0.984   1.351  25.407  0.00  0.00    +0.000 C 
ATOM      2  C   UNL     1      -1.282   1.588  24.675  0.00  0.00    +0.000 C 
ATOM      3  C   UNL     1      -0.826   1.490  23.995  0.00  0.00    +0.000 C 
ENDBRANCH   4   2
BRANCH   6   7
ATOM      7  C   UNL     1      -4.091   1.307  24.228  0.00  0.00    +0.091 C 
BRANCH   7   8
ATOM      8  C   UNL     1      -4.146   0.549  24.550  0.00  0.00    +0.227 A 
ATOM      9  N   UNL     1      -4.455   0.358  25.290  0.00  0.00    -0.111 NA
ATOM     10  N   UNL     1      -4.402  -0.459  25.386  0.00  0.00    -0.107 NA
ATOM     11  C   UNL     1      -4.059  -0.773  24.703  0.00  0.00    +0.250 A 
ATOM     12  O   UNL     1      -3.901  -0.150  24.187  0.00  0.00    -0.420 OA
BRANCH  11  13
ATOM     13  C   UNL     1      -3.902  -1.571  24.564  0.00  0.00    +0.055 A 
ATOM     14  C   UNL     1      -4.236  -1.950  23.912  0.00  0.00    +0.005 A 
ATOM     15  C   UNL     1      -4.079  -2.748  23.774  0.00  0.00    +0.000 A 
ATOM     16  C   UNL     1      -3.588  -3.167  24.287  0.00  0.00    +0.000 A 
ATOM     17  C   UNL     1      -3.254  -2.788  24.939  0.00  0.00    +0.000 A 
ATOM     18  C   UNL     1      -3.411  -1.990  25.078  0.00  0.00    +0.005 A 
ENDBRANCH  11  13
ENDBRANCH   7   8
ENDBRANCH   6   7
BRANCH  22  23
ATOM     23  C   UNL     1      -1.482   3.208  24.917  0.00  0.00    +0.094 C 
BRANCH  23  24
ATOM     24  N   UNL     1      -1.577   4.022  25.006  0.00  0.00    -0.204 NA
BRANCH  24  25
ATOM     25  C   UNL     1      -0.916   4.509  25.085  0.00  0.00    +0.165 C 
BRANCH  25  26
ATOM     26  C   UNL     1      -0.983   5.321  24.956  0.00  0.00    -0.059 C 
ATOM     27  C   UNL     1      -1.051   6.133  24.826  0.00  0.00    -0.013 C 
ENDBRANCH  25  26
ENDBRANCH  24  25
ENDBRANCH  23  24
ENDBRANCH  22  23
TORSDOF 8
ENDMDL
MODEL 3
REMARK VINA RESULT:     -11.0      1.597      5.524
REMARK  Name = 
REMARK  8 active torsions:
REMARK  status: ('A' for Active; 'I' for Inactive)
REMARK    1  A    between atoms: C_2  and  C_4
REMARK    2  A    between atoms: C_6  and  C_7
REMARK    3  A    between atoms: C_7  and  C_8
REMARK    4  A    between atoms: C_11  and  C_13
REMARK    5  A    between atoms: C_22  and  C_23
REMARK    6  A    between atoms: C_23  and  N_24
REMARK    7  A    between atoms: N_24  and  C_25
REMARK    8  A    between atoms: C_25  and  C_26
REMARK                            x       y       z     vdW  Elec       q    Type
REMARK                         _______ _______ _______ _____ _____    ______ ____
ROOT
ATOM      4  C   UNL     1      -2.481   2.057  24.740  0.00  0.00    +0.006 C 
ATOM      5  C   UNL     1      -2.250   1.266  24.756  0.00  0.00    +0.005 C 
ATOM      6  C   UNL     1      -1.546   1.050  25.128  0.00  0.00    +0.027 C 
ATOM     19  C   UNL     1      -1.073   1.625  25.484  0.00  0.00    -0.048 C 
ATOM     20  C   UNL     1      -0.370   1.409  25.856  0.00  0.00    +0.026 C 
ATOM     21  C   UNL     1      -1.306   2.416  25.467  0.00  0.00    -0.033 C 
ATOM     22  C   UNL     1      -2.010   2.632  25.095  0.00  0.00    +0.039 C 
ENDROOT
BRANCH   4   2
ATOM      1  C   UNL     1      -3.878   2.352  24.808  0.00  0.00    +0.000 C 
ATOM      2  C   UNL     1      -3.185   2.273  24.368  0.00  0.00    +0.000 C 
ATOM      3  C   UNL     1      -3.197   2.411  23.554  0.00  0.00    +0.000 C 
ENDBRANCH   4   2
BRANCH   6   7
ATOM      7  C   UNL     1      -1.314   0.258  25.144  0.00  0.00    +0.091 C 
BRANCH   7   8
ATOM      8  C   UNL     1      -1.877  -0.335  25.256  0.00  0.00    +0.227 A 
ATOM      9  N   UNL     1      -2.144  -0.620  25.982  0.00  0.00    -0.111 NA
ATOM     10  N   UNL     1      -2.704  -1.207  25.836  0.00  0.00    -0.107 NA
ATOM     11  C   UNL     1      -2.782  -1.286  25.018  0.00  0.00    +0.250 A 
ATOM     12  O   UNL     1      -2.272  -0.747  24.659  0.00  0.00    -0.420 OA
BRANCH  11  13
ATOM     13  C   UNL     1      -3.284  -1.812  24.628  0.00  0.00    +0.055 A 
ATOM     14  C   UNL     1      -3.923  -1.528  24.192  0.00  0.00    +0.005 A 
ATOM     15  C   UNL     1      -4.425  -2.055  23.803  0.00  0.00    +0.000 A 
ATOM     16  C   UNL     1      -4.288  -2.866  23.850  0.00  0.00    +0.000 A 
ATOM     17  C   UNL     1      -3.648  -3.152  24.287  0.00  0.00    +0.000 A 
ATOM     18  C   UNL     1      -3.146  -2.625  24.677  0.00  0.00    +0.005 A 
ENDBRANCH  11  13
ENDBRANCH   7   8
ENDBRANCH   6   7
BRANCH  22  23
ATOM     23  C   UNL     1      -2.241   3.424  25.079  0.00  0.00    +0.094 C 
BRANCH  23  24
ATOM     24  N   UNL     1      -1.716   4.013  25.319  0.00  0.00    -0.204 NA
BRANCH  24  25
ATOM     25  C   UNL     1      -1.957   4.802  25.332  0.00  0.00    +0.165 C 
BRANCH  25  26
ATOM     26  C   UNL     1      -1.453   5.392  25.053  0.00  0.00    -0.059 C 
ATOM     27  C   UNL     1      -0.949   5.983  24.774  0.00  0.00    -0.013 C 
ENDBRANCH  25  26
ENDBRANCH  24  25
ENDBRANCH  23  24
ENDBRANCH  22  23
TORSDOF 8
ENDMDL
MODEL 4
REMARK VINA RESULT:     -10.7      1.463      2.400
REMARK  Name = 
REMARK  8 active torsions:
REMARK  status: ('A' for Active; 'I' for Inactive)
REMARK    1  A    between atoms: C_2  and  C_4
REMARK    2  A    between atoms: C_6  and  C_7
REMARK    3  A    between atoms: C_7  and  C_8
REMARK    4  A    between atoms: C_11  and  C_13
REMARK    5  A    between atoms: C_22  and  C_23
REMARK    6  A    between atoms: C_23  and  N_24
REMARK    7  A    between atoms: N_24  and  C_25
REMARK    8  A    between atoms: C_25  and  C_26
REMARK                            x       y       z     vdW  Elec       q    Type
REMARK                         _______ _______ _______ _____ _____    ______ ____
ROOT
ATOM      4  C   UNL     1      -2.693   0.462  24.582  0.00  0.00    +0.006 C 
ATOM      5  C   UNL     1      -2.020   0.932  24.655  0.00  0.00    +0.005 C 
ATOM      6  C   UNL     1      -1.298   0.590  24.863  0.00  0.00    +0.027 C 
ATOM     19  C   UNL     1      -1.250  -0.222  24.997  0.00  0.00    -0.048 C 
ATOM     20  C   UNL     1      -0.529  -0.564  25.205  0.00  0.00    +0.026 C 
ATOM     21  C   UNL     1      -1.924  -0.692  24.924  0.00  0.00    -0.033 C 
ATOM     22  C   UNL     1      -2.645  -0.350  24.716  0.00  0.00    +0.039 C 
ENDROOT
BRANCH   4   2
ATOM      1  C   UNL     1      -3.584   0.961  23.582  0.00  0.00    +0.000 C 
ATOM      2  C   UNL     1      -3.414   0.804  24.374  0.00  0.00    +0.000 C 
ATOM      3  C   UNL     1      -3.967   0.990  24.958  0.00  0.00    +0.000 C 
ENDBRANCH   4   2
BRANCH   6   7
ATOM      7  C   UNL     1      -0.624   1.061  24.936  0.00  0.00    +0.091 C 
BRANCH   7   8
ATOM      8  C   UNL     1      -0.678   1.808  25.281  0.00  0.00    +0.227 A 
ATOM      9  N   UNL     1      -0.502   1.995  26.065  0.00  0.00    -0.111 NA
ATOM     10  N   UNL     1      -0.632   2.802  26.171  0.00  0.00    -0.107 NA
ATOM     11  C   UNL     1      -0.890   3.115  25.451  0.00  0.00    +0.250 A 
ATOM     12  O   UNL     1      -0.918   2.501  24.902  0.00  0.00    -0.420 OA
BRANCH  11  13
ATOM     13  C   UNL     1      -1.085   3.904  25.309  0.00  0.00    +0.055 A 
ATOM     14  C   UNL     1      -1.809   4.203  25.563  0.00  0.00    +0.005 A 
ATOM     15  C   UNL     1      -2.004   4.992  25.420  0.00  0.00    +0.000 A 
ATOM     16  C   UNL     1      -1.473   5.482  25.022  0.00  0.00    +0.000 A 
ATOM     17  C   UNL     1      -0.747   5.183  24.767  0.00  0.00    +0.000 A 
ATOM     18  C   UNL     1      -0.553   4.393  24.910  0.00  0.00    +0.005 A 
ENDBRANCH  11  13
ENDBRANCH   7   8
ENDBRANCH   6   7
BRANCH  22  23
ATOM     23  C   UNL     1      -3.319  -0.821  24.643  0.00  0.00    +0.094 C 
BRANCH  23  24
ATOM     24  N   UNL     1      -3.244  -1.638  24.560  0.00  0.00    -0.204 NA
BRANCH  24  25
ATOM     25  C   UNL     1      -3.914  -2.119  24.592  0.00  0.00    +0.165 C 
BRANCH  25  26
ATOM     26  C   UNL     1      -3.922  -2.842  24.195  0.00  0.00    -0.059 C 
ATOM     27  C   UNL     1      -3.930  -3.566  23.797  0.00  0.00    -0.013 C 
ENDBRANCH  25  26
ENDBRANCH  24  25
ENDBRANCH  23  24
ENDBRANCH  22  23
TORSDOF 8
ENDMDL
MODEL 5
REMARK VINA RESULT:     -10.3      2.112      4.038
REMARK  Name = 
REMARK  8 active torsions:
REMARK  status: ('A' for Active; 'I' for Inactive)
REMARK    1  A    between atoms: C_2  and  C_4
REMARK    2  A    between atoms: C_6  and  C_7
REMARK    3  A    between atoms: C_7  and  C_8
REMARK    4  A    between atoms: C_11  and  C_13
REMARK    5  A    between atoms: C_22  and  C_23
REMARK    6  A    between atoms: C_23  and  N_24
REMARK    7  A    between atoms: N_24  and  C_25
REMARK    8  A    between atoms: C_25  and  C_26
REMARK                            x       y       z     vdW  Elec       q    Type
REMARK                         _______ _______ _______ _____ _____    ______ ____
ROOT
ATOM      4  C   UNL     1      -1.223   0.877  24.812  0.00  0.00    +0.006 C 
ATOM      5  C   UNL     1      -1.644   1.516  25.118  0.00  0.00    +0.005 C 
ATOM      6  C   UNL     1      -1.393   2.287  24.966  0.00  0.00    +0.027 C 
ATOM     19  C   UNL     1      -0.721   2.419  24.507  0.00  0.00    -0.048 C 
ATOM     20  C   UNL     1      -0.470   3.191  24.355  0.00  0.00    +0.026 C 
ATOM     21  C   UNL     1      -0.300   1.780  24.200  0.00  0.00    -0.033 C 
ATOM     22  C   UNL     1      -0.551   1.009  24.353  0.00  0.00    +0.039 C 
ENDROOT
BRANCH   4   2
ATOM      1  C   UNL     1      -1.993  -0.269  24.445  0.00  0.00    +0.000 C 
ATOM      2  C   UNL     1      -1.474   0.106  24.964  0.00  0.00    +0.000 C 
ATOM      3  C   UNL     1      -1.205  -0.290  25.636  0.00  0.00    +0.000 C 
ENDBRANCH   4   2
BRANCH   6   7
ATOM      7  C   UNL     1      -1.815   2.927  25.273  0.00  0.00    +0.091 C 
BRANCH   7   8
ATOM      8  C   UNL     1      -2.609   3.032  25.074  0.00  0.00    +0.227 A 
ATOM      9  N   UNL     1      -2.903   3.568  24.521  0.00  0.00    -0.111 NA
ATOM     10  N   UNL     1      -3.723   3.487  24.497  0.00  0.00    -0.107 NA
ATOM     11  C   UNL     1      -3.936   2.900  25.037  0.00  0.00    +0.250 A 
ATOM     12  O   UNL     1      -3.248   2.618  25.393  0.00  0.00    -0.420 OA
BRANCH  11  13
ATOM     13  C   UNL     1      -4.704   2.640  25.192  0.00  0.00    +0.055 A 
ATOM     14  C   UNL     1      -5.129   2.961  25.820  0.00  0.00    +0.005 A 
ATOM     15  C   UNL     1      -5.898   2.701  25.975  0.00  0.00    +0.000 A 
ATOM     16  C   UNL     1      -6.239   2.120  25.499  0.00  0.00    +0.000 A 
ATOM     17  C   UNL     1      -5.814   1.799  24.869  0.00  0.00    +0.000 A 
ATOM     18  C   UNL     1      -5.045   2.059  24.715  0.00  0.00    +0.005 A 
ENDBRANCH  11  13
ENDBRANCH   7   8
ENDBRANCH   6   7
BRANCH  22  23
ATOM     23  C   UNL     1      -0.128   0.370  24.045  0.00  0.00    +0.094 C 
BRANCH  23  24
ATOM     24  N   UNL     1       0.521   0.502  23.555  0.00  0.00    -0.204 NA
BRANCH  24  25
ATOM     25  C   UNL     1       0.881  -0.131  23.167  0.00  0.00    +0.165 C 
BRANCH  25  26
ATOM     26  C   UNL     1       1.613  -0.029  22.801  0.00  0.00    -0.059 C 
ATOM     27  C   UNL     1       2.345   0.074  22.433  0.00  0.00    -0.013 C 
ENDBRANCH  25  26
ENDBRANCH  24  25
ENDBRANCH  23  24
ENDBRANCH  22  23
TORSDOF 8
ENDMDL
