MODEL 1
REMARK VINA RESULT:     -11.0      0.000      0.000
REMARK  Name = 
REMARK  8 active torsions:
REMARK  status: ('A' for Active; 'I' for Inactive)
REMARK    1  A    between atoms: N_2  and  C_4
REMARK    2  A    between atoms: C_7  and  C_10
REMARK    3  A    between atoms: C_16  and  C_18
REMARK    4  A    between atoms: N_20  and  C_21
REMARK    5  A    between atoms: C_21  and  C_22
REMARK    6  A    between atoms: C_21  and  C_29
REMARK    7  A    between atoms: C_22  and  C_23
REMARK    8  A    between atoms: C_32  and  C_34
REMARK                            x       y       z     vdW  Elec       q    Type
REMARK                         _______ _______ _______ _____ _____    ______ ____
ROOT
ATOM     10  C   UNL     1       0.078  -0.261  23.586  0.00  0.00    +0.249 C 
ATOM     11  O   UNL     1      -0.231  -1.026  23.555  0.00  0.00    -0.270 OA
ATOM     12  N   UNL     1      -0.360   0.347  23.931  0.00  0.00    -0.272 N 
ATOM     13  C   UNL     1      -0.051   1.112  23.961  0.00  0.00    +0.115 C 
ATOM     14  C   UNL     1      -0.489   1.720  24.307  0.00  0.00    +0.115 C 
ATOM     15  N   UNL     1      -1.235   1.563  24.622  0.00  0.00    -0.270 N 
ATOM     16  C   UNL     1      -1.544   0.799  24.592  0.00  0.00    +0.174 C 
ATOM     17  C   UNL     1      -1.106   0.191  24.246  0.00  0.00    +0.123 C 
ATOM     32  C   UNL     1      -1.672   2.171  24.967  0.00  0.00    +0.226 C 
ATOM     33  O   UNL     1      -2.420   2.015  25.282  0.00  0.00    -0.275 OA
ENDROOT
BRANCH  10   7
ATOM      4  C   UNL     1       2.316   0.208  22.641  0.00  0.00    +0.048 A 
ATOM      5  C   UNL     1       2.207   0.201  23.458  0.00  0.00    +0.015 A 
ATOM      6  C   UNL     1       1.460   0.045  23.773  0.00  0.00    +0.006 A 
ATOM      7  C   UNL     1       0.823  -0.105  23.271  0.00  0.00    +0.054 A 
ATOM      8  C   UNL     1       0.933  -0.098  22.453  0.00  0.00    +0.006 A 
ATOM      9  C   UNL     1       1.679   0.059  22.138  0.00  0.00    +0.015 A 
BRANCH   4   2
ATOM      1  C   UNL     1       3.271   0.058  21.588  0.00  0.00    +0.112 C 
ATOM      2  N   UNL     1       3.063   0.365  22.325  0.00  0.00    -0.304 N 
ATOM      3  C   UNL     1       3.600   0.827  22.747  0.00  0.00    +0.112 C 
ENDBRANCH   4   2
ENDBRANCH  10   7
BRANCH  32  34
ATOM     34  C   UNL     1      -1.364   2.936  24.998  0.00  0.00    +0.077 C 
ATOM     35  C   UNL     1      -1.548   3.478  24.404  0.00  0.00    +0.009 C 
ATOM     36  C   UNL     1      -1.240   4.244  24.434  0.00  0.00    +0.000 C 
ATOM     37  C   UNL     1      -0.749   4.466  25.058  0.00  0.00    +0.000 C 
ATOM     38  C   UNL     1      -0.565   3.923  25.652  0.00  0.00    +0.000 C 
ATOM     39  C   UNL     1      -0.872   3.159  25.622  0.00  0.00    +0.009 C 
ENDBRANCH  32  34
BRANCH  16  18
ATOM     18  C   UNL     1      -2.291   0.643  24.907  0.00  0.00    +0.262 C 
ATOM     19  O   UNL     1      -2.473   0.886  25.674  0.00  0.00    -0.271 OA
ATOM     20  N   UNL     1      -2.853   0.244  24.455  0.00  0.00    -0.196 NA
BRANCH  20  21
ATOM     21  C   UNL     1      -3.600   0.088  24.770  0.00  0.00    +0.174 C 
BRANCH  21  29
ATOM     29  C   UNL     1      -4.230   0.596  24.612  0.00  0.00    +0.281 C 
ATOM     30  N   UNL     1      -4.754   0.804  25.212  0.00  0.00    -0.086 NA
ATOM     31  O   UNL     1      -4.335   0.896  23.850  0.00  0.00    -0.270 OA
ENDBRANCH  21  29
BRANCH  21  22
ATOM     22  C   UNL     1      -3.717  -0.576  25.245  0.00  0.00    +0.031 C 
BRANCH  22  23
ATOM     23  C   UNL     1      -3.758  -1.325  24.903  0.00  0.00    +0.002 C 
ATOM     24  C   UNL     1      -3.382  -1.965  25.265  0.00  0.00    +0.000 C 
ATOM     25  C   UNL     1      -3.423  -2.715  24.923  0.00  0.00    +0.000 C 
ATOM     26  C   UNL     1      -3.840  -2.824  24.219  0.00  0.00    +0.000 C 
ATOM     27  C   UNL     1      -4.215  -2.186  23.858  0.00  0.00    +0.000 C 
ATOM     28  C   UNL     1      -4.174  -1.436  24.200  0.00  0.00    +0.000 C 
ENDBRANCH  22  23
ENDBRANCH  21  22
ENDBRANCH  20  21
ENDBRANCH  16  18
TORSDOF 8
ENDMDL
MODEL 2
REMARK VINA RESULT:     -10.0      1.454      4.007
REMARK  Name = 
REMARK  8 active torsions:
REMARK  status: ('A' for Active; 'I' for Inactive)
REMARK    1  A    between atoms: N_2  and  C_4
REMARK    2  A    between atoms: C_7  and  C_10
REMARK    3  A    between atoms: C_16  and  C_18
REMARK    4  A    between atoms: N_20  and  C_21
REMARK    5  A    between atoms: C_21  and  C_22
REMARK    6  A    between atoms: C_21  and  C_29
REMARK    7  A    between atoms: C_22  and  C_23
REMARK    8  A    between atoms: C_32  and  C_34
REMARK                            x       y       z     vdW  Elec       q    Type
REMARK                         _______ _______ _______ _____ _____    ______ ____
ROOT
ATOM     10  C   UNL     1      -1.061   1.291  23.958  0.00  0.00    +0.249 C 
ATOM     11  O   UNL     1      -1.069   2.110  24.060  0.00  0.00    -0.270 OA
ATOM     12  N   UNL     1      -1.722   0.844  24.168  0.00  0.00    -0.272 N 
ATOM     13  C   UNL     1      -1.715   0.025  24.066  0.00  0.00    +0.115 C 
ATOM     14  C   UNL     1      -2.375  -0.423  24.276  0.00  0.00    +0.115 C 
ATOM     15  N   UNL     1      -3.042  -0.052  24.590  0.00  0.00    -0.270 N 
ATOM     16  C   UNL     1      -3.049   0.766  24.692  0.00  0.00    +0.174 C 
ATOM     17  C   UNL     1      -2.389   1.215  24.482  0.00  0.00    +0.123 C 
ATOM     32  C   UNL     1      -3.701  -0.499  24.800  0.00  0.00    +0.226 C 
ATOM     33  O   UNL     1      -4.369  -0.128  25.114  0.00  0.00    -0.275 OA
ENDROOT
BRANCH  10   7
ATOM      4  C   UNL     1       0.939   0.179  23.018  0.00  0.00    +0.048 A 
ATOM      5  C   UNL     1       0.250   0.235  22.569  0.00  0.00    +0.015 A 
ATOM      6  C   UNL     1      -0.417   0.606  22.883  0.00  0.00    +0.006 A 
ATOM      7  C   UNL     1      -0.395   0.921  23.645  0.00  0.00    +0.054 A 
ATOM      8  C   UNL     1       0.295   0.864  24.094  0.00  0.00    +0.006 A 
ATOM      9  C   UNL     1       0.962   0.494  23.781  0.00  0.00    +0.015 A 
BRANCH   4   2
ATOM      1  C   UNL     1       1.590  -0.488  21.935  0.00  0.00    +0.112 C 
ATOM      2  N   UNL     1       1.607  -0.192  22.705  0.00  0.00    -0.304 N 
ATOM      3  C   UNL     1       2.290  -0.266  23.161  0.00  0.00    +0.112 C 
ENDBRANCH   4   2
ENDBRANCH  10   7
BRANCH  32  34
ATOM     34  C   UNL     1      -3.695  -1.318  24.698  0.00  0.00    +0.077 C 
ATOM     35  C   UNL     1      -4.015  -1.650  24.013  0.00  0.00    +0.009 C 
ATOM     36  C   UNL     1      -4.009  -2.469  23.910  0.00  0.00    +0.000 C 
ATOM     37  C   UNL     1      -3.683  -2.955  24.492  0.00  0.00    +0.000 C 
ATOM     38  C   UNL     1      -3.363  -2.623  25.176  0.00  0.00    +0.000 C 
ATOM     39  C   UNL     1      -3.370  -1.805  25.279  0.00  0.00    +0.009 C 
ENDBRANCH  32  34
BRANCH  16  18
ATOM     18  C   UNL     1      -3.717   1.137  25.006  0.00  0.00    +0.262 C 
ATOM     19  O   UNL     1      -4.189   0.741  25.554  0.00  0.00    -0.271 OA
ATOM     20  N   UNL     1      -3.911   1.903  24.771  0.00  0.00    -0.196 NA
BRANCH  20  21
ATOM     21  C   UNL     1      -4.578   2.274  25.084  0.00  0.00    +0.174 C 
BRANCH  21  29
ATOM     29  C   UNL     1      -5.312   2.177  24.722  0.00  0.00    +0.281 C 
ATOM     30  N   UNL     1      -5.981   2.024  25.179  0.00  0.00    -0.086 NA
ATOM     31  O   UNL     1      -5.378   2.234  23.901  0.00  0.00    -0.270 OA
ENDBRANCH  21  29
BRANCH  21  22
ATOM     22  C   UNL     1      -4.511   2.742  25.760  0.00  0.00    +0.031 C 
BRANCH  22  23
ATOM     23  C   UNL     1      -4.046   3.422  25.747  0.00  0.00    +0.002 C 
ATOM     24  C   UNL     1      -3.489   3.553  26.342  0.00  0.00    +0.000 C 
ATOM     25  C   UNL     1      -3.023   4.234  26.329  0.00  0.00    +0.000 C 
ATOM     26  C   UNL     1      -3.114   4.784  25.720  0.00  0.00    +0.000 C 
ATOM     27  C   UNL     1      -3.670   4.653  25.126  0.00  0.00    +0.000 C 
ATOM     28  C   UNL     1      -4.136   3.973  25.139  0.00  0.00    +0.000 C 
ENDBRANCH  22  23
ENDBRANCH  21  22
ENDBRANCH  20  21
ENDBRANCH  16  18
TORSDOF 8
ENDMDL
MODEL 3
REMARK VINA RESULT:      -9.4      2.512      4.032
REMARK  Name = 
REMARK  8 active torsions:
REMARK  status: ('A' for Active; 'I' for Inactive)
REMARK    1  A    between atoms: N_2  and  C_4
REMARK    2  A    between atoms: C_7  and  C_10
REMARK    3  A    between atoms: C_16  and  C_18
REMARK    4  A    between atoms: N_20  and  C_21
REMARK    5  A    between atoms: C_21  and  C_22
REMARK    6  A    between atoms: C_21  and  C_29
REMARK    7  A    between atoms: C_22  and  C_23
REMARK    8  A    between atoms: C_32  and  C_34
REMARK                            x       y       z     vdW  Elec       q    Type
REMARK                         _______ _______ _______ _____ _____    ______ ____
ROOT
ATOM     10  C   UNL     1      -1.651   1.889  24.846  0.00  0.00    +0.249 C 
ATOM     11  O   UNL     1      -1.050   1.332  24.747  0.00  0.00    -0.270 OA
ATOM     12  N   UNL     1      -2.433   1.640  24.934  0.00  0.00    -0.272 N 
ATOM     13  C   UNL     1      -3.034   2.197  25.033  0.00  0.00    +0.115 C 
ATOM     14  C   UNL     1      -3.815   1.948  25.122  0.00  0.00    +0.115 C 
ATOM     15  N   UNL     1      -3.996   1.143  25.111  0.00  0.00    -0.270 N 
ATOM     16  C   UNL     1      -3.395   0.587  25.013  0.00  0.00    +0.174 C 
ATOM     17  C   UNL     1      -2.613   0.835  24.924  0.00  0.00    +0.123 C 
ATOM     32  C   UNL     1      -4.777   0.894  25.200  0.00  0.00    +0.226 C 
ATOM     33  O   UNL     1      -4.958   0.089  25.190  0.00  0.00    -0.275 OA
ENDROOT
BRANCH  10   7
ATOM      4  C   UNL     1      -1.110   4.303  24.876  0.00  0.00    +0.048 A 
ATOM      5  C   UNL     1      -1.160   3.882  25.584  0.00  0.00    +0.015 A 
ATOM      6  C   UNL     1      -1.340   3.078  25.574  0.00  0.00    +0.006 A 
ATOM      7  C   UNL     1      -1.471   2.693  24.856  0.00  0.00    +0.054 A 
ATOM      8  C   UNL     1      -1.421   3.114  24.147  0.00  0.00    +0.006 A 
ATOM      9  C   UNL     1      -1.240   3.919  24.157  0.00  0.00    +0.015 A 
BRANCH   4   2
ATOM      1  C   UNL     1      -1.506   5.657  25.103  0.00  0.00    +0.112 C 
ATOM      2  N   UNL     1      -0.929   5.108  24.886  0.00  0.00    -0.304 N 
ATOM      3  C   UNL     1      -0.173   5.364  24.681  0.00  0.00    +0.112 C 
ENDBRANCH   4   2
ENDBRANCH  10   7
BRANCH  32  34
ATOM     34  C   UNL     1      -5.379   1.451  25.299  0.00  0.00    +0.077 C 
ATOM     35  C   UNL     1      -5.552   1.741  26.051  0.00  0.00    +0.009 C 
ATOM     36  C   UNL     1      -6.154   2.297  26.151  0.00  0.00    +0.000 C 
ATOM     37  C   UNL     1      -6.582   2.562  25.498  0.00  0.00    +0.000 C 
ATOM     38  C   UNL     1      -6.409   2.272  24.745  0.00  0.00    +0.000 C 
ATOM     39  C   UNL     1      -5.808   1.716  24.646  0.00  0.00    +0.009 C 
ENDBRANCH  32  34
BRANCH  16  18
ATOM     18  C   UNL     1      -3.576  -0.219  25.002  0.00  0.00    +0.262 C 
ATOM     19  O   UNL     1      -4.105  -0.530  25.554  0.00  0.00    -0.271 OA
ATOM     20  N   UNL     1      -3.228  -0.712  24.441  0.00  0.00    -0.196 NA
BRANCH  20  21
ATOM     21  C   UNL     1      -3.409  -1.517  24.431  0.00  0.00    +0.174 C 
BRANCH  21  29
ATOM     29  C   UNL     1      -3.960  -1.810  23.891  0.00  0.00    +0.281 C 
ATOM     30  N   UNL     1      -4.461  -2.428  24.107  0.00  0.00    -0.086 NA
ATOM     31  O   UNL     1      -4.009  -1.484  23.134  0.00  0.00    -0.270 OA
ENDBRANCH  21  29
BRANCH  21  22
ATOM     22  C   UNL     1      -3.039  -2.030  24.960  0.00  0.00    +0.031 C 
BRANCH  22  23
ATOM     23  C   UNL     1      -2.245  -2.226  24.858  0.00  0.00    +0.002 C 
ATOM     24  C   UNL     1      -2.007  -2.653  24.192  0.00  0.00    +0.000 C 
ATOM     25  C   UNL     1      -1.213  -2.849  24.089  0.00  0.00    +0.000 C 
ATOM     26  C   UNL     1      -0.655  -2.619  24.653  0.00  0.00    +0.000 C 
ATOM     27  C   UNL     1      -0.892  -2.193  25.318  0.00  0.00    +0.000 C 
ATOM     28  C   UNL     1      -1.687  -1.997  25.420  0.00  0.00    +0.000 C 
ENDBRANCH  22  23
ENDBRANCH  21  22
ENDBRANCH  20  21
ENDBRANCH  16  18
TORSDOF 8
ENDMDL
MODEL 4
REMARK VINA RESULT:      -8.6      2.276      4.791
REMARK  Name = 
REMARK  8 active torsions:
REMARK  status: ('A' for Active; 'I' for Inactive)
REMARK    1  A    between atoms: N_2  and  C_4
REMARK    2  A    between atoms: C_7  and  C_10
REMARK    3  A    between atoms: C_16  and  C_18
REMARK    4  A    between atoms: N_20  and  C_21
REMARK    5  A    between atoms: C_21  and  C_22
REMARK    6  A    between atoms: C_21  and  C_29
REMARK    7  A    between atoms: C_22  and  C_23
REMARK    8  A    between atoms: C_32  and  C_34
REMARK                            x       y       z     vdW  Elec       q    Type
REMARK                         _______ _______ _______ _____ _____    ______ ____
ROOT
ATOM     10  C   UNL     1      -4.229   1.470  24.880  0.00  0.00    +0.249 C 
ATOM     11  O   UNL     1      -4.657   0.792  24.681  0.00  0.00    -0.270 OA
ATOM     12  N   UNL     1      -3.406   1.441  24.918  0.00  0.00    -0.272 N 
ATOM     13  C   UNL     1      -2.979   2.119  25.117  0.00  0.00    +0.115 C 
ATOM     14  C   UNL     1      -2.155   2.090  25.155  0.00  0.00    +0.115 C 
ATOM     15  N   UNL     1      -1.759   1.385  24.995  0.00  0.00    -0.270 N 
ATOM     16  C   UNL     1      -2.186   0.708  24.796  0.00  0.00    +0.174 C 
ATOM     17  C   UNL     1      -3.009   0.736  24.758  0.00  0.00    +0.123 C 
ATOM     32  C   UNL     1      -0.936   1.357  25.033  0.00  0.00    +0.226 C 
ATOM     33  O   UNL     1      -0.539   0.651  24.873  0.00  0.00    -0.275 OA
ENDROOT
BRANCH  10   7
ATOM      4  C   UNL     1      -5.419   3.585  25.361  0.00  0.00    +0.048 A 
ATOM      5  C   UNL     1      -5.431   2.971  25.911  0.00  0.00    +0.015 A 
ATOM      6  C   UNL     1      -5.034   2.266  25.751  0.00  0.00    +0.006 A 
ATOM      7  C   UNL     1      -4.626   2.174  25.040  0.00  0.00    +0.054 A 
ATOM      8  C   UNL     1      -4.614   2.789  24.489  0.00  0.00    +0.006 A 
ATOM      9  C   UNL     1      -5.011   3.494  24.650  0.00  0.00    +0.015 A 
BRANCH   4   2
ATOM      1  C   UNL     1      -6.593   4.273  25.799  0.00  0.00    +0.112 C 
ATOM      2  N   UNL     1      -5.816   4.291  25.522  0.00  0.00    -0.304 N 
ATOM      3  C   UNL     1      -5.436   5.013  25.405  0.00  0.00    +0.112 C 
ENDBRANCH   4   2
ENDBRANCH  10   7
BRANCH  32  34
ATOM     34  C   UNL     1      -0.508   2.034  25.232  0.00  0.00    +0.077 C 
ATOM     35  C   UNL     1      -0.282   2.164  26.015  0.00  0.00    +0.009 C 
ATOM     36  C   UNL     1       0.146   2.841  26.214  0.00  0.00    +0.000 C 
ATOM     37  C   UNL     1       0.347   3.388  25.630  0.00  0.00    +0.000 C 
ATOM     38  C   UNL     1       0.121   3.259  24.848  0.00  0.00    +0.000 C 
ATOM     39  C   UNL     1      -0.306   2.582  24.649  0.00  0.00    +0.009 C 
ENDBRANCH  32  34
BRANCH  16  18
ATOM     18  C   UNL     1      -1.788   0.002  24.636  0.00  0.00    +0.262 C 
ATOM     19  O   UNL     1      -1.178  -0.011  24.080  0.00  0.00    -0.271 OA
ATOM     20  N   UNL     1      -2.002  -0.690  25.030  0.00  0.00    -0.196 NA
BRANCH  20  21
ATOM     21  C   UNL     1      -1.605  -1.395  24.870  0.00  0.00    +0.174 C 
BRANCH  21  29
ATOM     29  C   UNL     1      -0.953  -1.614  25.325  0.00  0.00    +0.281 C 
ATOM     30  N   UNL     1      -0.276  -1.910  24.959  0.00  0.00    -0.086 NA
ATOM     31  O   UNL     1      -0.978  -1.538  26.146  0.00  0.00    -0.270 OA
ENDBRANCH  21  29
BRANCH  21  22
ATOM     22  C   UNL     1      -1.860  -1.882  24.255  0.00  0.00    +0.031 C 
BRANCH  22  23
ATOM     23  C   UNL     1      -2.578  -2.282  24.316  0.00  0.00    +0.002 C 
ATOM     24  C   UNL     1      -3.182  -2.133  23.773  0.00  0.00    +0.000 C 
ATOM     25  C   UNL     1      -3.900  -2.534  23.835  0.00  0.00    +0.000 C 
ATOM     26  C   UNL     1      -4.015  -3.084  24.440  0.00  0.00    +0.000 C 
ATOM     27  C   UNL     1      -3.412  -3.233  24.982  0.00  0.00    +0.000 C 
ATOM     28  C   UNL     1      -2.694  -2.832  24.920  0.00  0.00    +0.000 C 
ENDBRANCH  22  23
ENDBRANCH  21  22
ENDBRANCH  20  21
ENDBRANCH  16  18
TORSDOF 8
ENDMDL
MODEL 5
REMARK VINA RESULT:      -8.4      1.397      5.287
REMARK  Name = 
REMARK  8 active torsions:
REMARK  status: ('A' for Active; 'I' for Inactive)
REMARK    1  A    between atoms: N_2  and  C_4
REMARK    2  A    between atoms: C_7  and  C_10
REMARK    3  A    between atoms: C_16  and  C_18
REMARK    4  A    between atoms: N_20  and  C_21
REMARK    5  A    between atoms: C_21  and  C_22
REMARK    6  A    between atoms: C_21  and  C_29
REMARK    7  A    between atoms: C_22  and  C_23
REMARK    8  A    between atoms: C_32  and  C_34
REMARK                            x       y       z     vdW  Elec       q    Type
REMARK                         _______ _______ _______ _____ _____    ______ ____
ROOT
ATOM     10  C   UNL     1      -2.421  -0.270  25.202  0.00  0.00    +0.249 C 
ATOM     11  O   UNL     1      -2.748   0.151  25.832  0.00  0.00    -0.270 OA
ATOM     12  N   UNL     1      -1.710  -0.022  24.865  0.00  0.00    -0.272 N 
ATOM     13  C   UNL     1      -1.383  -0.443  24.235  0.00  0.00    +0.115 C 
ATOM     14  C   UNL     1      -0.672  -0.195  23.899  0.00  0.00    +0.115 C 
ATOM     15  N   UNL     1      -0.288   0.474  24.192  0.00  0.00    -0.270 N 
ATOM     16  C   UNL     1      -0.615   0.894  24.821  0.00  0.00    +0.174 C 
ATOM     17  C   UNL     1      -1.326   0.647  25.159  0.00  0.00    +0.123 C 
ATOM     32  C   UNL     1       0.423   0.722  23.855  0.00  0.00    +0.226 C 
ATOM     33  O   UNL     1       0.808   1.391  24.149  0.00  0.00    -0.275 OA
ENDROOT
BRANCH  10   7
ATOM      4  C   UNL     1      -3.573  -2.276  24.323  0.00  0.00    +0.048 A 
ATOM      5  C   UNL     1      -3.793  -1.526  24.060  0.00  0.00    +0.015 A 
ATOM      6  C   UNL     1      -3.409  -0.857  24.353  0.00  0.00    +0.006 A 
ATOM      7  C   UNL     1      -2.805  -0.938  24.909  0.00  0.00    +0.054 A 
ATOM      8  C   UNL     1      -2.585  -1.689  25.172  0.00  0.00    +0.006 A 
ATOM      9  C   UNL     1      -2.969  -2.358  24.879  0.00  0.00    +0.015 A 
BRANCH   4   2
ATOM      1  C   UNL     1      -3.662  -3.697  24.197  0.00  0.00    +0.112 C 
ATOM      2  N   UNL     1      -3.958  -2.945  24.030  0.00  0.00    -0.304 N 
ATOM      3  C   UNL     1      -4.636  -2.862  23.570  0.00  0.00    +0.112 C 
ENDBRANCH   4   2
ENDBRANCH  10   7
BRANCH  32  34
ATOM     34  C   UNL     1       0.750   0.301  23.225  0.00  0.00    +0.077 C 
ATOM     35  C   UNL     1       1.477  -0.079  23.317  0.00  0.00    +0.009 C 
ATOM     36  C   UNL     1       1.805  -0.500  22.687  0.00  0.00    +0.000 C 
ATOM     37  C   UNL     1       1.407  -0.539  21.966  0.00  0.00    +0.000 C 
ATOM     38  C   UNL     1       0.680  -0.159  21.874  0.00  0.00    +0.000 C 
ATOM     39  C   UNL     1       0.353   0.261  22.503  0.00  0.00    +0.009 C 
ENDBRANCH  32  34
BRANCH  16  18
ATOM     18  C   UNL     1      -0.230   1.564  25.115  0.00  0.00    +0.262 C 
ATOM     19  O   UNL     1       0.581   1.659  24.994  0.00  0.00    -0.271 OA
ATOM     20  N   UNL     1      -0.656   2.136  25.527  0.00  0.00    -0.196 NA
BRANCH  20  21
ATOM     21  C   UNL     1      -0.272   2.805  25.820  0.00  0.00    +0.174 C 
BRANCH  21  29
ATOM     29  C   UNL     1       0.078   2.786  26.567  0.00  0.00    +0.281 C 
ATOM     30  N   UNL     1       0.862   3.020  26.661  0.00  0.00    -0.086 NA
ATOM     31  O   UNL     1      -0.359   2.533  27.221  0.00  0.00    -0.270 OA
ENDBRANCH  21  29
BRANCH  21  22
ATOM     22  C   UNL     1      -0.237   3.493  25.367  0.00  0.00    +0.031 C 
BRANCH  22  23
ATOM     23  C   UNL     1      -0.881   4.007  25.348  0.00  0.00    +0.002 C 
ATOM     24  C   UNL     1      -1.607   3.773  25.664  0.00  0.00    +0.000 C 
ATOM     25  C   UNL     1      -2.251   4.287  25.645  0.00  0.00    +0.000 C 
ATOM     26  C   UNL     1      -2.170   5.037  25.309  0.00  0.00    +0.000 C 
ATOM     27  C   UNL     1      -1.445   5.272  24.994  0.00  0.00    +0.000 C 
ATOM     28  C   UNL     1      -0.801   4.757  25.013  0.00  0.00    +0.000 C 
ENDBRANCH  22  23
ENDBRANCH  21  22
ENDBRANCH  20  21
ENDBRANCH  16  18
TORSDOF 8
ENDMDL
MODEL 6
REMARK VINA RESULT:      -8.1      1.571      5.017
REMARK  Name = 
REMARK  8 active torsions:
REMARK  status: ('A' for Active; 'I' for Inactive)
REMARK    1  A    between atoms: N_2  and  C_4
REMARK    2  A    between atoms: C_7  and  C_10
REMARK    3  A    between atoms: C_16  and  C_18
REMARK    4  A    between atoms: N_20  and  C_21
REMARK    5  A    between atoms: C_21  and  C_22
REMARK    6  A    between atoms: C_21  and  C_29
REMARK    7  A    between atoms: C_22  and  C_23
REMARK    8  A    between atoms: C_32  and  C_34
REMARK                            x       y       z     vdW  Elec       q    Type
REMARK                         _______ _______ _______ _____ _____    ______ ____
ROOT
ATOM     10  C   UNL     1      -3.298   0.046  24.713  0.00  0.00    +0.249 C 
ATOM     11  O   UNL     1      -3.883   0.540  25.022  0.00  0.00    -0.270 OA
ATOM     12  N   UNL     1      -2.571   0.362  24.486  0.00  0.00    -0.272 N 
ATOM     13  C   UNL     1      -1.986  -0.131  24.177  0.00  0.00    +0.115 C 
ATOM     14  C   UNL     1      -1.258   0.184  23.949  0.00  0.00    +0.115 C 
ATOM     15  N   UNL     1      -1.115   0.993  24.031  0.00  0.00    -0.270 N 
ATOM     16  C   UNL     1      -1.700   1.485  24.340  0.00  0.00    +0.174 C 
ATOM     17  C   UNL     1      -2.428   1.171  24.567  0.00  0.00    +0.123 C 
ATOM     32  C   UNL     1      -0.388   1.308  23.804  0.00  0.00    +0.226 C 
ATOM     33  O   UNL     1      -0.245   2.117  23.885  0.00  0.00    -0.275 OA
ENDROOT
BRANCH  10   7
ATOM      4  C   UNL     1      -3.727  -2.378  24.469  0.00  0.00    +0.048 A 
ATOM      5  C   UNL     1      -3.986  -1.853  23.888  0.00  0.00    +0.015 A 
ATOM      6  C   UNL     1      -3.843  -1.045  23.969  0.00  0.00    +0.006 A 
ATOM      7  C   UNL     1      -3.441  -0.761  24.632  0.00  0.00    +0.054 A 
ATOM      8  C   UNL     1      -3.182  -1.287  25.213  0.00  0.00    +0.006 A 
ATOM      9  C   UNL     1      -3.325  -2.095  25.132  0.00  0.00    +0.015 A 
BRANCH   4   2
ATOM      1  C   UNL     1      -3.497  -3.724  24.890  0.00  0.00    +0.112 C 
ATOM      2  N   UNL     1      -3.870  -3.187  24.387  0.00  0.00    -0.304 N 
ATOM      3  C   UNL     1      -4.385  -3.458  23.803  0.00  0.00    +0.112 C 
ENDBRANCH   4   2
ENDBRANCH  10   7
BRANCH  32  34
ATOM     34  C   UNL     1       0.197   0.815  23.494  0.00  0.00    +0.077 C 
ATOM     35  C   UNL     1       0.087   0.455  22.760  0.00  0.00    +0.009 C 
ATOM     36  C   UNL     1       0.672  -0.038  22.450  0.00  0.00    +0.000 C 
ATOM     37  C   UNL     1       1.367  -0.171  22.875  0.00  0.00    +0.000 C 
ATOM     38  C   UNL     1       1.477   0.189  23.610  0.00  0.00    +0.000 C 
ATOM     39  C   UNL     1       0.892   0.681  23.919  0.00  0.00    +0.009 C 
ENDBRANCH  32  34
BRANCH  16  18
ATOM     18  C   UNL     1      -1.557   2.295  24.421  0.00  0.00    +0.262 C 
ATOM     19  O   UNL     1      -1.183   2.710  23.814  0.00  0.00    -0.271 OA
ATOM     20  N   UNL     1      -1.788   2.687  25.109  0.00  0.00    -0.196 NA
BRANCH  20  21
ATOM     21  C   UNL     1      -1.645   3.495  25.190  0.00  0.00    +0.174 C 
BRANCH  21  29
ATOM     29  C   UNL     1      -0.941   3.758  25.531  0.00  0.00    +0.281 C 
ATOM     30  N   UNL     1      -0.540   4.401  25.207  0.00  0.00    -0.086 NA
ATOM     31  O   UNL     1      -0.639   3.376  26.198  0.00  0.00    -0.270 OA
ENDBRANCH  21  29
BRANCH  21  22
ATOM     22  C   UNL     1      -2.205   4.042  24.930  0.00  0.00    +0.031 C 
BRANCH  22  23
ATOM     23  C   UNL     1      -2.948   4.073  25.287  0.00  0.00    +0.002 C 
ATOM     24  C   UNL     1      -3.630   4.017  24.825  0.00  0.00    +0.000 C 
ATOM     25  C   UNL     1      -4.373   4.048  25.182  0.00  0.00    +0.000 C 
ATOM     26  C   UNL     1      -4.434   4.135  26.000  0.00  0.00    +0.000 C 
ATOM     27  C   UNL     1      -3.753   4.190  26.461  0.00  0.00    +0.000 C 
ATOM     28  C   UNL     1      -3.010   4.159  26.104  0.00  0.00    +0.000 C 
ENDBRANCH  22  23
ENDBRANCH  21  22
ENDBRANCH  20  21
ENDBRANCH  16  18
TORSDOF 8
ENDMDL
MODEL 7
REMARK VINA RESULT:      -7.8      1.369      3.956
REMARK  Name = 
REMARK  8 active torsions:
REMARK  status: ('A' for Active; 'I' for Inactive)
REMARK    1  A    between atoms: N_2  and  C_4
REMARK    2  A    between atoms: C_7  and  C_10
REMARK    3  A    between atoms: C_16  and  C_18
REMARK    4  A    between atoms: N_20  and  C_21
REMARK    5  A    between atoms: C_21  and  C_22
REMARK    6  A    between atoms: C_21  and  C_29
REMARK    7  A    between atoms: C_22  and  C_23
REMARK    8  A    between atoms: C_32  and  C_34
REMARK                            x       y       z     vdW  Elec       q    Type
REMARK                         _______ _______ _______ _____ _____    ______ ____
ROOT
ATOM     10  C   UNL     1      -2.073   2.339  25.522  0.00  0.00    +0.249 C 
ATOM     11  O   UNL     1      -2.713   2.206  26.026  0.00  0.00    -0.270 OA
ATOM     12  N   UNL     1      -1.666   1.700  25.196  0.00  0.00    -0.272 N 
ATOM     13  C   UNL     1      -1.026   1.832  24.692  0.00  0.00    +0.115 C 
ATOM     14  C   UNL     1      -0.619   1.193  24.366  0.00  0.00    +0.115 C 
ATOM     15  N   UNL     1      -0.851   0.422  24.544  0.00  0.00    -0.270 N 
ATOM     16  C   UNL     1      -1.491   0.290  25.047  0.00  0.00    +0.174 C 
ATOM     17  C   UNL     1      -1.898   0.928  25.374  0.00  0.00    +0.123 C 
ATOM     32  C   UNL     1      -0.444  -0.217  24.218  0.00  0.00    +0.226 C 
ATOM     33  O   UNL     1      -0.677  -0.989  24.395  0.00  0.00    -0.275 OA
ENDROOT
BRANCH  10   7
ATOM      4  C   UNL     1      -1.376   4.652  24.989  0.00  0.00    +0.048 A 
ATOM      5  C   UNL     1      -2.036   4.325  24.618  0.00  0.00    +0.015 A 
ATOM      6  C   UNL     1      -2.268   3.553  24.796  0.00  0.00    +0.006 A 
ATOM      7  C   UNL     1      -1.841   3.109  25.344  0.00  0.00    +0.054 A 
ATOM      8  C   UNL     1      -1.181   3.438  25.715  0.00  0.00    +0.006 A 
ATOM      9  C   UNL     1      -0.948   4.209  25.538  0.00  0.00    +0.015 A 
BRANCH   4   2
ATOM      1  C   UNL     1      -0.396   5.567  24.492  0.00  0.00    +0.112 C 
ATOM      2  N   UNL     1      -1.144   5.425  24.811  0.00  0.00    -0.304 N 
ATOM      3  C   UNL     1      -1.659   6.053  24.952  0.00  0.00    +0.112 C 
ENDBRANCH   4   2
ENDBRANCH  10   7
BRANCH  32  34
ATOM     34  C   UNL     1       0.196  -0.085  23.713  0.00  0.00    +0.077 C 
ATOM     35  C   UNL     1       0.895   0.236  24.011  0.00  0.00    +0.009 C 
ATOM     36  C   UNL     1       1.536   0.369  23.507  0.00  0.00    +0.000 C 
ATOM     37  C   UNL     1       1.476   0.179  22.707  0.00  0.00    +0.000 C 
ATOM     38  C   UNL     1       0.777  -0.142  22.409  0.00  0.00    +0.000 C 
ATOM     39  C   UNL     1       0.137  -0.274  22.912  0.00  0.00    +0.009 C 
ENDBRANCH  32  34
BRANCH  16  18
ATOM     18  C   UNL     1      -1.723  -0.483  25.225  0.00  0.00    +0.262 C 
ATOM     19  O   UNL     1      -1.160  -1.039  25.458  0.00  0.00    -0.271 OA
ATOM     20  N   UNL     1      -2.517  -0.697  25.169  0.00  0.00    -0.196 NA
BRANCH  20  21
ATOM     21  C   UNL     1      -2.749  -1.469  25.347  0.00  0.00    +0.174 C 
BRANCH  21  29
ATOM     29  C   UNL     1      -3.006  -1.658  26.107  0.00  0.00    +0.281 C 
ATOM     30  N   UNL     1      -2.706  -2.322  26.491  0.00  0.00    -0.086 NA
ATOM     31  O   UNL     1      -3.565  -1.181  26.484  0.00  0.00    -0.270 OA
ENDBRANCH  21  29
BRANCH  21  22
ATOM     22  C   UNL     1      -2.725  -2.052  24.764  0.00  0.00    +0.031 C 
BRANCH  22  23
ATOM     23  C   UNL     1      -3.400  -2.224  24.324  0.00  0.00    +0.002 C 
ATOM     24  C   UNL     1      -3.627  -3.009  24.206  0.00  0.00    +0.000 C 
ATOM     25  C   UNL     1      -4.303  -3.182  23.766  0.00  0.00    +0.000 C 
ATOM     26  C   UNL     1      -4.752  -2.569  23.444  0.00  0.00    +0.000 C 
ATOM     27  C   UNL     1      -4.526  -1.785  23.561  0.00  0.00    +0.000 C 
ATOM     28  C   UNL     1      -3.850  -1.613  24.001  0.00  0.00    +0.000 C 
ENDBRANCH  22  23
ENDBRANCH  21  22
ENDBRANCH  20  21
ENDBRANCH  16  18
TORSDOF 8
ENDMDL
MODEL 8
REMARK VINA RESULT:      -7.8      2.319      5.167
REMARK  Name = 
REMARK  8 active torsions:
REMARK  status: ('A' for Active; 'I' for Inactive)
REMARK    1  A    between atoms: N_2  and  C_4
REMARK    2  A    between atoms: C_7  and  C_10
REMARK    3  A    between atoms: C_16  and  C_18
REMARK    4  A    between atoms: N_20  and  C_21
REMARK    5  A    between atoms: C_21  and  C_22
REMARK    6  A    between atoms: C_21  and  C_29
REMARK    7  A    between atoms: C_22  and  C_23
REMARK    8  A    between atoms: C_32  and  C_34
REMARK                            x       y       z     vdW  Elec       q    Type
REMARK                         _______ _______ _______ _____ _____    ______ ____
ROOT
ATOM     10  C   UNL     1      -2.603  -0.101  24.464  0.00  0.00    +0.249 C 
ATOM     11  O   UNL     1      -1.802   0.031  24.312  0.00  0.00    -0.270 OA
ATOM     12  N   UNL     1      -3.098   0.534  24.641  0.00  0.00    -0.272 N 
ATOM     13  C   UNL     1      -3.899   0.402  24.793  0.00  0.00    +0.115 C 
ATOM     14  C   UNL     1      -4.395   1.038  24.969  0.00  0.00    +0.115 C 
ATOM     15  N   UNL     1      -4.091   1.804  24.995  0.00  0.00    -0.270 N 
ATOM     16  C   UNL     1      -3.291   1.936  24.843  0.00  0.00    +0.174 C 
ATOM     17  C   UNL     1      -2.794   1.301  24.666  0.00  0.00    +0.123 C 
ATOM     32  C   UNL     1      -4.587   2.438  25.171  0.00  0.00    +0.226 C 
ATOM     33  O   UNL     1      -4.283   3.206  25.197  0.00  0.00    -0.275 OA
ENDROOT
BRANCH  10   7
ATOM      4  C   UNL     1      -3.514  -2.400  24.388  0.00  0.00    +0.048 A 
ATOM      5  C   UNL     1      -3.679  -1.871  23.777  0.00  0.00    +0.015 A 
ATOM      6  C   UNL     1      -3.375  -1.104  23.803  0.00  0.00    +0.006 A 
ATOM      7  C   UNL     1      -2.906  -0.866  24.439  0.00  0.00    +0.054 A 
ATOM      8  C   UNL     1      -2.742  -1.396  25.050  0.00  0.00    +0.006 A 
ATOM      9  C   UNL     1      -3.046  -2.163  25.025  0.00  0.00    +0.015 A 
BRANCH   4   2
ATOM      1  C   UNL     1      -4.392  -3.365  23.804  0.00  0.00    +0.112 C 
ATOM      2  N   UNL     1      -3.819  -3.167  24.363  0.00  0.00    -0.304 N 
ATOM      3  C   UNL     1      -3.549  -3.735  24.896  0.00  0.00    +0.112 C 
ENDBRANCH   4   2
ENDBRANCH  10   7
BRANCH  32  34
ATOM     34  C   UNL     1      -5.387   2.307  25.323  0.00  0.00    +0.077 C 
ATOM     35  C   UNL     1      -5.667   2.319  26.100  0.00  0.00    +0.009 C 
ATOM     36  C   UNL     1      -6.467   2.188  26.252  0.00  0.00    +0.000 C 
ATOM     37  C   UNL     1      -6.988   2.045  25.628  0.00  0.00    +0.000 C 
ATOM     38  C   UNL     1      -6.708   2.034  24.852  0.00  0.00    +0.000 C 
ATOM     39  C   UNL     1      -5.909   2.165  24.700  0.00  0.00    +0.009 C 
ENDBRANCH  32  34
BRANCH  16  18
ATOM     18  C   UNL     1      -2.987   2.703  24.868  0.00  0.00    +0.262 C 
ATOM     19  O   UNL     1      -3.305   3.288  24.381  0.00  0.00    -0.271 OA
ATOM     20  N   UNL     1      -2.366   2.883  25.380  0.00  0.00    -0.196 NA
BRANCH  20  21
ATOM     21  C   UNL     1      -2.062   3.650  25.405  0.00  0.00    +0.174 C 
BRANCH  21  29
ATOM     29  C   UNL     1      -2.390   4.208  25.917  0.00  0.00    +0.281 C 
ATOM     30  N   UNL     1      -2.536   4.974  25.653  0.00  0.00    -0.086 NA
ATOM     31  O   UNL     1      -2.572   3.997  26.694  0.00  0.00    -0.270 OA
ENDBRANCH  21  29
BRANCH  21  22
ATOM     22  C   UNL     1      -1.430   3.860  24.919  0.00  0.00    +0.031 C 
BRANCH  22  23
ATOM     23  C   UNL     1      -0.724   3.436  24.954  0.00  0.00    +0.002 C 
ATOM     24  C   UNL     1      -0.334   3.226  24.257  0.00  0.00    +0.000 C 
ATOM     25  C   UNL     1       0.373   2.802  24.292  0.00  0.00    +0.000 C 
ATOM     26  C   UNL     1       0.689   2.588  25.024  0.00  0.00    +0.000 C 
ATOM     27  C   UNL     1       0.300   2.798  25.720  0.00  0.00    +0.000 C 
ATOM     28  C   UNL     1      -0.407   3.222  25.684  0.00  0.00    +0.000 C 
ENDBRANCH  22  23
ENDBRANCH  21  22
ENDBRANCH  20  21
ENDBRANCH  16  18
TORSDOF 8
ENDMDL
