MODEL 1
REMARK VINA RESULT:     -12.5      0.000      0.000
REMARK  Name = 
REMARK  6 active torsions:
REMARK  status: ('A' for Active; 'I' for Inactive)
REMARK    1  A    between atoms: C_2  and  C_3
REMARK    2  A    between atoms: C_2  and  C_27
REMARK    3  A    between atoms: C_10  and  N_11
REMARK    4  A    between atoms: N_14  and  C_15
REMARK    5  A    between atoms: N_29  and  C_30
REMARK    6  A    between atoms: C_30  and  C_31
REMARK                            x       y       z     vdW  Elec       q    Type
REMARK                         _______ _______ _______ _____ _____    ______ ____
ROOT
ATOM      3  C   UNL     1      -4.002   3.318  24.931  0.00  0.00    +0.039 C 
ATOM      4  C   UNL     1      -4.588   3.335  25.513  0.00  0.00    +0.003 C 
ATOM      5  C   UNL     1      -5.043   2.664  25.660  0.00  0.00    +0.000 C 
ATOM      6  C   UNL     1      -4.913   1.975  25.226  0.00  0.00    +0.002 C 
ATOM      7  C   UNL     1      -5.497   1.992  25.807  0.00  0.00    +0.000 C 
ATOM      8  C   UNL     1      -5.368   1.302  25.373  0.00  0.00    +0.002 C 
ATOM      9  C   UNL     1      -5.238   0.613  24.939  0.00  0.00    +0.022 C 
ATOM     10  C   UNL     1      -4.652   0.596  24.357  0.00  0.00    +0.097 C 
ATOM     22  C   UNL     1      -4.198   1.268  24.210  0.00  0.00    +0.023 C 
ATOM     23  C   UNL     1      -3.613   1.251  23.629  0.00  0.00    +0.002 C 
ATOM     24  C   UNL     1      -4.327   1.958  24.644  0.00  0.00    +0.032 C 
ATOM     25  C   UNL     1      -3.872   2.630  24.497  0.00  0.00    +0.152 C 
ATOM     26  O   UNL     1      -3.287   2.613  23.916  0.00  0.00    -0.223 OA
ENDROOT
BRANCH  10  11
ATOM     11  N   UNL     1      -4.523  -0.093  23.923  0.00  0.00    -0.189 NA
ATOM     12  C   UNL     1      -4.110  -0.722  24.260  0.00  0.00    +0.343 C 
ATOM     13  O   UNL     1      -3.827  -0.663  25.034  0.00  0.00    -0.249 OA
ATOM     14  N   UNL     1      -3.981  -1.412  23.826  0.00  0.00    -0.161 NA
BRANCH  14  15
ATOM     15  C   UNL     1      -3.569  -2.041  24.164  0.00  0.00    +0.077 A 
ATOM     16  C   UNL     1      -3.981  -2.685  24.475  0.00  0.00    +0.017 A 
ATOM     17  C   UNL     1      -3.568  -3.315  24.813  0.00  0.00    +0.004 A 
ATOM     18  C   UNL     1      -2.744  -3.301  24.840  0.00  0.00    +0.030 A 
ATOM     19  C   UNL     1      -2.332  -2.657  24.528  0.00  0.00    +0.141 A 
ATOM     20  F   UNL     1      -1.507  -2.644  24.555  0.00  0.00    -0.204 F 
ATOM     21  C   UNL     1      -2.744  -2.028  24.190  0.00  0.00    +0.046 A 
ENDBRANCH  14  15
ENDBRANCH  10  11
BRANCH   3   2
ATOM      1  C   UNL     1      -3.732   4.485  24.150  0.00  0.00    +0.010 C 
ATOM      2  C   UNL     1      -3.547   3.991  24.785  0.00  0.00    +0.081 C 
BRANCH   2  27
ATOM     27  C   UNL     1      -2.907   4.170  25.273  0.00  0.00    +0.241 C 
ATOM     28  O   UNL     1      -3.003   4.691  25.906  0.00  0.00    -0.273 OA
ATOM     29  N   UNL     1      -2.169   3.827  25.129  0.00  0.00    -0.200 NA
BRANCH  29  30
ATOM     30  C   UNL     1      -1.530   4.006  25.617  0.00  0.00    +0.148 C 
BRANCH  30  31
ATOM     31  C   UNL     1      -0.885   3.493  25.657  0.00  0.00    +0.029 A 
ATOM     32  C   UNL     1      -0.757   2.918  26.235  0.00  0.00    +0.004 A 
ATOM     33  C   UNL     1      -0.048   2.535  26.060  0.00  0.00    +0.007 A 
ATOM     34  C   UNL     1       0.263   2.873  25.374  0.00  0.00    +0.035 A 
ATOM     35  S   UNL     1      -0.254   3.465  25.125  0.00  0.00    -0.089 S 
ENDBRANCH  30  31
ENDBRANCH  29  30
ENDBRANCH   2  27
ENDBRANCH   3   2
TORSDOF 6
ENDMDL
MODEL 2
REMARK VINA RESULT:     -12.1      1.949      3.570
REMARK  Name = 
REMARK  6 active torsions:
REMARK  status: ('A' for Active; 'I' for Inactive)
REMARK    1  A    between atoms: C_2  and  C_3
REMARK    2  A    between atoms: C_2  and  C_27
REMARK    3  A    between atoms: C_10  and  N_11
REMARK    4  A    between atoms: N_14  and  C_15
REMARK    5  A    between atoms: N_29  and  C_30
REMARK    6  A    between atoms: C_30  and  C_31
REMARK                            x       y       z     vdW  Elec       q    Type
REMARK                         _______ _______ _______ _____ _____    ______ ____
ROOT
ATOM      3  C   UNL     1      -0.142   2.135  25.212  0.00  0.00    +0.039 C 
ATOM      4  C   UNL     1       0.288   2.141  24.507  0.00  0.00    +0.003 C 
ATOM      5  C   UNL     1       0.328   1.461  24.043  0.00  0.00    +0.000 C 
ATOM      6  C   UNL     1      -0.060   0.775  24.283  0.00  0.00    +0.002 C 
ATOM      7  C   UNL     1       0.369   0.780  23.579  0.00  0.00    +0.000 C 
ATOM      8  C   UNL     1      -0.020   0.093  23.819  0.00  0.00    +0.002 C 
ATOM      9  C   UNL     1      -0.409  -0.593  24.059  0.00  0.00    +0.022 C 
ATOM     10  C   UNL     1      -0.839  -0.599  24.764  0.00  0.00    +0.097 C 
ATOM     22  C   UNL     1      -0.879   0.081  25.228  0.00  0.00    +0.023 C 
ATOM     23  C   UNL     1      -1.308   0.075  25.932  0.00  0.00    +0.002 C 
ATOM     24  C   UNL     1      -0.490   0.769  24.988  0.00  0.00    +0.032 C 
ATOM     25  C   UNL     1      -0.530   1.449  25.452  0.00  0.00    +0.152 C 
ATOM     26  O   UNL     1      -0.960   1.443  26.156  0.00  0.00    -0.223 OA
ENDROOT
BRANCH  10  11
ATOM     11  N   UNL     1      -1.228  -1.286  25.004  0.00  0.00    -0.189 NA
ATOM     12  C   UNL     1      -1.925  -1.518  24.631  0.00  0.00    +0.343 C 
ATOM     13  O   UNL     1      -2.235  -1.061  24.016  0.00  0.00    -0.249 OA
ATOM     14  N   UNL     1      -2.314  -2.205  24.870  0.00  0.00    -0.161 NA
BRANCH  14  15
ATOM     15  C   UNL     1      -3.012  -2.436  24.497  0.00  0.00    +0.077 A 
ATOM     16  C   UNL     1      -3.077  -3.196  24.179  0.00  0.00    +0.017 A 
ATOM     17  C   UNL     1      -3.776  -3.427  23.805  0.00  0.00    +0.004 A 
ATOM     18  C   UNL     1      -4.408  -2.901  23.749  0.00  0.00    +0.030 A 
ATOM     19  C   UNL     1      -4.342  -2.141  24.068  0.00  0.00    +0.141 A 
ATOM     20  F   UNL     1      -4.975  -1.615  24.012  0.00  0.00    -0.204 F 
ATOM     21  C   UNL     1      -3.645  -1.910  24.441  0.00  0.00    +0.046 A 
ENDBRANCH  14  15
ENDBRANCH  10  11
BRANCH   3   2
ATOM      1  C   UNL     1       0.250   2.865  26.378  0.00  0.00    +0.010 C 
ATOM      2  C   UNL     1      -0.182   2.817  25.676  0.00  0.00    +0.081 C 
BRANCH   2  27
ATOM     27  C   UNL     1      -0.654   3.450  25.438  0.00  0.00    +0.241 C 
ATOM     28  O   UNL     1      -0.324   4.071  25.006  0.00  0.00    -0.273 OA
ATOM     29  N   UNL     1      -1.456   3.463  25.631  0.00  0.00    -0.200 NA
BRANCH  29  30
ATOM     30  C   UNL     1      -1.928   4.095  25.393  0.00  0.00    +0.148 C 
BRANCH  30  31
ATOM     31  C   UNL     1      -2.749   4.036  25.434  0.00  0.00    +0.029 A 
ATOM     32  C   UNL     1      -3.205   4.073  26.122  0.00  0.00    +0.004 A 
ATOM     33  C   UNL     1      -3.997   3.990  25.907  0.00  0.00    +0.007 A 
ATOM     34  C   UNL     1      -4.031   3.902  25.087  0.00  0.00    +0.035 A 
ATOM     35  S   UNL     1      -3.260   3.930  24.795  0.00  0.00    -0.089 S 
ENDBRANCH  30  31
ENDBRANCH  29  30
ENDBRANCH   2  27
ENDBRANCH   3   2
TORSDOF 6
ENDMDL
MODEL 3
REMARK VINA RESULT:     -11.8      3.243      5.240
REMARK  Name = 
REMARK  6 active torsions:
REMARK  status: ('A' for Active; 'I' for Inactive)
REMARK    1  A    between atoms: C_2  and  C_3
REMARK    2  A    between atoms: C_2  and  C_27
REMARK    3  A    between atoms: C_10  and  N_11
REMARK    4  A    between atoms: N_14  and  C_15
REMARK    5  A    between atoms: N_29  and  C_30
REMARK    6  A    between atoms: C_30  and  C_31
REMARK                            x       y       z     vdW  Elec       q    Type
REMARK                         _______ _______ _______ _____ _____    ______ ____
ROOT
ATOM      3  C   UNL     1       0.180   0.735  23.806  0.00  0.00    +0.039 C 
ATOM      4  C   UNL     1       0.602   1.303  24.232  0.00  0.00    +0.003 C 
ATOM      5  C   UNL     1       0.229   1.997  24.473  0.00  0.00    +0.000 C 
ATOM      6  C   UNL     1      -0.564   2.126  24.289  0.00  0.00    +0.002 C 
ATOM      7  C   UNL     1      -0.143   2.692  24.714  0.00  0.00    +0.000 C 
ATOM      8  C   UNL     1      -0.937   2.821  24.530  0.00  0.00    +0.002 C 
ATOM      9  C   UNL     1      -1.730   2.950  24.346  0.00  0.00    +0.022 C 
ATOM     10  C   UNL     1      -2.152   2.382  23.920  0.00  0.00    +0.097 C 
ATOM     22  C   UNL     1      -1.780   1.687  23.679  0.00  0.00    +0.023 C 
ATOM     23  C   UNL     1      -2.201   1.120  23.253  0.00  0.00    +0.002 C 
ATOM     24  C   UNL     1      -0.986   1.558  23.863  0.00  0.00    +0.032 C 
ATOM     25  C   UNL     1      -0.614   0.863  23.622  0.00  0.00    +0.152 C 
ATOM     26  O   UNL     1      -1.035   0.296  23.196  0.00  0.00    -0.223 OA
ENDROOT
BRANCH  10  11
ATOM     11  N   UNL     1      -2.946   2.511  23.736  0.00  0.00    -0.189 NA
ATOM     12  C   UNL     1      -3.506   2.565  24.338  0.00  0.00    +0.343 C 
ATOM     13  O   UNL     1      -3.272   2.491  25.127  0.00  0.00    -0.249 OA
ATOM     14  N   UNL     1      -4.300   2.694  24.154  0.00  0.00    -0.161 NA
BRANCH  14  15
ATOM     15  C   UNL     1      -4.860   2.749  24.757  0.00  0.00    +0.077 A 
ATOM     16  C   UNL     1      -5.004   3.476  25.122  0.00  0.00    +0.017 A 
ATOM     17  C   UNL     1      -5.565   3.530  25.725  0.00  0.00    +0.004 A 
ATOM     18  C   UNL     1      -5.981   2.860  25.964  0.00  0.00    +0.030 A 
ATOM     19  C   UNL     1      -5.837   2.133  25.599  0.00  0.00    +0.141 A 
ATOM     20  F   UNL     1      -6.253   1.462  25.838  0.00  0.00    -0.204 F 
ATOM     21  C   UNL     1      -5.277   2.078  24.996  0.00  0.00    +0.046 A 
ENDBRANCH  14  15
ENDBRANCH  10  11
BRANCH   3   2
ATOM      1  C   UNL     1       0.362  -0.679  23.924  0.00  0.00    +0.010 C 
ATOM      2  C   UNL     1       0.553   0.039  23.564  0.00  0.00    +0.081 C 
BRANCH   2  27
ATOM     27  C   UNL     1       1.117   0.062  22.963  0.00  0.00    +0.241 C 
ATOM     28  O   UNL     1       0.881   0.013  22.173  0.00  0.00    -0.273 OA
ATOM     29  N   UNL     1       1.918   0.133  23.150  0.00  0.00    -0.200 NA
BRANCH  29  30
ATOM     30  C   UNL     1       2.481   0.155  22.550  0.00  0.00    +0.148 C 
BRANCH  30  31
ATOM     31  C   UNL     1       3.273   0.298  22.731  0.00  0.00    +0.029 A 
ATOM     32  C   UNL     1       3.664   1.022  22.663  0.00  0.00    +0.004 A 
ATOM     33  C   UNL     1       4.446   0.912  22.903  0.00  0.00    +0.007 A 
ATOM     34  C   UNL     1       4.538   0.120  23.119  0.00  0.00    +0.035 A 
ATOM     35  S   UNL     1       3.813  -0.259  23.013  0.00  0.00    -0.089 S 
ENDBRANCH  30  31
ENDBRANCH  29  30
ENDBRANCH   2  27
ENDBRANCH   3   2
TORSDOF 6
ENDMDL
MODEL 4
REMARK VINA RESULT:     -11.6      3.611      5.631
REMARK  Name = 
REMARK  6 active torsions:
REMARK  status: ('A' for Active; 'I' for Inactive)
REMARK    1  A    between atoms: C_2  and  C_3
REMARK    2  A    between atoms: C_2  and  C_27
REMARK    3  A    between atoms: C_10  and  N_11
REMARK    4  A    between atoms: N_14  and  C_15
REMARK    5  A    between atoms: N_29  and  C_30
REMARK    6  A    between atoms: C_30  and  C_31
REMARK                            x       y       z     vdW  Elec       q    Type
REMARK                         _______ _______ _______ _____ _____    ______ ____
ROOT
ATOM      3  C   UNL     1      -1.878   0.785  24.745  0.00  0.00    +0.039 C 
ATOM      4  C   UNL     1      -1.721   1.545  25.029  0.00  0.00    +0.003 C 
ATOM      5  C   UNL     1      -1.002   1.909  24.856  0.00  0.00    +0.000 C 
ATOM      6  C   UNL     1      -0.439   1.515  24.401  0.00  0.00    +0.002 C 
ATOM      7  C   UNL     1      -0.283   2.273  24.684  0.00  0.00    +0.000 C 
ATOM      8  C   UNL     1       0.281   1.879  24.227  0.00  0.00    +0.002 C 
ATOM      9  C   UNL     1       0.843   1.485  23.772  0.00  0.00    +0.022 C 
ATOM     10  C   UNL     1       0.687   0.725  23.488  0.00  0.00    +0.097 C 
ATOM     22  C   UNL     1      -0.033   0.361  23.661  0.00  0.00    +0.023 C 
ATOM     23  C   UNL     1      -0.189  -0.397  23.377  0.00  0.00    +0.002 C 
ATOM     24  C   UNL     1      -0.596   0.755  24.117  0.00  0.00    +0.032 C 
ATOM     25  C   UNL     1      -1.316   0.392  24.289  0.00  0.00    +0.152 C 
ATOM     26  O   UNL     1      -1.472  -0.367  24.006  0.00  0.00    -0.223 OA
ENDROOT
BRANCH  10  11
ATOM     11  N   UNL     1       1.250   0.331  23.032  0.00  0.00    -0.189 NA
ATOM     12  C   UNL     1       2.053   0.436  23.186  0.00  0.00    +0.343 C 
ATOM     13  O   UNL     1       2.294   0.936  23.798  0.00  0.00    -0.249 OA
ATOM     14  N   UNL     1       2.617   0.042  22.730  0.00  0.00    -0.161 NA
BRANCH  14  15
ATOM     15  C   UNL     1       3.420   0.148  22.884  0.00  0.00    +0.077 A 
ATOM     16  C   UNL     1       3.812   0.815  22.595  0.00  0.00    +0.017 A 
ATOM     17  C   UNL     1       4.616   0.919  22.750  0.00  0.00    +0.004 A 
ATOM     18  C   UNL     1       5.027   0.359  23.193  0.00  0.00    +0.030 A 
ATOM     19  C   UNL     1       4.635  -0.308  23.482  0.00  0.00    +0.141 A 
ATOM     20  F   UNL     1       5.048  -0.869  23.925  0.00  0.00    -0.204 F 
ATOM     21  C   UNL     1       3.832  -0.413  23.327  0.00  0.00    +0.046 A 
ENDBRANCH  14  15
ENDBRANCH  10  11
BRANCH   3   2
ATOM      1  C   UNL     1      -2.625  -0.216  25.441  0.00  0.00    +0.010 C 
ATOM      2  C   UNL     1      -2.598   0.422  24.918  0.00  0.00    +0.081 C 
BRANCH   2  27
ATOM     27  C   UNL     1      -3.293   0.696  24.568  0.00  0.00    +0.241 C 
ATOM     28  O   UNL     1      -3.487   0.467  23.799  0.00  0.00    -0.273 OA
ATOM     29  N   UNL     1      -3.795   1.200  24.987  0.00  0.00    -0.200 NA
BRANCH  29  30
ATOM     30  C   UNL     1      -4.489   1.474  24.638  0.00  0.00    +0.148 C 
BRANCH  30  31
ATOM     31  C   UNL     1      -4.960   2.025  25.031  0.00  0.00    +0.029 A 
ATOM     32  C   UNL     1      -4.841   2.842  25.048  0.00  0.00    +0.004 A 
ATOM     33  C   UNL     1      -5.441   3.177  25.504  0.00  0.00    +0.007 A 
ATOM     34  C   UNL     1      -5.931   2.568  25.770  0.00  0.00    +0.035 A 
ATOM     35  S   UNL     1      -5.634   1.856  25.478  0.00  0.00    -0.089 S 
ENDBRANCH  30  31
ENDBRANCH  29  30
ENDBRANCH   2  27
ENDBRANCH   3   2
TORSDOF 6
ENDMDL
MODEL 5
REMARK VINA RESULT:     -11.3      1.991      5.080
REMARK  Name = 
REMARK  6 active torsions:
REMARK  status: ('A' for Active; 'I' for Inactive)
REMARK    1  A    between atoms: C_2  and  C_3
REMARK    2  A    between atoms: C_2  and  C_27
REMARK    3  A    between atoms: C_10  and  N_11
REMARK    4  A    between atoms: N_14  and  C_15
REMARK    5  A    between atoms: N_29  and  C_30
REMARK    6  A    between atoms: C_30  and  C_31
REMARK                            x       y       z     vdW  Elec       q    Type
REMARK                         _______ _______ _______ _____ _____    ______ ____
ROOT
ATOM      3  C   UNL     1      -4.249  -0.562  24.399  0.00  0.00    +0.039 C 
ATOM      4  C   UNL     1      -4.780  -0.487  25.027  0.00  0.00    +0.003 C 
ATOM      5  C   UNL     1      -4.975   0.261  25.314  0.00  0.00    +0.000 C 
ATOM      6  C   UNL     1      -4.641   0.934  24.975  0.00  0.00    +0.002 C 
ATOM      7  C   UNL     1      -5.170   1.008  25.602  0.00  0.00    +0.000 C 
ATOM      8  C   UNL     1      -4.836   1.682  25.262  0.00  0.00    +0.002 C 
ATOM      9  C   UNL     1      -4.502   2.355  24.922  0.00  0.00    +0.022 C 
ATOM     10  C   UNL     1      -3.971   2.280  24.293  0.00  0.00    +0.097 C 
ATOM     22  C   UNL     1      -3.776   1.532  24.006  0.00  0.00    +0.023 C 
ATOM     23  C   UNL     1      -3.246   1.457  23.378  0.00  0.00    +0.002 C 
ATOM     24  C   UNL     1      -4.110   0.858  24.346  0.00  0.00    +0.032 C 
ATOM     25  C   UNL     1      -3.915   0.111  24.059  0.00  0.00    +0.152 C 
ATOM     26  O   UNL     1      -3.385   0.036  23.431  0.00  0.00    -0.223 OA
ENDROOT
BRANCH  10  11
ATOM     11  N   UNL     1      -3.637   2.953  23.954  0.00  0.00    -0.189 NA
ATOM     12  C   UNL     1      -3.058   3.377  24.360  0.00  0.00    +0.343 C 
ATOM     13  O   UNL     1      -2.813   3.127  25.108  0.00  0.00    -0.249 OA
ATOM     14  N   UNL     1      -2.724   4.051  24.020  0.00  0.00    -0.161 NA
BRANCH  14  15
ATOM     15  C   UNL     1      -2.145   4.474  24.426  0.00  0.00    +0.077 A 
ATOM     16  C   UNL     1      -2.350   5.157  24.843  0.00  0.00    +0.017 A 
ATOM     17  C   UNL     1      -1.770   5.581  25.250  0.00  0.00    +0.004 A 
ATOM     18  C   UNL     1      -0.987   5.323  25.240  0.00  0.00    +0.030 A 
ATOM     19  C   UNL     1      -0.783   4.640  24.824  0.00  0.00    +0.141 A 
ATOM     20  F   UNL     1       0.001   4.382  24.814  0.00  0.00    -0.204 F 
ATOM     21  C   UNL     1      -1.362   4.216  24.417  0.00  0.00    +0.046 A 
ENDBRANCH  14  15
ENDBRANCH  10  11
BRANCH   3   2
ATOM      1  C   UNL     1      -4.360  -1.570  23.390  0.00  0.00    +0.010 C 
ATOM      2  C   UNL     1      -4.054  -1.310  24.111  0.00  0.00    +0.081 C 
BRANCH   2  27
ATOM     27  C   UNL     1      -3.552  -1.800  24.546  0.00  0.00    +0.241 C 
ATOM     28  O   UNL     1      -3.869  -2.366  25.058  0.00  0.00    -0.273 OA
ATOM     29  N   UNL     1      -2.734  -1.726  24.469  0.00  0.00    -0.200 NA
BRANCH  29  30
ATOM     30  C   UNL     1      -2.233  -2.215  24.903  0.00  0.00    +0.148 C 
BRANCH  30  31
ATOM     31  C   UNL     1      -1.443  -2.005  25.012  0.00  0.00    +0.029 A 
ATOM     32  C   UNL     1      -1.152  -1.492  25.590  0.00  0.00    +0.004 A 
ATOM     33  C   UNL     1      -0.334  -1.441  25.497  0.00  0.00    +0.007 A 
ATOM     34  C   UNL     1      -0.119  -1.922  24.861  0.00  0.00    +0.035 A 
ATOM     35  S   UNL     1      -0.804  -2.270  24.561  0.00  0.00    -0.089 S 
ENDBRANCH  30  31
ENDBRANCH  29  30
ENDBRANCH   2  27
ENDBRANCH   3   2
TORSDOF 6
ENDMDL
MODEL 6
REMARK VINA RESULT:     -11.2      2.960      4.906
REMARK  Name = 
REMARK  6 active torsions:
REMARK  status: ('A' for Active; 'I' for Inactive)
REMARK    1  A    between atoms: C_2  and  C_3
REMARK    2  A    between atoms: C_2  and  C_27
REMARK    3  A    between atoms: C_10  and  N_11
REMARK    4  A    between atoms: N_14  and  C_15
REMARK    5  A    between atoms: N_29  and  C_30
REMARK    6  A    between atoms: C_30  and  C_31
REMARK                            x       y       z     vdW  Elec       q    Type
REMARK                         _______ _______ _______ _____ _____    ______ ____
ROOT
ATOM      3  C   UNL     1      -2.019   3.347  25.116  0.00  0.00    +0.039 C 
ATOM      4  C   UNL     1      -1.623   3.449  25.833  0.00  0.00    +0.003 C 
ATOM      5  C   UNL     1      -0.915   3.049  25.974  0.00  0.00    +0.000 C 
ATOM      6  C   UNL     1      -0.603   2.548  25.399  0.00  0.00    +0.002 C 
ATOM      7  C   UNL     1      -0.208   2.650  26.115  0.00  0.00    +0.000 C 
ATOM      8  C   UNL     1       0.105   2.149  25.539  0.00  0.00    +0.002 C 
ATOM      9  C   UNL     1       0.418   1.648  24.964  0.00  0.00    +0.022 C 
ATOM     10  C   UNL     1       0.022   1.545  24.246  0.00  0.00    +0.097 C 
ATOM     22  C   UNL     1      -0.686   1.945  24.106  0.00  0.00    +0.023 C 
ATOM     23  C   UNL     1      -1.081   1.843  23.389  0.00  0.00    +0.002 C 
ATOM     24  C   UNL     1      -0.999   2.446  24.681  0.00  0.00    +0.032 C 
ATOM     25  C   UNL     1      -1.706   2.846  24.540  0.00  0.00    +0.152 C 
ATOM     26  O   UNL     1      -2.101   2.744  23.823  0.00  0.00    -0.223 OA
ENDROOT
BRANCH  10  11
ATOM     11  N   UNL     1       0.335   1.044  23.671  0.00  0.00    -0.189 NA
ATOM     12  C   UNL     1       1.152   0.962  23.594  0.00  0.00    +0.343 C 
ATOM     13  O   UNL     1       1.657   1.383  24.094  0.00  0.00    -0.249 OA
ATOM     14  N   UNL     1       1.465   0.460  23.019  0.00  0.00    -0.161 NA
BRANCH  14  15
ATOM     15  C   UNL     1       2.282   0.379  22.943  0.00  0.00    +0.077 A 
ATOM     16  C   UNL     1       2.733   1.003  22.644  0.00  0.00    +0.017 A 
ATOM     17  C   UNL     1       3.550   0.921  22.568  0.00  0.00    +0.004 A 
ATOM     18  C   UNL     1       3.917   0.216  22.789  0.00  0.00    +0.030 A 
ATOM     19  C   UNL     1       3.466  -0.408  23.087  0.00  0.00    +0.141 A 
ATOM     20  F   UNL     1       3.833  -1.113  23.308  0.00  0.00    -0.204 F 
ATOM     21  C   UNL     1       2.649  -0.326  23.164  0.00  0.00    +0.046 A 
ENDBRANCH  14  15
ENDBRANCH  10  11
BRANCH   3   2
ATOM      1  C   UNL     1      -2.776   4.298  24.363  0.00  0.00    +0.010 C 
ATOM      2  C   UNL     1      -2.727   3.746  24.975  0.00  0.00    +0.081 C 
BRANCH   2  27
ATOM     27  C   UNL     1      -3.386   3.595  25.447  0.00  0.00    +0.241 C 
ATOM     28  O   UNL     1      -3.466   3.971  26.178  0.00  0.00    -0.273 OA
ATOM     29  N   UNL     1      -3.966   3.066  25.189  0.00  0.00    -0.200 NA
BRANCH  29  30
ATOM     30  C   UNL     1      -4.625   2.915  25.660  0.00  0.00    +0.148 C 
BRANCH  30  31
ATOM     31  C   UNL     1      -5.177   2.348  25.428  0.00  0.00    +0.029 A 
ATOM     32  C   UNL     1      -5.028   1.545  25.311  0.00  0.00    +0.004 A 
ATOM     33  C   UNL     1      -5.735   1.186  25.083  0.00  0.00    +0.007 A 
ATOM     34  C   UNL     1      -6.321   1.767  25.059  0.00  0.00    +0.035 A 
ATOM     35  S   UNL     1      -5.976   2.485  25.273  0.00  0.00    -0.089 S 
ENDBRANCH  30  31
ENDBRANCH  29  30
ENDBRANCH   2  27
ENDBRANCH   3   2
TORSDOF 6
ENDMDL
MODEL 7
REMARK VINA RESULT:     -11.1      2.652      6.298
REMARK  Name = 
REMARK  6 active torsions:
REMARK  status: ('A' for Active; 'I' for Inactive)
REMARK    1  A    between atoms: C_2  and  C_3
REMARK    2  A    between atoms: C_2  and  C_27
REMARK    3  A    between atoms: C_10  and  N_11
REMARK    4  A    between atoms: N_14  and  C_15
REMARK    5  A    between atoms: N_29  and  C_30
REMARK    6  A    between atoms: C_30  and  C_31
REMARK                            x       y       z     vdW  Elec       q    Type
REMARK                         _______ _______ _______ _____ _____    ______ ____
ROOT
ATOM      3  C   UNL     1      -0.568  -1.090  24.615  0.00  0.00    +0.039 C 
ATOM      4  C   UNL     1      -0.266  -1.072  23.847  0.00  0.00    +0.003 C 
ATOM      5  C   UNL     1       0.019  -0.364  23.533  0.00  0.00    +0.000 C 
ATOM      6  C   UNL     1       0.003   0.324  23.987  0.00  0.00    +0.002 C 
ATOM      7  C   UNL     1       0.305   0.343  23.220  0.00  0.00    +0.000 C 
ATOM      8  C   UNL     1       0.289   1.032  23.674  0.00  0.00    +0.002 C 
ATOM      9  C   UNL     1       0.273   1.720  24.127  0.00  0.00    +0.022 C 
ATOM     10  C   UNL     1      -0.029   1.701  24.896  0.00  0.00    +0.097 C 
ATOM     22  C   UNL     1      -0.315   0.994  25.209  0.00  0.00    +0.023 C 
ATOM     23  C   UNL     1      -0.617   0.975  25.976  0.00  0.00    +0.002 C 
ATOM     24  C   UNL     1      -0.299   0.305  24.755  0.00  0.00    +0.032 C 
ATOM     25  C   UNL     1      -0.584  -0.402  25.068  0.00  0.00    +0.152 C 
ATOM     26  O   UNL     1      -0.886  -0.421  25.836  0.00  0.00    -0.223 OA
ENDROOT
BRANCH  10  11
ATOM     11  N   UNL     1      -0.045   2.390  25.349  0.00  0.00    -0.189 NA
ATOM     12  C   UNL     1      -0.562   3.002  25.152  0.00  0.00    +0.343 C 
ATOM     13  O   UNL     1      -1.064   2.926  24.501  0.00  0.00    -0.249 OA
ATOM     14  N   UNL     1      -0.578   3.692  25.606  0.00  0.00    -0.161 NA
BRANCH  14  15
ATOM     15  C   UNL     1      -1.094   4.303  25.409  0.00  0.00    +0.077 A 
ATOM     16  C   UNL     1      -0.819   4.955  24.982  0.00  0.00    +0.017 A 
ATOM     17  C   UNL     1      -1.336   5.567  24.785  0.00  0.00    +0.004 A 
ATOM     18  C   UNL     1      -2.127   5.529  25.015  0.00  0.00    +0.030 A 
ATOM     19  C   UNL     1      -2.402   4.878  25.442  0.00  0.00    +0.141 A 
ATOM     20  F   UNL     1      -3.193   4.841  25.672  0.00  0.00    -0.204 F 
ATOM     21  C   UNL     1      -1.886   4.266  25.639  0.00  0.00    +0.046 A 
ENDBRANCH  14  15
ENDBRANCH  10  11
BRANCH   3   2
ATOM      1  C   UNL     1      -0.476  -2.148  25.573  0.00  0.00    +0.010 C 
ATOM      2  C   UNL     1      -0.854  -1.798  24.928  0.00  0.00    +0.081 C 
BRANCH   2  27
ATOM     27  C   UNL     1      -1.518  -2.157  24.596  0.00  0.00    +0.241 C 
ATOM     28  O   UNL     1      -1.428  -2.788  24.071  0.00  0.00    -0.273 OA
ATOM     29  N   UNL     1      -2.274  -1.886  24.788  0.00  0.00    -0.200 NA
BRANCH  29  30
ATOM     30  C   UNL     1      -2.938  -2.244  24.456  0.00  0.00    +0.148 C 
BRANCH  30  31
ATOM     31  C   UNL     1      -3.636  -1.815  24.362  0.00  0.00    +0.029 A 
ATOM     32  C   UNL     1      -3.918  -1.230  24.872  0.00  0.00    +0.004 A 
ATOM     33  C   UNL     1      -4.631  -0.949  24.566  0.00  0.00    +0.007 A 
ATOM     34  C   UNL     1      -4.789  -1.360  23.867  0.00  0.00    +0.035 A 
ATOM     35  S   UNL     1      -4.174  -1.895  23.741  0.00  0.00    -0.089 S 
ENDBRANCH  30  31
ENDBRANCH  29  30
ENDBRANCH   2  27
ENDBRANCH   3   2
TORSDOF 6
ENDMDL
MODEL 8
REMARK VINA RESULT:     -11.0      1.944      3.540
REMARK  Name = 
REMARK  6 active torsions:
REMARK  status: ('A' for Active; 'I' for Inactive)
REMARK    1  A    between atoms: C_2  and  C_3
REMARK    2  A    between atoms: C_2  and  C_27
REMARK    3  A    between atoms: C_10  and  N_11
REMARK    4  A    between atoms: N_14  and  C_15
REMARK    5  A    between atoms: N_29  and  C_30
REMARK    6  A    between atoms: C_30  and  C_31
REMARK                            x       y       z     vdW  Elec       q    Type
REMARK                         _______ _______ _______ _____ _____    ______ ____
ROOT
ATOM      3  C   UNL     1      -2.529   3.668  25.055  0.00  0.00    +0.039 C 
ATOM      4  C   UNL     1      -2.093   3.934  25.704  0.00  0.00    +0.003 C 
ATOM      5  C   UNL     1      -1.419   3.524  25.944  0.00  0.00    +0.000 C 
ATOM      6  C   UNL     1      -1.181   2.848  25.536  0.00  0.00    +0.002 C 
ATOM      7  C   UNL     1      -0.746   3.114  26.184  0.00  0.00    +0.000 C 
ATOM      8  C   UNL     1      -0.507   2.437  25.776  0.00  0.00    +0.002 C 
ATOM      9  C   UNL     1      -0.269   1.761  25.369  0.00  0.00    +0.022 C 
ATOM     10  C   UNL     1      -0.705   1.495  24.720  0.00  0.00    +0.097 C 
ATOM     22  C   UNL     1      -1.378   1.905  24.480  0.00  0.00    +0.023 C 
ATOM     23  C   UNL     1      -1.814   1.639  23.832  0.00  0.00    +0.002 C 
ATOM     24  C   UNL     1      -1.617   2.582  24.888  0.00  0.00    +0.032 C 
ATOM     25  C   UNL     1      -2.291   2.992  24.648  0.00  0.00    +0.152 C 
ATOM     26  O   UNL     1      -2.726   2.726  23.999  0.00  0.00    -0.223 OA
ENDROOT
BRANCH  10  11
ATOM     11  N   UNL     1      -0.466   0.818  24.313  0.00  0.00    -0.189 NA
ATOM     12  C   UNL     1      -0.676   0.072  24.592  0.00  0.00    +0.343 C 
ATOM     13  O   UNL     1      -1.127   0.001  25.281  0.00  0.00    -0.249 OA
ATOM     14  N   UNL     1      -0.437  -0.605  24.185  0.00  0.00    -0.161 NA
BRANCH  14  15
ATOM     15  C   UNL     1      -0.648  -1.351  24.465  0.00  0.00    +0.077 A 
ATOM     16  C   UNL     1      -0.178  -1.727  25.031  0.00  0.00    +0.017 A 
ATOM     17  C   UNL     1      -0.389  -2.474  25.310  0.00  0.00    +0.004 A 
ATOM     18  C   UNL     1      -1.068  -2.845  25.025  0.00  0.00    +0.030 A 
ATOM     19  C   UNL     1      -1.538  -2.469  24.460  0.00  0.00    +0.141 A 
ATOM     20  F   UNL     1      -2.217  -2.841  24.175  0.00  0.00    -0.204 F 
ATOM     21  C   UNL     1      -1.327  -1.723  24.180  0.00  0.00    +0.046 A 
ENDBRANCH  14  15
ENDBRANCH  10  11
BRANCH   3   2
ATOM      1  C   UNL     1      -3.186   4.537  24.129  0.00  0.00    +0.010 C 
ATOM      2  C   UNL     1      -3.203   4.079  24.815  0.00  0.00    +0.081 C 
BRANCH   2  27
ATOM     27  C   UNL     1      -3.895   4.033  25.262  0.00  0.00    +0.241 C 
ATOM     28  O   UNL     1      -4.017   4.555  25.890  0.00  0.00    -0.273 OA
ATOM     29  N   UNL     1      -4.465   3.464  25.082  0.00  0.00    -0.200 NA
BRANCH  29  30
ATOM     30  C   UNL     1      -5.156   3.417  25.528  0.00  0.00    +0.148 C 
BRANCH  30  31
ATOM     31  C   UNL     1      -5.614   2.731  25.511  0.00  0.00    +0.029 A 
ATOM     32  C   UNL     1      -5.887   2.347  24.834  0.00  0.00    +0.004 A 
ATOM     33  C   UNL     1      -6.320   1.687  25.073  0.00  0.00    +0.007 A 
ATOM     34  C   UNL     1      -6.315   1.663  25.898  0.00  0.00    +0.035 A 
ATOM     35  S   UNL     1      -5.878   2.309  26.169  0.00  0.00    -0.089 S 
ENDBRANCH  30  31
ENDBRANCH  29  30
ENDBRANCH   2  27
ENDBRANCH   3   2
TORSDOF 6
ENDMDL
MODEL 9
REMARK VINA RESULT:     -10.9      2.458      5.305
REMARK  Name = 
REMARK  6 active torsions:
REMARK  status: ('A' for Active; 'I' for Inactive)
REMARK    1  A    between atoms: C_2  and  C_3
REMARK    2  A    between atoms: C_2  and  C_27
REMARK    3  A    between atoms: C_10  and  N_11
REMARK    4  A    between atoms: N_14  and  C_15
REMARK    5  A    between atoms: N_29  and  C_30
REMARK    6  A    between atoms: C_30  and  C_31
REMARK                            x       y       z     vdW  Elec       q    Type
REMARK                         _______ _______ _______ _____ _____    ______ ____
ROOT
ATOM      3  C   UNL     1      -0.234   0.702  24.206  0.00  0.00    +0.039 C 
ATOM      4  C   UNL     1       0.241   1.012  24.806  0.00  0.00    +0.003 C 
ATOM      5  C   UNL     1       0.028   1.717  25.177  0.00  0.00    +0.000 C 
ATOM      6  C   UNL     1      -0.658   2.112  24.950  0.00  0.00    +0.002 C 
ATOM      7  C   UNL     1      -0.185   2.421  25.549  0.00  0.00    +0.000 C 
ATOM      8  C   UNL     1      -0.872   2.817  25.321  0.00  0.00    +0.002 C 
ATOM      9  C   UNL     1      -1.559   3.212  25.093  0.00  0.00    +0.022 C 
ATOM     10  C   UNL     1      -2.034   2.902  24.493  0.00  0.00    +0.097 C 
ATOM     22  C   UNL     1      -1.821   2.197  24.122  0.00  0.00    +0.023 C 
ATOM     23  C   UNL     1      -2.295   1.887  23.522  0.00  0.00    +0.002 C 
ATOM     24  C   UNL     1      -1.133   1.802  24.349  0.00  0.00    +0.032 C 
ATOM     25  C   UNL     1      -0.920   1.097  23.978  0.00  0.00    +0.152 C 
ATOM     26  O   UNL     1      -1.395   0.787  23.379  0.00  0.00    -0.223 OA
ENDROOT
BRANCH  10  11
ATOM     11  N   UNL     1      -2.721   3.298  24.266  0.00  0.00    -0.189 NA
ATOM     12  C   UNL     1      -3.415   3.204  24.701  0.00  0.00    +0.343 C 
ATOM     13  O   UNL     1      -3.422   2.714  25.366  0.00  0.00    -0.249 OA
ATOM     14  N   UNL     1      -4.102   3.600  24.474  0.00  0.00    -0.161 NA
BRANCH  14  15
ATOM     15  C   UNL     1      -4.796   3.507  24.909  0.00  0.00    +0.077 A 
ATOM     16  C   UNL     1      -5.053   4.111  25.410  0.00  0.00    +0.017 A 
ATOM     17  C   UNL     1      -5.748   4.017  25.846  0.00  0.00    +0.004 A 
ATOM     18  C   UNL     1      -6.184   3.321  25.782  0.00  0.00    +0.030 A 
ATOM     19  C   UNL     1      -5.927   2.717  25.281  0.00  0.00    +0.141 A 
ATOM     20  F   UNL     1      -6.365   2.020  25.218  0.00  0.00    -0.204 F 
ATOM     21  C   UNL     1      -5.233   2.810  24.846  0.00  0.00    +0.046 A 
ENDBRANCH  14  15
ENDBRANCH  10  11
BRANCH   3   2
ATOM      1  C   UNL     1       0.322   0.011  23.084  0.00  0.00    +0.010 C 
ATOM      2  C   UNL     1      -0.020  -0.003  23.835  0.00  0.00    +0.081 C 
BRANCH   2  27
ATOM     27  C   UNL     1      -0.148  -0.724  24.215  0.00  0.00    +0.241 C 
ATOM     28  O   UNL     1       0.478  -1.109  24.593  0.00  0.00    -0.273 OA
ATOM     29  N   UNL     1      -0.902  -1.061  24.218  0.00  0.00    -0.200 NA
BRANCH  29  30
ATOM     30  C   UNL     1      -1.030  -1.781  24.597  0.00  0.00    +0.148 C 
BRANCH  30  31
ATOM     31  C   UNL     1      -1.796  -2.074  24.681  0.00  0.00    +0.029 A 
ATOM     32  C   UNL     1      -2.355  -1.820  25.233  0.00  0.00    +0.004 A 
ATOM     33  C   UNL     1      -3.043  -2.261  25.120  0.00  0.00    +0.007 A 
ATOM     34  C   UNL     1      -2.909  -2.788  24.498  0.00  0.00    +0.035 A 
ATOM     35  S   UNL     1      -2.139  -2.672  24.227  0.00  0.00    -0.089 S 
ENDBRANCH  30  31
ENDBRANCH  29  30
ENDBRANCH   2  27
ENDBRANCH   3   2
TORSDOF 6
ENDMDL
