MODEL 1
REMARK VINA RESULT:     -10.4      0.000      0.000
REMARK  Name = 
REMARK  5 active torsions:
REMARK  status: ('A' for Active; 'I' for Inactive)
REMARK    1  A    between atoms: O_2  and  C_3
REMARK    2  A    between atoms: C_6  and  C_9
REMARK    3  A    between atoms: C_12  and  C_14
REMARK    4  A    between atoms: N_18  and  C_19
REMARK    5  A    between atoms: C_19  and  C_20
REMARK                            x       y       z     vdW  Elec       q    Type
REMARK                         _______ _______ _______ _____ _____    ______ ____
ROOT
ATOM      9  C   UNL     1      -4.166   0.367  24.934  0.00  0.00    +0.205 A 
ATOM     10  N   UNL     1      -4.659   0.747  25.476  0.00  0.00    -0.056 NA
ATOM     11  O   UNL     1      -4.670   1.552  25.291  0.00  0.00    -0.336 OA
ATOM     12  C   UNL     1      -4.184   1.669  24.635  0.00  0.00    +0.251 A 
ATOM     13  N   UNL     1      -3.872   0.937  24.415  0.00  0.00    -0.190 NA
ENDROOT
BRANCH   9   6
ATOM      3  C   UNL     1      -3.659  -2.054  24.878  0.00  0.00    +0.225 A 
ATOM      4  N   UNL     1      -3.466  -1.607  25.544  0.00  0.00    -0.210 NA
ATOM      5  C   UNL     1      -3.635  -0.800  25.562  0.00  0.00    +0.105 A 
ATOM      6  C   UNL     1      -3.997  -0.440  24.916  0.00  0.00    +0.058 A 
ATOM      7  C   UNL     1      -4.191  -0.886  24.249  0.00  0.00    +0.010 A 
ATOM      8  C   UNL     1      -4.022  -1.693  24.230  0.00  0.00    +0.058 A 
BRANCH   3   2
ATOM      1  C   UNL     1      -2.961  -3.159  24.301  0.00  0.00    +0.254 C 
ATOM      2  O   UNL     1      -3.490  -2.862  24.860  0.00  0.00    -0.456 OA
ENDBRANCH   3   2
ENDBRANCH   9   6
BRANCH  12  14
ATOM     14  C   UNL     1      -4.034   2.390  24.264  0.00  0.00    +0.138 C 
ATOM     15  C   UNL     1      -4.472   2.717  23.646  0.00  0.00    +0.027 C 
ATOM     16  C   UNL     1      -4.130   3.440  23.446  0.00  0.00    +0.019 C 
ATOM     17  C   UNL     1      -3.480   3.561  23.940  0.00  0.00    +0.073 C 
ATOM     18  N   UNL     1      -3.421   2.911  24.446  0.00  0.00    -0.263 NA
BRANCH  18  19
ATOM     19  C   UNL     1      -2.850   2.803  25.031  0.00  0.00    +0.101 C 
BRANCH  19  20
ATOM     20  C   UNL     1      -2.189   3.295  25.058  0.00  0.00    +0.013 A 
ATOM     21  C   UNL     1      -2.219   4.004  25.479  0.00  0.00    +0.000 A 
ATOM     22  C   UNL     1      -1.558   4.497  25.507  0.00  0.00    +0.020 A 
ATOM     23  C   UNL     1      -0.866   4.280  25.113  0.00  0.00    +0.099 A 
ATOM     24  N   UNL     1      -0.836   3.571  24.692  0.00  0.00    -0.243 NA
ATOM     25  C   UNL     1      -1.497   3.079  24.664  0.00  0.00    +0.096 A 
ENDBRANCH  19  20
ENDBRANCH  18  19
ENDBRANCH  12  14
TORSDOF 5
ENDMDL
MODEL 2
REMARK VINA RESULT:      -9.6      1.717      2.530
REMARK  Name = 
REMARK  5 active torsions:
REMARK  status: ('A' for Active; 'I' for Inactive)
REMARK    1  A    between atoms: O_2  and  C_3
REMARK    2  A    between atoms: C_6  and  C_9
REMARK    3  A    between atoms: C_12  and  C_14
REMARK    4  A    between atoms: N_18  and  C_19
REMARK    5  A    between atoms: C_19  and  C_20
REMARK                            x       y       z     vdW  Elec       q    Type
REMARK                         _______ _______ _______ _____ _____    ______ ____
ROOT
ATOM      9  C   UNL     1      -1.701  -0.543  25.239  0.00  0.00    +0.205 A 
ATOM     10  N   UNL     1      -1.330  -0.442  25.969  0.00  0.00    -0.056 NA
ATOM     11  O   UNL     1      -0.879   0.248  25.932  0.00  0.00    -0.336 OA
ATOM     12  C   UNL     1      -0.971   0.573  25.180  0.00  0.00    +0.251 A 
ATOM     13  N   UNL     1      -1.479   0.084  24.751  0.00  0.00    -0.190 NA
ENDROOT
BRANCH   9   6
ATOM      3  C   UNL     1      -3.213  -2.403  24.621  0.00  0.00    +0.225 A 
ATOM      4  N   UNL     1      -2.406  -2.454  24.455  0.00  0.00    -0.210 NA
ATOM      5  C   UNL     1      -1.902  -1.834  24.661  0.00  0.00    +0.105 A 
ATOM      6  C   UNL     1      -2.205  -1.163  25.033  0.00  0.00    +0.058 A 
ATOM      7  C   UNL     1      -3.011  -1.112  25.200  0.00  0.00    +0.010 A 
ATOM      8  C   UNL     1      -3.515  -1.732  24.994  0.00  0.00    +0.058 A 
BRANCH   3   2
ATOM      1  C   UNL     1      -4.289  -2.912  23.832  0.00  0.00    +0.254 C 
ATOM      2  O   UNL     1      -3.716  -3.023  24.415  0.00  0.00    -0.456 OA
ENDBRANCH   3   2
ENDBRANCH   9   6
BRANCH  12  14
ATOM     14  C   UNL     1      -0.618   1.266  24.904  0.00  0.00    +0.138 C 
ATOM     15  C   UNL     1       0.082   1.313  24.469  0.00  0.00    +0.027 C 
ATOM     16  C   UNL     1       0.230   2.108  24.310  0.00  0.00    +0.019 C 
ATOM     17  C   UNL     1      -0.378   2.553  24.646  0.00  0.00    +0.073 C 
ATOM     18  N   UNL     1      -0.903   2.032  25.013  0.00  0.00    -0.263 NA
BRANCH  18  19
ATOM     19  C   UNL     1      -1.590   2.241  25.418  0.00  0.00    +0.101 C 
BRANCH  19  20
ATOM     20  C   UNL     1      -1.913   2.994  25.321  0.00  0.00    +0.013 A 
ATOM     21  C   UNL     1      -1.665   3.615  25.803  0.00  0.00    +0.000 A 
ATOM     22  C   UNL     1      -1.989   4.368  25.707  0.00  0.00    +0.020 A 
ATOM     23  C   UNL     1      -2.561   4.499  25.127  0.00  0.00    +0.099 A 
ATOM     24  N   UNL     1      -2.809   3.878  24.644  0.00  0.00    -0.243 NA
ATOM     25  C   UNL     1      -2.486   3.125  24.741  0.00  0.00    +0.096 A 
ENDBRANCH  19  20
ENDBRANCH  18  19
ENDBRANCH  12  14
TORSDOF 5
ENDMDL
MODEL 3
REMARK VINA RESULT:      -9.6      1.320      5.013
REMARK  Name = 
REMARK  5 active torsions:
REMARK  status: ('A' for Active; 'I' for Inactive)
REMARK    1  A    between atoms: O_2  and  C_3
REMARK    2  A    between atoms: C_6  and  C_9
REMARK    3  A    between atoms: C_12  and  C_14
REMARK    4  A    between atoms: N_18  and  C_19
REMARK    5  A    between atoms: C_19  and  C_20
REMARK                            x       y       z     vdW  Elec       q    Type
REMARK                         _______ _______ _______ _____ _____    ______ ____
ROOT
ATOM      9  C   UNL     1      -2.989   2.784  24.388  0.00  0.00    +0.205 A 
ATOM     10  N   UNL     1      -3.278   2.631  23.631  0.00  0.00    -0.056 NA
ATOM     11  O   UNL     1      -3.878   2.068  23.696  0.00  0.00    -0.336 OA
ATOM     12  C   UNL     1      -3.960   1.874  24.493  0.00  0.00    +0.251 A 
ATOM     13  N   UNL     1      -3.411   2.317  24.921  0.00  0.00    -0.190 NA
ENDROOT
BRANCH   9   6
ATOM      3  C   UNL     1      -1.175   4.368  24.961  0.00  0.00    +0.225 A 
ATOM      4  N   UNL     1      -0.997   3.650  24.596  0.00  0.00    -0.210 NA
ATOM      5  C   UNL     1      -1.601   3.122  24.405  0.00  0.00    +0.105 A 
ATOM      6  C   UNL     1      -2.384   3.312  24.579  0.00  0.00    +0.058 A 
ATOM      7  C   UNL     1      -2.564   4.030  24.944  0.00  0.00    +0.010 A 
ATOM      8  C   UNL     1      -1.960   4.558  25.135  0.00  0.00    +0.058 A 
BRANCH   3   2
ATOM      1  C   UNL     1      -0.550   5.643  24.800  0.00  0.00    +0.254 C 
ATOM      2  O   UNL     1      -0.571   4.896  25.152  0.00  0.00    -0.456 OA
ENDBRANCH   3   2
ENDBRANCH   9   6
BRANCH  12  14
ATOM     14  C   UNL     1      -4.497   1.333  24.808  0.00  0.00    +0.138 C 
ATOM     15  C   UNL     1      -5.216   1.517  25.170  0.00  0.00    +0.027 C 
ATOM     16  C   UNL     1      -5.573   0.811  25.402  0.00  0.00    +0.019 C 
ATOM     17  C   UNL     1      -5.076   0.190  25.183  0.00  0.00    +0.073 C 
ATOM     18  N   UNL     1      -4.411   0.513  24.816  0.00  0.00    -0.263 NA
BRANCH  18  19
ATOM     19  C   UNL     1      -3.772   0.089  24.511  0.00  0.00    +0.101 C 
BRANCH  19  20
ATOM     20  C   UNL     1      -3.745  -0.731  24.591  0.00  0.00    +0.013 A 
ATOM     21  C   UNL     1      -4.017  -1.215  23.981  0.00  0.00    +0.000 A 
ATOM     22  C   UNL     1      -3.990  -2.036  24.061  0.00  0.00    +0.020 A 
ATOM     23  C   UNL     1      -3.690  -2.372  24.752  0.00  0.00    +0.099 A 
ATOM     24  N   UNL     1      -3.417  -1.888  25.362  0.00  0.00    -0.243 NA
ATOM     25  C   UNL     1      -3.445  -1.068  25.282  0.00  0.00    +0.096 A 
ENDBRANCH  19  20
ENDBRANCH  18  19
ENDBRANCH  12  14
TORSDOF 5
ENDMDL
MODEL 4
REMARK VINA RESULT:      -9.5      2.101      5.447
REMARK  Name = 
REMARK  5 active torsions:
REMARK  status: ('A' for Active; 'I' for Inactive)
REMARK    1  A    between atoms: O_2  and  C_3
REMARK    2  A    between atoms: C_6  and  C_9
REMARK    3  A    between atoms: C_12  and  C_14
REMARK    4  A    between atoms: N_18  and  C_19
REMARK    5  A    between atoms: C_19  and  C_20
REMARK                            x       y       z     vdW  Elec       q    Type
REMARK                         _______ _______ _______ _____ _____    ______ ____
ROOT
ATOM      9  C   UNL     1      -1.220   1.624  25.415  0.00  0.00    +0.205 A 
ATOM     10  N   UNL     1      -1.002   1.243  26.114  0.00  0.00    -0.056 NA
ATOM     11  O   UNL     1      -0.896   0.442  25.945  0.00  0.00    -0.336 OA
ATOM     12  C   UNL     1      -1.049   0.329  25.142  0.00  0.00    +0.251 A 
ATOM     13  N   UNL     1      -1.249   1.060  24.815  0.00  0.00    -0.190 NA
ENDROOT
BRANCH   9   6
ATOM      3  C   UNL     1      -1.702   4.039  25.167  0.00  0.00    +0.225 A 
ATOM      4  N   UNL     1      -2.304   3.485  25.064  0.00  0.00    -0.210 NA
ATOM      5  C   UNL     1      -2.144   2.680  25.147  0.00  0.00    +0.105 A 
ATOM      6  C   UNL     1      -1.381   2.429  25.333  0.00  0.00    +0.058 A 
ATOM      7  C   UNL     1      -0.777   2.983  25.436  0.00  0.00    +0.010 A 
ATOM      8  C   UNL     1      -0.938   3.788  25.353  0.00  0.00    +0.058 A 
BRANCH   3   2
ATOM      1  C   UNL     1      -1.242   5.382  25.001  0.00  0.00    +0.254 C 
ATOM      2  O   UNL     1      -1.863   4.844  25.084  0.00  0.00    -0.456 OA
ENDBRANCH   3   2
ENDBRANCH   9   6
BRANCH  12  14
ATOM     14  C   UNL     1      -1.008  -0.388  24.737  0.00  0.00    +0.138 C 
ATOM     15  C   UNL     1      -0.350  -0.682  24.334  0.00  0.00    +0.027 C 
ATOM     16  C   UNL     1      -0.553  -1.413  24.011  0.00  0.00    +0.019 C 
ATOM     17  C   UNL     1      -1.337  -1.572  24.215  0.00  0.00    +0.073 C 
ATOM     18  N   UNL     1      -1.618  -0.939  24.663  0.00  0.00    -0.263 NA
BRANCH  18  19
ATOM     19  C   UNL     1      -2.376  -0.869  24.981  0.00  0.00    +0.101 C 
BRANCH  19  20
ATOM     20  C   UNL     1      -2.978  -1.373  24.729  0.00  0.00    +0.013 A 
ATOM     21  C   UNL     1      -3.510  -1.124  24.151  0.00  0.00    +0.000 A 
ATOM     22  C   UNL     1      -4.112  -1.629  23.899  0.00  0.00    +0.020 A 
ATOM     23  C   UNL     1      -4.182  -2.383  24.226  0.00  0.00    +0.099 A 
ATOM     24  N   UNL     1      -3.649  -2.632  24.804  0.00  0.00    -0.243 NA
ATOM     25  C   UNL     1      -3.047  -2.128  25.056  0.00  0.00    +0.096 A 
ENDBRANCH  19  20
ENDBRANCH  18  19
ENDBRANCH  12  14
TORSDOF 5
ENDMDL
MODEL 5
REMARK VINA RESULT:      -9.4      1.875      5.005
REMARK  Name = 
REMARK  5 active torsions:
REMARK  status: ('A' for Active; 'I' for Inactive)
REMARK    1  A    between atoms: O_2  and  C_3
REMARK    2  A    between atoms: C_6  and  C_9
REMARK    3  A    between atoms: C_12  and  C_14
REMARK    4  A    between atoms: N_18  and  C_19
REMARK    5  A    between atoms: C_19  and  C_20
REMARK                            x       y       z     vdW  Elec       q    Type
REMARK                         _______ _______ _______ _____ _____    ______ ____
ROOT
ATOM      9  C   UNL     1      -3.712   2.013  24.461  0.00  0.00    +0.205 A 
ATOM     10  N   UNL     1      -3.524   1.983  23.658  0.00  0.00    -0.056 NA
ATOM     11  O   UNL     1      -2.972   1.379  23.548  0.00  0.00    -0.336 OA
ATOM     12  C   UNL     1      -2.818   1.037  24.283  0.00  0.00    +0.251 A 
ATOM     13  N   UNL     1      -3.276   1.429  24.847  0.00  0.00    -0.190 NA
ENDROOT
BRANCH   9   6
ATOM      3  C   UNL     1      -5.305   3.582  25.523  0.00  0.00    +0.225 A 
ATOM      4  N   UNL     1      -4.531   3.822  25.366  0.00  0.00    -0.210 NA
ATOM      5  C   UNL     1      -4.000   3.299  25.012  0.00  0.00    +0.105 A 
ATOM      6  C   UNL     1      -4.243   2.536  24.815  0.00  0.00    +0.058 A 
ATOM      7  C   UNL     1      -5.016   2.295  24.971  0.00  0.00    +0.010 A 
ATOM      8  C   UNL     1      -5.547   2.818  25.325  0.00  0.00    +0.058 A 
BRANCH   3   2
ATOM      1  C   UNL     1      -6.009   4.825  25.513  0.00  0.00    +0.254 C 
ATOM      2  O   UNL     1      -5.835   4.105  25.877  0.00  0.00    -0.456 OA
ENDBRANCH   3   2
ENDBRANCH   9   6
BRANCH  12  14
ATOM     14  C   UNL     1      -2.299   0.414  24.429  0.00  0.00    +0.138 C 
ATOM     15  C   UNL     1      -1.475   0.458  24.426  0.00  0.00    +0.027 C 
ATOM     16  C   UNL     1      -1.178  -0.292  24.599  0.00  0.00    +0.019 C 
ATOM     17  C   UNL     1      -1.819  -0.801  24.708  0.00  0.00    +0.073 C 
ATOM     18  N   UNL     1      -2.512  -0.364  24.604  0.00  0.00    -0.263 NA
BRANCH  18  19
ATOM     19  C   UNL     1      -3.282  -0.655  24.663  0.00  0.00    +0.101 C 
BRANCH  19  20
ATOM     20  C   UNL     1      -3.417  -1.468  24.660  0.00  0.00    +0.013 A 
ATOM     21  C   UNL     1      -3.674  -1.842  23.971  0.00  0.00    +0.000 A 
ATOM     22  C   UNL     1      -3.809  -2.656  23.969  0.00  0.00    +0.020 A 
ATOM     23  C   UNL     1      -3.688  -3.096  24.656  0.00  0.00    +0.099 A 
ATOM     24  N   UNL     1      -3.431  -2.722  25.345  0.00  0.00    -0.243 NA
ATOM     25  C   UNL     1      -3.296  -1.909  25.347  0.00  0.00    +0.096 A 
ENDBRANCH  19  20
ENDBRANCH  18  19
ENDBRANCH  12  14
TORSDOF 5
ENDMDL
MODEL 6
REMARK VINA RESULT:      -9.3      1.995      4.551
REMARK  Name = 
REMARK  5 active torsions:
REMARK  status: ('A' for Active; 'I' for Inactive)
REMARK    1  A    between atoms: O_2  and  C_3
REMARK    2  A    between atoms: C_6  and  C_9
REMARK    3  A    between atoms: C_12  and  C_14
REMARK    4  A    between atoms: N_18  and  C_19
REMARK    5  A    between atoms: C_19  and  C_20
REMARK                            x       y       z     vdW  Elec       q    Type
REMARK                         _______ _______ _______ _____ _____    ______ ____
ROOT
ATOM      9  C   UNL     1      -4.314   1.312  24.467  0.00  0.00    +0.205 A 
ATOM     10  N   UNL     1      -3.934   1.338  23.735  0.00  0.00    -0.056 NA
ATOM     11  O   UNL     1      -3.639   0.584  23.574  0.00  0.00    -0.336 OA
ATOM     12  C   UNL     1      -3.836   0.093  24.207  0.00  0.00    +0.251 A 
ATOM     13  N   UNL     1      -4.253   0.543  24.759  0.00  0.00    -0.190 NA
ENDROOT
BRANCH   9   6
ATOM      3  C   UNL     1      -5.438   3.210  25.590  0.00  0.00    +0.225 A 
ATOM      4  N   UNL     1      -4.634   3.253  25.412  0.00  0.00    -0.210 NA
ATOM      5  C   UNL     1      -4.259   2.620  25.037  0.00  0.00    +0.105 A 
ATOM      6  C   UNL     1      -4.689   1.945  24.841  0.00  0.00    +0.058 A 
ATOM      7  C   UNL     1      -5.493   1.900  25.019  0.00  0.00    +0.010 A 
ATOM      8  C   UNL     1      -5.868   2.533  25.393  0.00  0.00    +0.058 A 
BRANCH   3   2
ATOM      1  C   UNL     1      -5.882   4.568  25.576  0.00  0.00    +0.254 C 
ATOM      2  O   UNL     1      -5.813   3.843  25.964  0.00  0.00    -0.456 OA
ENDBRANCH   3   2
ENDBRANCH   9   6
BRANCH  12  14
ATOM     14  C   UNL     1      -3.648  -0.707  24.277  0.00  0.00    +0.138 C 
ATOM     15  C   UNL     1      -4.134  -1.339  24.062  0.00  0.00    +0.027 C 
ATOM     16  C   UNL     1      -3.729  -2.039  24.226  0.00  0.00    +0.019 C 
ATOM     17  C   UNL     1      -2.993  -1.840  24.542  0.00  0.00    +0.073 C 
ATOM     18  N   UNL     1      -2.944  -1.017  24.574  0.00  0.00    -0.263 NA
BRANCH  18  19
ATOM     19  C   UNL     1      -2.302  -0.580  24.853  0.00  0.00    +0.101 C 
BRANCH  19  20
ATOM     20  C   UNL     1      -1.553  -0.923  24.887  0.00  0.00    +0.013 A 
ATOM     21  C   UNL     1      -1.312  -1.321  25.568  0.00  0.00    +0.000 A 
ATOM     22  C   UNL     1      -0.562  -1.664  25.602  0.00  0.00    +0.020 A 
ATOM     23  C   UNL     1      -0.054  -1.610  24.954  0.00  0.00    +0.099 A 
ATOM     24  N   UNL     1      -0.295  -1.212  24.273  0.00  0.00    -0.243 NA
ATOM     25  C   UNL     1      -1.044  -0.869  24.239  0.00  0.00    +0.096 A 
ENDBRANCH  19  20
ENDBRANCH  18  19
ENDBRANCH  12  14
TORSDOF 5
ENDMDL
MODEL 7
REMARK VINA RESULT:      -9.2      1.979      2.940
REMARK  Name = 
REMARK  5 active torsions:
REMARK  status: ('A' for Active; 'I' for Inactive)
REMARK    1  A    between atoms: O_2  and  C_3
REMARK    2  A    between atoms: C_6  and  C_9
REMARK    3  A    between atoms: C_12  and  C_14
REMARK    4  A    between atoms: N_18  and  C_19
REMARK    5  A    between atoms: C_19  and  C_20
REMARK                            x       y       z     vdW  Elec       q    Type
REMARK                         _______ _______ _______ _____ _____    ______ ____
ROOT
ATOM      9  C   UNL     1      -1.540   0.998  24.467  0.00  0.00    +0.205 A 
ATOM     10  N   UNL     1      -1.381   1.456  23.799  0.00  0.00    -0.056 NA
ATOM     11  O   UNL     1      -1.560   2.242  23.980  0.00  0.00    -0.336 OA
ATOM     12  C   UNL     1      -1.829   2.268  24.760  0.00  0.00    +0.251 A 
ATOM     13  N   UNL     1      -1.817   1.500  25.060  0.00  0.00    -0.190 NA
ENDROOT
BRANCH   9   6
ATOM      3  C   UNL     1      -1.238  -1.451  24.655  0.00  0.00    +0.225 A 
ATOM      4  N   UNL     1      -0.583  -0.962  24.546  0.00  0.00    -0.210 NA
ATOM      5  C   UNL     1      -0.684  -0.145  24.484  0.00  0.00    +0.105 A 
ATOM      6  C   UNL     1      -1.439   0.182  24.529  0.00  0.00    +0.058 A 
ATOM      7  C   UNL     1      -2.095  -0.307  24.638  0.00  0.00    +0.010 A 
ATOM      8  C   UNL     1      -1.995  -1.124  24.701  0.00  0.00    +0.058 A 
BRANCH   3   2
ATOM      1  C   UNL     1      -1.753  -2.776  24.509  0.00  0.00    +0.254 C 
ATOM      2  O   UNL     1      -1.137  -2.268  24.717  0.00  0.00    -0.456 OA
ENDBRANCH   3   2
ENDBRANCH   9   6
BRANCH  12  14
ATOM     14  C   UNL     1      -2.069   2.944  25.167  0.00  0.00    +0.138 C 
ATOM     15  C   UNL     1      -1.590   3.419  25.643  0.00  0.00    +0.027 C 
ATOM     16  C   UNL     1      -2.054   4.032  25.941  0.00  0.00    +0.019 C 
ATOM     17  C   UNL     1      -2.820   3.937  25.649  0.00  0.00    +0.073 C 
ATOM     18  N   UNL     1      -2.829   3.264  25.171  0.00  0.00    -0.263 NA
BRANCH  18  19
ATOM     19  C   UNL     1      -3.484   2.965  24.768  0.00  0.00    +0.101 C 
BRANCH  19  20
ATOM     20  C   UNL     1      -4.242   3.075  25.073  0.00  0.00    +0.013 A 
ATOM     21  C   UNL     1      -4.643   2.444  25.420  0.00  0.00    +0.000 A 
ATOM     22  C   UNL     1      -5.402   2.555  25.725  0.00  0.00    +0.020 A 
ATOM     23  C   UNL     1      -5.759   3.297  25.682  0.00  0.00    +0.099 A 
ATOM     24  N   UNL     1      -5.358   3.928  25.335  0.00  0.00    -0.243 NA
ATOM     25  C   UNL     1      -4.600   3.818  25.030  0.00  0.00    +0.096 A 
ENDBRANCH  19  20
ENDBRANCH  18  19
ENDBRANCH  12  14
TORSDOF 5
ENDMDL
MODEL 8
REMARK VINA RESULT:      -9.1      2.510      4.111
REMARK  Name = 
REMARK  5 active torsions:
REMARK  status: ('A' for Active; 'I' for Inactive)
REMARK    1  A    between atoms: O_2  and  C_3
REMARK    2  A    between atoms: C_6  and  C_9
REMARK    3  A    between atoms: C_12  and  C_14
REMARK    4  A    between atoms: N_18  and  C_19
REMARK    5  A    between atoms: C_19  and  C_20
REMARK                            x       y       z     vdW  Elec       q    Type
REMARK                         _______ _______ _______ _____ _____    ______ ____
ROOT
ATOM      9  C   UNL     1      -3.140   2.921  24.934  0.00  0.00    +0.205 A 
ATOM     10  N   UNL     1      -2.822   3.460  24.395  0.00  0.00    -0.056 NA
ATOM     11  O   UNL     1      -2.000   3.400  24.429  0.00  0.00    -0.336 OA
ATOM     12  C   UNL     1      -1.809   2.825  24.989  0.00  0.00    +0.251 A 
ATOM     13  N   UNL     1      -2.514   2.529  25.301  0.00  0.00    -0.190 NA
ENDROOT
BRANCH   9   6
ATOM      3  C   UNL     1      -5.547   2.549  25.372  0.00  0.00    +0.225 A 
ATOM      4  N   UNL     1      -5.161   3.196  25.709  0.00  0.00    -0.210 NA
ATOM      5  C   UNL     1      -4.359   3.320  25.563  0.00  0.00    +0.105 A 
ATOM      6  C   UNL     1      -3.942   2.797  25.080  0.00  0.00    +0.058 A 
ATOM      7  C   UNL     1      -4.327   2.150  24.743  0.00  0.00    +0.010 A 
ATOM      8  C   UNL     1      -5.130   2.026  24.889  0.00  0.00    +0.058 A 
BRANCH   3   2
ATOM      1  C   UNL     1      -6.585   1.858  26.070  0.00  0.00    +0.254 C 
ATOM      2  O   UNL     1      -6.349   2.425  25.519  0.00  0.00    -0.456 OA
ENDBRANCH   3   2
ENDBRANCH   9   6
BRANCH  12  14
ATOM     14  C   UNL     1      -1.048   2.587  25.200  0.00  0.00    +0.138 C 
ATOM     15  C   UNL     1      -0.581   2.925  25.790  0.00  0.00    +0.027 C 
ATOM     16  C   UNL     1       0.136   2.517  25.813  0.00  0.00    +0.019 C 
ATOM     17  C   UNL     1       0.111   1.926  25.237  0.00  0.00    +0.073 C 
ATOM     18  N   UNL     1      -0.621   1.969  24.858  0.00  0.00    -0.263 NA
BRANCH  18  19
ATOM     19  C   UNL     1      -0.879   1.481  24.246  0.00  0.00    +0.101 C 
BRANCH  19  20
ATOM     20  C   UNL     1      -0.501   0.763  24.103  0.00  0.00    +0.013 A 
ATOM     21  C   UNL     1      -0.744   0.082  24.500  0.00  0.00    +0.000 A 
ATOM     22  C   UNL     1      -0.365  -0.637  24.357  0.00  0.00    +0.020 A 
ATOM     23  C   UNL     1       0.258  -0.675  23.817  0.00  0.00    +0.099 A 
ATOM     24  N   UNL     1       0.501   0.006  23.420  0.00  0.00    -0.243 NA
ATOM     25  C   UNL     1       0.122   0.725  23.563  0.00  0.00    +0.096 A 
ENDBRANCH  19  20
ENDBRANCH  18  19
ENDBRANCH  12  14
TORSDOF 5
ENDMDL
MODEL 9
REMARK VINA RESULT:      -8.2      2.861      4.096
REMARK  Name = 
REMARK  5 active torsions:
REMARK  status: ('A' for Active; 'I' for Inactive)
REMARK    1  A    between atoms: O_2  and  C_3
REMARK    2  A    between atoms: C_6  and  C_9
REMARK    3  A    between atoms: C_12  and  C_14
REMARK    4  A    between atoms: N_18  and  C_19
REMARK    5  A    between atoms: C_19  and  C_20
REMARK                            x       y       z     vdW  Elec       q    Type
REMARK                         _______ _______ _______ _____ _____    ______ ____
ROOT
ATOM      9  C   UNL     1      -0.868   0.293  24.630  0.00  0.00    +0.205 A 
ATOM     10  N   UNL     1      -0.884   0.594  25.398  0.00  0.00    -0.056 NA
ATOM     11  O   UNL     1      -1.651   0.505  25.691  0.00  0.00    -0.336 OA
ATOM     12  C   UNL     1      -2.108   0.149  25.103  0.00  0.00    +0.251 A 
ATOM     13  N   UNL     1      -1.624   0.018  24.448  0.00  0.00    -0.190 NA
ENDROOT
BRANCH   9   6
ATOM      3  C   UNL     1       1.104   0.228  23.135  0.00  0.00    +0.225 A 
ATOM      4  N   UNL     1       0.663  -0.457  23.267  0.00  0.00    -0.210 NA
ATOM      5  C   UNL     1       0.005  -0.435  23.765  0.00  0.00    +0.105 A 
ATOM      6  C   UNL     1      -0.211   0.271  24.132  0.00  0.00    +0.058 A 
ATOM      7  C   UNL     1       0.230   0.957  24.000  0.00  0.00    +0.010 A 
ATOM      8  C   UNL     1       0.887   0.935  23.502  0.00  0.00    +0.058 A 
BRANCH   3   2
ATOM      1  C   UNL     1       1.763  -0.293  21.979  0.00  0.00    +0.254 C 
ATOM      2  O   UNL     1       1.761   0.206  22.637  0.00  0.00    -0.456 OA
ENDBRANCH   3   2
ENDBRANCH   9   6
BRANCH  12  14
ATOM     14  C   UNL     1      -2.908  -0.042  25.161  0.00  0.00    +0.138 C 
ATOM     15  C   UNL     1      -3.217  -0.775  25.384  0.00  0.00    +0.027 C 
ATOM     16  C   UNL     1      -4.039  -0.721  25.367  0.00  0.00    +0.019 C 
ATOM     17  C   UNL     1      -4.240   0.045  25.132  0.00  0.00    +0.073 C 
ATOM     18  N   UNL     1      -3.541   0.464  25.005  0.00  0.00    -0.263 NA
BRANCH  18  19
ATOM     19  C   UNL     1      -3.484   1.251  24.764  0.00  0.00    +0.101 C 
BRANCH  19  20
ATOM     20  C   UNL     1      -4.113   1.768  24.894  0.00  0.00    +0.013 A 
ATOM     21  C   UNL     1      -4.067   2.330  25.496  0.00  0.00    +0.000 A 
ATOM     22  C   UNL     1      -4.697   2.848  25.626  0.00  0.00    +0.020 A 
ATOM     23  C   UNL     1      -5.371   2.803  25.153  0.00  0.00    +0.099 A 
ATOM     24  N   UNL     1      -5.416   2.242  24.551  0.00  0.00    -0.243 NA
ATOM     25  C   UNL     1      -4.788   1.724  24.421  0.00  0.00    +0.096 A 
ENDBRANCH  19  20
ENDBRANCH  18  19
ENDBRANCH  12  14
TORSDOF 5
ENDMDL
MODEL 10
REMARK VINA RESULT:      -8.0     16.254     18.798
REMARK  Name = 
REMARK  5 active torsions:
REMARK  status: ('A' for Active; 'I' for Inactive)
REMARK    1  A    between atoms: O_2  and  C_3
REMARK    2  A    between atoms: C_6  and  C_9
REMARK    3  A    between atoms: C_12  and  C_14
REMARK    4  A    between atoms: N_18  and  C_19
REMARK    5  A    between atoms: C_19  and  C_20
REMARK                            x       y       z     vdW  Elec       q    Type
REMARK                         _______ _______ _______ _____ _____    ______ ____
ROOT
ATOM      9  C   UNL     1      12.072   7.565  20.027  0.00  0.00    +0.205 A 
ATOM     10  N   UNL     1      11.956   6.793  19.758  0.00  0.00    -0.056 NA
ATOM     11  O   UNL     1      12.521   6.638  19.176  0.00  0.00    -0.336 OA
ATOM     12  C   UNL     1      12.986   7.314  19.086  0.00  0.00    +0.251 A 
ATOM     13  N   UNL     1      12.709   7.886  19.612  0.00  0.00    -0.190 NA
ENDROOT
BRANCH   9   6
ATOM      3  C   UNL     1      10.744   8.711  21.772  0.00  0.00    +0.225 A 
ATOM      4  N   UNL     1      10.585   8.849  20.975  0.00  0.00    -0.210 NA
ATOM      5  C   UNL     1      11.028   8.467  20.393  0.00  0.00    +0.105 A 
ATOM      6  C   UNL     1      11.630   7.947  20.609  0.00  0.00    +0.058 A 
ATOM      7  C   UNL     1      11.790   7.808  21.406  0.00  0.00    +0.010 A 
ATOM      8  C   UNL     1      11.347   8.190  21.988  0.00  0.00    +0.058 A 
BRANCH   3   2
ATOM      1  C   UNL     1      10.562   9.094  23.137  0.00  0.00    +0.254 C 
ATOM      2  O   UNL     1      10.301   9.093  22.354  0.00  0.00    -0.456 OA
ENDBRANCH   3   2
ENDBRANCH   9   6
BRANCH  12  14
ATOM     14  C   UNL     1      13.618   7.402  18.563  0.00  0.00    +0.138 C 
ATOM     15  C   UNL     1      13.570   7.684  17.789  0.00  0.00    +0.027 C 
ATOM     16  C   UNL     1      14.330   7.680  17.469  0.00  0.00    +0.019 C 
ATOM     17  C   UNL     1      14.848   7.396  18.045  0.00  0.00    +0.073 C 
ATOM     18  N   UNL     1      14.408   7.224  18.721  0.00  0.00    -0.263 NA
BRANCH  18  19
ATOM     19  C   UNL     1      14.705   6.926  19.431  0.00  0.00    +0.101 C 
BRANCH  19  20
ATOM     20  C   UNL     1      15.518   6.916  19.565  0.00  0.00    +0.013 A 
ATOM     21  C   UNL     1      15.962   6.251  19.363  0.00  0.00    +0.000 A 
ATOM     22  C   UNL     1      16.776   6.241  19.497  0.00  0.00    +0.020 A 
ATOM     23  C   UNL     1      17.146   6.897  19.835  0.00  0.00    +0.099 A 
ATOM     24  N   UNL     1      16.702   7.562  20.038  0.00  0.00    -0.243 NA
ATOM     25  C   UNL     1      15.889   7.572  19.903  0.00  0.00    +0.096 A 
ENDBRANCH  19  20
ENDBRANCH  18  19
ENDBRANCH  12  14
TORSDOF 5
ENDMDL
