MODEL 1
REMARK VINA RESULT:     -12.9      0.000      0.000
REMARK  Name = 
REMARK  5 active torsions:
REMARK  status: ('A' for Active; 'I' for Inactive)
REMARK    1  A    between atoms: N_2  and  C_4
REMARK    2  A    between atoms: C_7  and  C_10
REMARK    3  A    between atoms: C_13  and  C_15
REMARK    4  A    between atoms: N_18  and  C_19
REMARK    5  A    between atoms: C_19  and  C_20
REMARK                            x       y       z     vdW  Elec       q    Type
REMARK                         _______ _______ _______ _____ _____    ______ ____
ROOT
ATOM     15  C   UNL     1      -4.332   2.451  25.206  0.00  0.00    +0.096 C 
ATOM     16  C   UNL     1      -4.780   3.109  24.989  0.00  0.00    +0.028 C 
ATOM     17  C   UNL     1      -4.373   3.785  25.228  0.00  0.00    +0.073 C 
ATOM     18  N   UNL     1      -3.674   3.547  25.593  0.00  0.00    -0.268 NA
ATOM     30  C   UNL     1      -3.648   2.721  25.579  0.00  0.00    +0.082 C 
ENDROOT
BRANCH  15  13
ATOM     10  C   UNL     1      -4.441   0.345  24.875  0.00  0.00    +0.250 A 
ATOM     11  N   UNL     1      -5.240   0.550  24.862  0.00  0.00    -0.107 NA
ATOM     12  N   UNL     1      -5.297   1.364  24.984  0.00  0.00    -0.111 NA
ATOM     13  C   UNL     1      -4.533   1.662  25.073  0.00  0.00    +0.227 A 
ATOM     14  O   UNL     1      -4.004   1.033  25.006  0.00  0.00    -0.419 OA
BRANCH  10   7
ATOM      4  C   UNL     1      -3.518  -1.932  24.576  0.00  0.00    +0.048 A 
ATOM      5  C   UNL     1      -3.459  -1.556  25.308  0.00  0.00    +0.015 A 
ATOM      6  C   UNL     1      -3.767  -0.796  25.408  0.00  0.00    +0.006 A 
ATOM      7  C   UNL     1      -4.134  -0.414  24.775  0.00  0.00    +0.055 A 
ATOM      8  C   UNL     1      -4.192  -0.791  24.044  0.00  0.00    +0.006 A 
ATOM      9  C   UNL     1      -3.885  -1.549  23.944  0.00  0.00    +0.015 A 
BRANCH   4   2
ATOM      1  C   UNL     1      -2.394  -2.800  24.424  0.00  0.00    +0.112 C 
ATOM      2  N   UNL     1      -3.211  -2.691  24.477  0.00  0.00    -0.304 N 
ATOM      3  C   UNL     1      -3.718  -3.340  24.432  0.00  0.00    +0.112 C 
ENDBRANCH   4   2
ENDBRANCH  10   7
ENDBRANCH  15  13
BRANCH  18  19
ATOM     19  C   UNL     1      -3.100   4.044  25.916  0.00  0.00    +0.101 C 
BRANCH  19  20
ATOM     20  C   UNL     1      -2.305   3.937  25.723  0.00  0.00    +0.012 A 
ATOM     21  C   UNL     1      -1.867   3.247  25.837  0.00  0.00    +0.073 A 
ATOM     22  N   UNL     1      -1.100   3.385  25.567  0.00  0.00    -0.324 N 
ATOM     23  C   UNL     1      -0.478   2.843  25.577  0.00  0.00    +0.130 C 
ATOM     24  C   UNL     1      -1.064   4.159  25.286  0.00  0.00    +0.060 A 
ATOM     25  C   UNL     1      -1.809   4.500  25.382  0.00  0.00    +0.015 A 
ATOM     26  C   UNL     1      -1.938   5.280  25.146  0.00  0.00    +0.001 A 
ATOM     27  C   UNL     1      -1.324   5.719  24.814  0.00  0.00    +0.000 A 
ATOM     28  C   UNL     1      -0.579   5.378  24.718  0.00  0.00    +0.001 A 
ATOM     29  C   UNL     1      -0.448   4.598  24.953  0.00  0.00    +0.017 A 
ENDBRANCH  19  20
ENDBRANCH  18  19
TORSDOF 5
ENDMDL
MODEL 2
REMARK VINA RESULT:     -11.0      1.567      2.798
REMARK  Name = 
REMARK  5 active torsions:
REMARK  status: ('A' for Active; 'I' for Inactive)
REMARK    1  A    between atoms: N_2  and  C_4
REMARK    2  A    between atoms: C_7  and  C_10
REMARK    3  A    between atoms: C_13  and  C_15
REMARK    4  A    between atoms: N_18  and  C_19
REMARK    5  A    between atoms: C_19  and  C_20
REMARK                            x       y       z     vdW  Elec       q    Type
REMARK                         _______ _______ _______ _____ _____    ______ ____
ROOT
ATOM     15  C   UNL     1      -0.400   1.028  24.837  0.00  0.00    +0.096 C 
ATOM     16  C   UNL     1       0.084   1.364  24.259  0.00  0.00    +0.028 C 
ATOM     17  C   UNL     1       0.200   2.157  24.451  0.00  0.00    +0.073 C 
ATOM     18  N   UNL     1      -0.212   2.313  25.148  0.00  0.00    -0.268 NA
ATOM     30  C   UNL     1      -0.583   1.615  25.386  0.00  0.00    +0.082 C 
ENDROOT
BRANCH  15  13
ATOM     10  C   UNL     1      -1.419  -0.846  24.753  0.00  0.00    +0.250 A 
ATOM     11  N   UNL     1      -0.680  -1.078  25.038  0.00  0.00    -0.107 NA
ATOM     12  N   UNL     1      -0.209  -0.405  25.104  0.00  0.00    -0.111 NA
ATOM     13  C   UNL     1      -0.655   0.244  24.860  0.00  0.00    +0.227 A 
ATOM     14  O   UNL     1      -1.403  -0.028  24.643  0.00  0.00    -0.419 OA
BRANCH  10   7
ATOM      4  C   UNL     1      -3.342  -2.337  24.306  0.00  0.00    +0.048 A 
ATOM      5  C   UNL     1      -3.465  -1.530  24.422  0.00  0.00    +0.015 A 
ATOM      6  C   UNL     1      -2.823  -1.033  24.571  0.00  0.00    +0.006 A 
ATOM      7  C   UNL     1      -2.059  -1.343  24.604  0.00  0.00    +0.055 A 
ATOM      8  C   UNL     1      -1.938  -2.151  24.487  0.00  0.00    +0.006 A 
ATOM      9  C   UNL     1      -2.578  -2.648  24.338  0.00  0.00    +0.015 A 
BRANCH   4   2
ATOM      1  C   UNL     1      -4.638  -2.548  23.743  0.00  0.00    +0.112 C 
ATOM      2  N   UNL     1      -3.984  -2.834  24.157  0.00  0.00    -0.304 N 
ATOM      3  C   UNL     1      -3.971  -3.615  24.421  0.00  0.00    +0.112 C 
ENDBRANCH   4   2
ENDBRANCH  10   7
ENDBRANCH  15  13
BRANCH  18  19
ATOM     19  C   UNL     1      -0.248   3.039  25.539  0.00  0.00    +0.101 C 
BRANCH  19  20
ATOM     20  C   UNL     1      -0.959   3.456  25.571  0.00  0.00    +0.012 A 
ATOM     21  C   UNL     1      -1.674   3.173  25.871  0.00  0.00    +0.073 A 
ATOM     22  N   UNL     1      -2.237   3.771  25.794  0.00  0.00    -0.324 N 
ATOM     23  C   UNL     1      -3.028   3.725  26.024  0.00  0.00    +0.130 C 
ATOM     24  C   UNL     1      -1.870   4.423  25.447  0.00  0.00    +0.060 A 
ATOM     25  C   UNL     1      -1.080   4.228  25.309  0.00  0.00    +0.015 A 
ATOM     26  C   UNL     1      -0.574   4.780  24.963  0.00  0.00    +0.001 A 
ATOM     27  C   UNL     1      -0.857   5.526  24.754  0.00  0.00    +0.000 A 
ATOM     28  C   UNL     1      -1.647   5.721  24.892  0.00  0.00    +0.001 A 
ATOM     29  C   UNL     1      -2.154   5.170  25.239  0.00  0.00    +0.017 A 
ENDBRANCH  19  20
ENDBRANCH  18  19
TORSDOF 5
ENDMDL
MODEL 3
REMARK VINA RESULT:     -10.9      0.929      5.777
REMARK  Name = 
REMARK  5 active torsions:
REMARK  status: ('A' for Active; 'I' for Inactive)
REMARK    1  A    between atoms: N_2  and  C_4
REMARK    2  A    between atoms: C_7  and  C_10
REMARK    3  A    between atoms: C_13  and  C_15
REMARK    4  A    between atoms: N_18  and  C_19
REMARK    5  A    between atoms: C_19  and  C_20
REMARK                            x       y       z     vdW  Elec       q    Type
REMARK                         _______ _______ _______ _____ _____    ______ ____
ROOT
ATOM     15  C   UNL     1      -4.791   1.688  25.080  0.00  0.00    +0.096 C 
ATOM     16  C   UNL     1      -5.523   1.424  25.354  0.00  0.00    +0.028 C 
ATOM     17  C   UNL     1      -5.609   0.635  25.131  0.00  0.00    +0.073 C 
ATOM     18  N   UNL     1      -4.932   0.411  24.719  0.00  0.00    -0.268 NA
ATOM     30  C   UNL     1      -4.426   1.063  24.688  0.00  0.00    +0.082 C 
ENDROOT
BRANCH  15  13
ATOM     10  C   UNL     1      -3.633   3.478  25.206  0.00  0.00    +0.250 A 
ATOM     11  N   UNL     1      -4.368   3.744  25.470  0.00  0.00    -0.107 NA
ATOM     12  N   UNL     1      -4.891   3.107  25.455  0.00  0.00    -0.111 NA
ATOM     13  C   UNL     1      -4.480   2.446  25.182  0.00  0.00    +0.227 A 
ATOM     14  O   UNL     1      -3.703   2.674  25.028  0.00  0.00    -0.419 OA
BRANCH  10   7
ATOM      4  C   UNL     1      -1.581   4.844  24.987  0.00  0.00    +0.048 A 
ATOM      5  C   UNL     1      -2.036   4.673  24.320  0.00  0.00    +0.015 A 
ATOM      6  C   UNL     1      -2.720   4.217  24.393  0.00  0.00    +0.006 A 
ATOM      7  C   UNL     1      -2.949   3.933  25.133  0.00  0.00    +0.055 A 
ATOM      8  C   UNL     1      -2.494   4.104  25.800  0.00  0.00    +0.006 A 
ATOM      9  C   UNL     1      -1.810   4.560  25.727  0.00  0.00    +0.015 A 
BRANCH   4   2
ATOM      1  C   UNL     1      -0.166   4.931  24.806  0.00  0.00    +0.112 C 
ATOM      2  N   UNL     1      -0.898   5.299  24.913  0.00  0.00    -0.304 N 
ATOM      3  C   UNL     1      -0.944   6.122  24.946  0.00  0.00    +0.112 C 
ENDBRANCH   4   2
ENDBRANCH  10   7
ENDBRANCH  15  13
BRANCH  18  19
ATOM     19  C   UNL     1      -4.784  -0.333  24.394  0.00  0.00    +0.101 C 
BRANCH  19  20
ATOM     20  C   UNL     1      -4.270  -0.855  24.773  0.00  0.00    +0.012 A 
ATOM     21  C   UNL     1      -3.876  -0.716  25.485  0.00  0.00    +0.073 A 
ATOM     22  N   UNL     1      -3.421  -1.381  25.659  0.00  0.00    -0.324 N 
ATOM     23  C   UNL     1      -2.938  -1.480  26.321  0.00  0.00    +0.130 C 
ATOM     24  C   UNL     1      -3.534  -1.932  25.055  0.00  0.00    +0.060 A 
ATOM     25  C   UNL     1      -4.059  -1.606  24.508  0.00  0.00    +0.015 A 
ATOM     26  C   UNL     1      -4.276  -2.037  23.839  0.00  0.00    +0.001 A 
ATOM     27  C   UNL     1      -3.969  -2.792  23.716  0.00  0.00    +0.000 A 
ATOM     28  C   UNL     1      -3.445  -3.118  24.264  0.00  0.00    +0.001 A 
ATOM     29  C   UNL     1      -3.227  -2.688  24.933  0.00  0.00    +0.017 A 
ENDBRANCH  19  20
ENDBRANCH  18  19
TORSDOF 5
ENDMDL
MODEL 4
REMARK VINA RESULT:     -10.7      1.705      6.360
REMARK  Name = 
REMARK  5 active torsions:
REMARK  status: ('A' for Active; 'I' for Inactive)
REMARK    1  A    between atoms: N_2  and  C_4
REMARK    2  A    between atoms: C_7  and  C_10
REMARK    3  A    between atoms: C_13  and  C_15
REMARK    4  A    between atoms: N_18  and  C_19
REMARK    5  A    between atoms: C_19  and  C_20
REMARK                            x       y       z     vdW  Elec       q    Type
REMARK                         _______ _______ _______ _____ _____    ______ ____
ROOT
ATOM     15  C   UNL     1      -0.565   0.126  24.708  0.00  0.00    +0.096 C 
ATOM     16  C   UNL     1      -0.161  -0.491  24.337  0.00  0.00    +0.028 C 
ATOM     17  C   UNL     1      -0.598  -1.182  24.443  0.00  0.00    +0.073 C 
ATOM     18  N   UNL     1      -1.272  -0.994  24.880  0.00  0.00    -0.268 NA
ATOM     30  C   UNL     1      -1.251  -0.185  25.043  0.00  0.00    +0.082 C 
ENDROOT
BRANCH  15  13
ATOM     10  C   UNL     1      -0.348   2.247  24.820  0.00  0.00    +0.250 A 
ATOM     11  N   UNL     1       0.439   2.009  24.749  0.00  0.00    -0.107 NA
ATOM     12  N   UNL     1       0.454   1.186  24.699  0.00  0.00    -0.111 NA
ATOM     13  C   UNL     1      -0.324   0.914  24.738  0.00  0.00    +0.227 A 
ATOM     14  O   UNL     1      -0.819   1.570  24.813  0.00  0.00    -0.419 OA
BRANCH  10   7
ATOM      4  C   UNL     1      -1.152   4.579  25.017  0.00  0.00    +0.048 A 
ATOM      5  C   UNL     1      -0.635   4.371  24.409  0.00  0.00    +0.015 A 
ATOM      6  C   UNL     1      -0.367   3.593  24.343  0.00  0.00    +0.006 A 
ATOM      7  C   UNL     1      -0.616   3.024  24.886  0.00  0.00    +0.055 A 
ATOM      8  C   UNL     1      -1.133   3.233  25.494  0.00  0.00    +0.006 A 
ATOM      9  C   UNL     1      -1.400   4.009  25.560  0.00  0.00    +0.015 A 
BRANCH   4   2
ATOM      1  C   UNL     1      -0.925   5.982  24.866  0.00  0.00    +0.112 C 
ATOM      2  N   UNL     1      -1.419   5.356  25.082  0.00  0.00    -0.304 N 
ATOM      3  C   UNL     1      -2.180   5.509  25.364  0.00  0.00    +0.112 C 
ENDBRANCH   4   2
ENDBRANCH  10   7
ENDBRANCH  15  13
BRANCH  18  19
ATOM     19  C   UNL     1      -1.863  -1.520  25.112  0.00  0.00    +0.101 C 
BRANCH  19  20
ATOM     20  C   UNL     1      -2.640  -1.405  24.862  0.00  0.00    +0.012 A 
ATOM     21  C   UNL     1      -3.063  -0.697  24.901  0.00  0.00    +0.073 A 
ATOM     22  N   UNL     1      -3.815  -0.832  24.592  0.00  0.00    -0.324 N 
ATOM     23  C   UNL     1      -4.419  -0.274  24.525  0.00  0.00    +0.130 C 
ATOM     24  C   UNL     1      -3.858  -1.623  24.362  0.00  0.00    +0.060 A 
ATOM     25  C   UNL     1      -3.132  -1.977  24.529  0.00  0.00    +0.015 A 
ATOM     26  C   UNL     1      -3.014  -2.775  24.356  0.00  0.00    +0.001 A 
ATOM     27  C   UNL     1      -3.620  -3.218  24.016  0.00  0.00    +0.000 A 
ATOM     28  C   UNL     1      -4.346  -2.864  23.849  0.00  0.00    +0.001 A 
ATOM     29  C   UNL     1      -4.466  -2.066  24.022  0.00  0.00    +0.017 A 
ENDBRANCH  19  20
ENDBRANCH  18  19
TORSDOF 5
ENDMDL
MODEL 5
REMARK VINA RESULT:     -10.2      1.778      2.925
REMARK  Name = 
REMARK  5 active torsions:
REMARK  status: ('A' for Active; 'I' for Inactive)
REMARK    1  A    between atoms: N_2  and  C_4
REMARK    2  A    between atoms: C_7  and  C_10
REMARK    3  A    between atoms: C_13  and  C_15
REMARK    4  A    between atoms: N_18  and  C_19
REMARK    5  A    between atoms: C_19  and  C_20
REMARK                            x       y       z     vdW  Elec       q    Type
REMARK                         _______ _______ _______ _____ _____    ______ ____
ROOT
ATOM     15  C   UNL     1      -0.338   1.143  24.920  0.00  0.00    +0.096 C 
ATOM     16  C   UNL     1       0.307   1.565  24.626  0.00  0.00    +0.028 C 
ATOM     17  C   UNL     1       0.313   2.306  24.988  0.00  0.00    +0.073 C 
ATOM     18  N   UNL     1      -0.328   2.343  25.506  0.00  0.00    -0.268 NA
ATOM     30  C   UNL     1      -0.730   1.623  25.464  0.00  0.00    +0.082 C 
ENDROOT
BRANCH  15  13
ATOM     10  C   UNL     1      -1.274  -0.726  24.484  0.00  0.00    +0.250 A 
ATOM     11  N   UNL     1      -0.492  -0.887  24.276  0.00  0.00    -0.107 NA
ATOM     12  N   UNL     1      -0.046  -0.206  24.414  0.00  0.00    -0.111 NA
ATOM     13  C   UNL     1      -0.552   0.375  24.707  0.00  0.00    +0.227 A 
ATOM     14  O   UNL     1      -1.311   0.054  24.751  0.00  0.00    -0.419 OA
BRANCH  10   7
ATOM      4  C   UNL     1      -3.173  -2.305  24.335  0.00  0.00    +0.048 A 
ATOM      5  C   UNL     1      -2.410  -2.590  24.465  0.00  0.00    +0.015 A 
ATOM      6  C   UNL     1      -1.776  -2.063  24.514  0.00  0.00    +0.006 A 
ATOM      7  C   UNL     1      -1.907  -1.252  24.435  0.00  0.00    +0.055 A 
ATOM      8  C   UNL     1      -2.671  -0.968  24.305  0.00  0.00    +0.006 A 
ATOM      9  C   UNL     1      -3.304  -1.494  24.256  0.00  0.00    +0.015 A 
BRANCH   4   2
ATOM      1  C   UNL     1      -3.774  -3.553  24.686  0.00  0.00    +0.112 C 
ATOM      2  N   UNL     1      -3.806  -2.832  24.286  0.00  0.00    -0.304 N 
ATOM      3  C   UNL     1      -4.470  -2.638  23.837  0.00  0.00    +0.112 C 
ENDBRANCH   4   2
ENDBRANCH  10   7
ENDBRANCH  15  13
BRANCH  18  19
ATOM     19  C   UNL     1      -0.532   2.985  25.983  0.00  0.00    +0.101 C 
BRANCH  19  20
ATOM     20  C   UNL     1      -0.873   3.656  25.647  0.00  0.00    +0.012 A 
ATOM     21  C   UNL     1      -0.506   4.176  25.122  0.00  0.00    +0.073 A 
ATOM     22  N   UNL     1      -1.047   4.767  24.928  0.00  0.00    -0.324 N 
ATOM     23  C   UNL     1      -0.911   5.401  24.418  0.00  0.00    +0.130 C 
ATOM     24  C   UNL     1      -1.749   4.612  25.333  0.00  0.00    +0.060 A 
ATOM     25  C   UNL     1      -1.641   3.926  25.777  0.00  0.00    +0.015 A 
ATOM     26  C   UNL     1      -2.257   3.636  26.243  0.00  0.00    +0.001 A 
ATOM     27  C   UNL     1      -2.980   4.031  26.264  0.00  0.00    +0.000 A 
ATOM     28  C   UNL     1      -3.088   4.718  25.820  0.00  0.00    +0.001 A 
ATOM     29  C   UNL     1      -2.473   5.009  25.354  0.00  0.00    +0.017 A 
ENDBRANCH  19  20
ENDBRANCH  18  19
TORSDOF 5
ENDMDL
MODEL 6
REMARK VINA RESULT:     -10.1      3.320      5.067
REMARK  Name = 
REMARK  5 active torsions:
REMARK  status: ('A' for Active; 'I' for Inactive)
REMARK    1  A    between atoms: N_2  and  C_4
REMARK    2  A    between atoms: C_7  and  C_10
REMARK    3  A    between atoms: C_13  and  C_15
REMARK    4  A    between atoms: N_18  and  C_19
REMARK    5  A    between atoms: C_19  and  C_20
REMARK                            x       y       z     vdW  Elec       q    Type
REMARK                         _______ _______ _______ _____ _____    ______ ____
ROOT
ATOM     15  C   UNL     1      -1.784   1.007  23.612  0.00  0.00    +0.096 C 
ATOM     16  C   UNL     1      -2.005   1.550  23.031  0.00  0.00    +0.028 C 
ATOM     17  C   UNL     1      -2.793   1.756  23.161  0.00  0.00    +0.073 C 
ATOM     18  N   UNL     1      -3.059   1.342  23.823  0.00  0.00    -0.268 NA
ATOM     30  C   UNL     1      -2.435   0.879  24.101  0.00  0.00    +0.082 C 
ENDROOT
BRANCH  15  13
ATOM     10  C   UNL     1       0.255   0.378  23.529  0.00  0.00    +0.250 A 
ATOM     11  N   UNL     1      -0.052  -0.147  24.086  0.00  0.00    -0.107 NA
ATOM     12  N   UNL     1      -0.853   0.025  24.186  0.00  0.00    -0.111 NA
ATOM     13  C   UNL     1      -1.042   0.655  23.689  0.00  0.00    +0.227 A 
ATOM     14  O   UNL     1      -0.358   0.874  23.283  0.00  0.00    -0.419 OA
BRANCH  10   7
ATOM      4  C   UNL     1       2.596   0.452  22.732  0.00  0.00    +0.048 A 
ATOM      5  C   UNL     1       2.337   0.991  23.301  0.00  0.00    +0.015 A 
ATOM      6  C   UNL     1       1.556   0.966  23.566  0.00  0.00    +0.006 A 
ATOM      7  C   UNL     1       1.035   0.402  23.263  0.00  0.00    +0.055 A 
ATOM      8  C   UNL     1       1.295  -0.136  22.695  0.00  0.00    +0.006 A 
ATOM      9  C   UNL     1       2.075  -0.111  22.429  0.00  0.00    +0.015 A 
BRANCH   4   2
ATOM      1  C   UNL     1       3.974   0.748  22.969  0.00  0.00    +0.112 C 
ATOM      2  N   UNL     1       3.377   0.477  22.467  0.00  0.00    -0.304 N 
ATOM      3  C   UNL     1       3.561   0.233  21.701  0.00  0.00    +0.112 C 
ENDBRANCH   4   2
ENDBRANCH  10   7
ENDBRANCH  15  13
BRANCH  18  19
ATOM     19  C   UNL     1      -3.816   1.382  24.149  0.00  0.00    +0.101 C 
BRANCH  19  20
ATOM     20  C   UNL     1      -4.018   2.008  24.646  0.00  0.00    +0.012 A 
ATOM     21  C   UNL     1      -3.515   2.614  24.893  0.00  0.00    +0.073 A 
ATOM     22  N   UNL     1      -3.945   3.119  25.383  0.00  0.00    -0.324 N 
ATOM     23  C   UNL     1      -3.656   3.798  25.752  0.00  0.00    +0.130 C 
ATOM     24  C   UNL     1      -4.714   2.826  25.439  0.00  0.00    +0.060 A 
ATOM     25  C   UNL     1      -4.759   2.140  24.983  0.00  0.00    +0.015 A 
ATOM     26  C   UNL     1      -5.470   1.724  24.935  0.00  0.00    +0.001 A 
ATOM     27  C   UNL     1      -6.135   1.993  25.341  0.00  0.00    +0.000 A 
ATOM     28  C   UNL     1      -6.089   2.680  25.797  0.00  0.00    +0.001 A 
ATOM     29  C   UNL     1      -5.379   3.096  25.846  0.00  0.00    +0.017 A 
ENDBRANCH  19  20
ENDBRANCH  18  19
TORSDOF 5
ENDMDL
MODEL 7
REMARK VINA RESULT:     -10.0      2.641      4.608
REMARK  Name = 
REMARK  5 active torsions:
REMARK  status: ('A' for Active; 'I' for Inactive)
REMARK    1  A    between atoms: N_2  and  C_4
REMARK    2  A    between atoms: C_7  and  C_10
REMARK    3  A    between atoms: C_13  and  C_15
REMARK    4  A    between atoms: N_18  and  C_19
REMARK    5  A    between atoms: C_19  and  C_20
REMARK                            x       y       z     vdW  Elec       q    Type
REMARK                         _______ _______ _______ _____ _____    ______ ____
ROOT
ATOM     15  C   UNL     1      -2.699  -0.407  24.931  0.00  0.00    +0.096 C 
ATOM     16  C   UNL     1      -3.181  -0.724  25.522  0.00  0.00    +0.028 C 
ATOM     17  C   UNL     1      -3.923  -0.369  25.464  0.00  0.00    +0.073 C 
ATOM     18  N   UNL     1      -3.901   0.167  24.838  0.00  0.00    -0.268 NA
ATOM     30  C   UNL     1      -3.144   0.144  24.509  0.00  0.00    +0.082 C 
ENDROOT
BRANCH  15  13
ATOM     10  C   UNL     1      -0.662  -0.588  24.317  0.00  0.00    +0.250 A 
ATOM     11  N   UNL     1      -0.735  -1.235  24.823  0.00  0.00    -0.107 NA
ATOM     12  N   UNL     1      -1.506  -1.246  25.115  0.00  0.00    -0.111 NA
ATOM     13  C   UNL     1      -1.911  -0.606  24.790  0.00  0.00    +0.227 A 
ATOM     14  O   UNL     1      -1.390  -0.199  24.296  0.00  0.00    -0.419 OA
BRANCH  10   7
ATOM      4  C   UNL     1       1.376   0.070  23.078  0.00  0.00    +0.048 A 
ATOM      5  C   UNL     1       1.131  -0.717  23.079  0.00  0.00    +0.015 A 
ATOM      6  C   UNL     1       0.450  -0.937  23.492  0.00  0.00    +0.006 A 
ATOM      7  C   UNL     1       0.017  -0.369  23.904  0.00  0.00    +0.055 A 
ATOM      8  C   UNL     1       0.263   0.419  23.903  0.00  0.00    +0.006 A 
ATOM      9  C   UNL     1       0.942   0.638  23.491  0.00  0.00    +0.015 A 
BRANCH   4   2
ATOM      1  C   UNL     1       2.587   0.825  23.001  0.00  0.00    +0.112 C 
ATOM      2  N   UNL     1       2.056   0.289  22.665  0.00  0.00    -0.304 N 
ATOM      3  C   UNL     1       2.204  -0.026  21.918  0.00  0.00    +0.112 C 
ENDBRANCH   4   2
ENDBRANCH  10   7
ENDBRANCH  15  13
BRANCH  18  19
ATOM     19  C   UNL     1      -4.525   0.644  24.585  0.00  0.00    +0.101 C 
BRANCH  19  20
ATOM     20  C   UNL     1      -4.483   1.462  24.677  0.00  0.00    +0.012 A 
ATOM     21  C   UNL     1      -3.886   1.953  24.388  0.00  0.00    +0.073 A 
ATOM     22  N   UNL     1      -4.065   2.728  24.606  0.00  0.00    -0.324 N 
ATOM     23  C   UNL     1      -3.614   3.397  24.432  0.00  0.00    +0.130 C 
ATOM     24  C   UNL     1      -4.772   2.717  25.030  0.00  0.00    +0.060 A 
ATOM     25  C   UNL     1      -5.031   1.934  25.073  0.00  0.00    +0.015 A 
ATOM     26  C   UNL     1      -5.732   1.754  25.469  0.00  0.00    +0.001 A 
ATOM     27  C   UNL     1      -6.174   2.354  25.821  0.00  0.00    +0.000 A 
ATOM     28  C   UNL     1      -5.915   3.136  25.777  0.00  0.00    +0.001 A 
ATOM     29  C   UNL     1      -5.214   3.318  25.382  0.00  0.00    +0.017 A 
ENDBRANCH  19  20
ENDBRANCH  18  19
TORSDOF 5
ENDMDL
MODEL 8
REMARK VINA RESULT:      -9.7      2.711      4.563
REMARK  Name = 
REMARK  5 active torsions:
REMARK  status: ('A' for Active; 'I' for Inactive)
REMARK    1  A    between atoms: N_2  and  C_4
REMARK    2  A    between atoms: C_7  and  C_10
REMARK    3  A    between atoms: C_13  and  C_15
REMARK    4  A    between atoms: N_18  and  C_19
REMARK    5  A    between atoms: C_19  and  C_20
REMARK                            x       y       z     vdW  Elec       q    Type
REMARK                         _______ _______ _______ _____ _____    ______ ____
ROOT
ATOM     15  C   UNL     1      -1.385   3.343  25.414  0.00  0.00    +0.096 C 
ATOM     16  C   UNL     1      -1.369   4.168  25.447  0.00  0.00    +0.028 C 
ATOM     17  C   UNL     1      -2.141   4.434  25.559  0.00  0.00    +0.073 C 
ATOM     18  N   UNL     1      -2.636   3.775  25.594  0.00  0.00    -0.268 NA
ATOM     30  C   UNL     1      -2.168   3.101  25.505  0.00  0.00    +0.082 C 
ENDROOT
BRANCH  15  13
ATOM     10  C   UNL     1       0.139   1.997  24.764  0.00  0.00    +0.250 A 
ATOM     11  N   UNL     1       0.402   2.181  25.524  0.00  0.00    -0.107 NA
ATOM     12  N   UNL     1      -0.137   2.707  25.860  0.00  0.00    -0.111 NA
ATOM     13  C   UNL     1      -0.733   2.849  25.308  0.00  0.00    +0.227 A 
ATOM     14  O   UNL     1      -0.562   2.411  24.631  0.00  0.00    -0.419 OA
BRANCH  10   7
ATOM      4  C   UNL     1       1.259   0.476  23.165  0.00  0.00    +0.048 A 
ATOM      5  C   UNL     1       1.625   1.180  23.389  0.00  0.00    +0.015 A 
ATOM      6  C   UNL     1       1.251   1.688  23.923  0.00  0.00    +0.006 A 
ATOM      7  C   UNL     1       0.512   1.490  24.231  0.00  0.00    +0.055 A 
ATOM      8  C   UNL     1       0.147   0.785  24.007  0.00  0.00    +0.006 A 
ATOM      9  C   UNL     1       0.519   0.278  23.474  0.00  0.00    +0.015 A 
BRANCH   4   2
ATOM      1  C   UNL     1       1.183  -0.472  22.098  0.00  0.00    +0.112 C 
ATOM      2  N   UNL     1       1.632  -0.031  22.633  0.00  0.00    -0.304 N 
ATOM      3  C   UNL     1       2.455  -0.098  22.633  0.00  0.00    +0.112 C 
ENDBRANCH   4   2
ENDBRANCH  10   7
ENDBRANCH  15  13
BRANCH  18  19
ATOM     19  C   UNL     1      -3.454   3.787  25.701  0.00  0.00    +0.101 C 
BRANCH  19  20
ATOM     20  C   UNL     1      -3.945   3.383  25.175  0.00  0.00    +0.012 A 
ATOM     21  C   UNL     1      -3.820   3.298  24.363  0.00  0.00    +0.073 A 
ATOM     22  N   UNL     1      -4.445   2.856  24.055  0.00  0.00    -0.324 N 
ATOM     23  C   UNL     1      -4.542   2.640  23.264  0.00  0.00    +0.130 C 
ATOM     24  C   UNL     1      -4.954   2.668  24.675  0.00  0.00    +0.060 A 
ATOM     25  C   UNL     1      -4.645   2.994  25.367  0.00  0.00    +0.015 A 
ATOM     26  C   UNL     1      -5.043   2.893  26.083  0.00  0.00    +0.001 A 
ATOM     27  C   UNL     1      -5.748   2.467  26.107  0.00  0.00    +0.000 A 
ATOM     28  C   UNL     1      -6.057   2.141  25.415  0.00  0.00    +0.001 A 
ATOM     29  C   UNL     1      -5.661   2.241  24.699  0.00  0.00    +0.017 A 
ENDBRANCH  19  20
ENDBRANCH  18  19
TORSDOF 5
ENDMDL
MODEL 9
REMARK VINA RESULT:      -9.3      4.298      5.946
REMARK  Name = 
REMARK  5 active torsions:
REMARK  status: ('A' for Active; 'I' for Inactive)
REMARK    1  A    between atoms: N_2  and  C_4
REMARK    2  A    between atoms: C_7  and  C_10
REMARK    3  A    between atoms: C_13  and  C_15
REMARK    4  A    between atoms: N_18  and  C_19
REMARK    5  A    between atoms: C_19  and  C_20
REMARK                            x       y       z     vdW  Elec       q    Type
REMARK                         _______ _______ _______ _____ _____    ______ ____
ROOT
ATOM     15  C   UNL     1       0.061   0.239  23.495  0.00  0.00    +0.096 C 
ATOM     16  C   UNL     1      -0.240  -0.223  24.109  0.00  0.00    +0.028 C 
ATOM     17  C   UNL     1      -0.980   0.077  24.316  0.00  0.00    +0.073 C 
ATOM     18  N   UNL     1      -1.137   0.725  23.830  0.00  0.00    -0.268 NA
ATOM     30  C   UNL     1      -0.493   0.824  23.323  0.00  0.00    +0.082 C 
ENDROOT
BRANCH  15  13
ATOM     10  C   UNL     1       2.103   0.065  22.896  0.00  0.00    +0.250 A 
ATOM     11  N   UNL     1       1.713  -0.125  22.194  0.00  0.00    -0.107 NA
ATOM     12  N   UNL     1       0.901  -0.084  22.333  0.00  0.00    -0.111 NA
ATOM     13  C   UNL     1       0.788   0.133  23.120  0.00  0.00    +0.227 A 
ATOM     14  O   UNL     1       1.530   0.225  23.469  0.00  0.00    -0.419 OA
BRANCH  10   7
ATOM      4  C   UNL     1       4.554   0.145  23.226  0.00  0.00    +0.048 A 
ATOM      5  C   UNL     1       4.132  -0.535  23.430  0.00  0.00    +0.015 A 
ATOM      6  C   UNL     1       3.315  -0.561  23.320  0.00  0.00    +0.006 A 
ATOM      7  C   UNL     1       2.919   0.092  23.006  0.00  0.00    +0.055 A 
ATOM      8  C   UNL     1       3.342   0.771  22.802  0.00  0.00    +0.006 A 
ATOM      9  C   UNL     1       4.159   0.797  22.912  0.00  0.00    +0.015 A 
BRANCH   4   2
ATOM      1  C   UNL     1       5.873  -0.166  22.775  0.00  0.00    +0.112 C 
ATOM      2  N   UNL     1       5.371   0.170  23.336  0.00  0.00    -0.304 N 
ATOM      3  C   UNL     1       5.686   0.532  24.008  0.00  0.00    +0.112 C 
ENDBRANCH   4   2
ENDBRANCH  10   7
ENDBRANCH  15  13
BRANCH  18  19
ATOM     19  C   UNL     1      -1.817   1.191  23.847  0.00  0.00    +0.101 C 
BRANCH  19  20
ATOM     20  C   UNL     1      -1.874   1.819  24.378  0.00  0.00    +0.012 A 
ATOM     21  C   UNL     1      -1.272   2.093  24.873  0.00  0.00    +0.073 A 
ATOM     22  N   UNL     1      -1.568   2.727  25.308  0.00  0.00    -0.324 N 
ATOM     23  C   UNL     1      -1.152   3.166  25.870  0.00  0.00    +0.130 C 
ATOM     24  C   UNL     1      -2.352   2.846  25.084  0.00  0.00    +0.060 A 
ATOM     25  C   UNL     1      -2.542   2.285  24.510  0.00  0.00    +0.015 A 
ATOM     26  C   UNL     1      -3.298   2.271  24.180  0.00  0.00    +0.001 A 
ATOM     27  C   UNL     1      -3.865   2.818  24.425  0.00  0.00    +0.000 A 
ATOM     28  C   UNL     1      -3.676   3.379  25.000  0.00  0.00    +0.001 A 
ATOM     29  C   UNL     1      -2.920   3.393  25.330  0.00  0.00    +0.017 A 
ENDBRANCH  19  20
ENDBRANCH  18  19
TORSDOF 5
ENDMDL
MODEL 10
REMARK VINA RESULT:      -9.1      1.163      1.902
REMARK  Name = 
REMARK  5 active torsions:
REMARK  status: ('A' for Active; 'I' for Inactive)
REMARK    1  A    between atoms: N_2  and  C_4
REMARK    2  A    between atoms: C_7  and  C_10
REMARK    3  A    between atoms: C_13  and  C_15
REMARK    4  A    between atoms: N_18  and  C_19
REMARK    5  A    between atoms: C_19  and  C_20
REMARK                            x       y       z     vdW  Elec       q    Type
REMARK                         _______ _______ _______ _____ _____    ______ ____
ROOT
ATOM     15  C   UNL     1      -5.008   1.269  25.134  0.00  0.00    +0.096 C 
ATOM     16  C   UNL     1      -5.785   1.536  25.205  0.00  0.00    +0.028 C 
ATOM     17  C   UNL     1      -5.763   2.330  25.426  0.00  0.00    +0.073 C 
ATOM     18  N   UNL     1      -4.973   2.555  25.491  0.00  0.00    -0.268 NA
ATOM     30  C   UNL     1      -4.506   1.899  25.310  0.00  0.00    +0.082 C 
ENDROOT
BRANCH  15  13
ATOM     10  C   UNL     1      -4.026  -0.578  24.709  0.00  0.00    +0.250 A 
ATOM     11  N   UNL     1      -4.801  -0.754  24.487  0.00  0.00    -0.107 NA
ATOM     12  N   UNL     1      -5.263  -0.084  24.619  0.00  0.00    -0.111 NA
ATOM     13  C   UNL     1      -4.774   0.507  24.923  0.00  0.00    +0.227 A 
ATOM     14  O   UNL     1      -4.010   0.202  24.978  0.00  0.00    -0.419 OA
BRANCH  10   7
ATOM      4  C   UNL     1      -2.091  -2.117  24.587  0.00  0.00    +0.048 A 
ATOM      5  C   UNL     1      -1.968  -1.307  24.684  0.00  0.00    +0.015 A 
ATOM      6  C   UNL     1      -2.614  -0.794  24.724  0.00  0.00    +0.006 A 
ATOM      7  C   UNL     1      -3.381  -1.091  24.668  0.00  0.00    +0.055 A 
ATOM      8  C   UNL     1      -3.503  -1.901  24.571  0.00  0.00    +0.006 A 
ATOM      9  C   UNL     1      -2.859  -2.414  24.531  0.00  0.00    +0.015 A 
BRANCH   4   2
ATOM      1  C   UNL     1      -1.419  -3.212  23.964  0.00  0.00    +0.112 C 
ATOM      2  N   UNL     1      -1.446  -2.629  24.547  0.00  0.00    -0.304 N 
ATOM      3  C   UNL     1      -0.828  -2.558  25.089  0.00  0.00    +0.112 C 
ENDBRANCH   4   2
ENDBRANCH  10   7
ENDBRANCH  15  13
BRANCH  18  19
ATOM     19  C   UNL     1      -4.697   3.304  25.700  0.00  0.00    +0.101 C 
BRANCH  19  20
ATOM     20  C   UNL     1      -4.139   3.685  25.228  0.00  0.00    +0.012 A 
ATOM     21  C   UNL     1      -4.222   3.862  24.426  0.00  0.00    +0.073 A 
ATOM     22  N   UNL     1      -3.534   4.243  24.176  0.00  0.00    -0.324 N 
ATOM     23  C   UNL     1      -3.381   4.517  23.413  0.00  0.00    +0.130 C 
ATOM     24  C   UNL     1      -3.026   4.301  24.823  0.00  0.00    +0.060 A 
ATOM     25  C   UNL     1      -3.400   3.957  25.473  0.00  0.00    +0.015 A 
ATOM     26  C   UNL     1      -3.018   3.936  26.204  0.00  0.00    +0.001 A 
ATOM     27  C   UNL     1      -2.264   4.258  26.286  0.00  0.00    +0.000 A 
ATOM     28  C   UNL     1      -1.890   4.603  25.636  0.00  0.00    +0.001 A 
ATOM     29  C   UNL     1      -2.271   4.625  24.904  0.00  0.00    +0.017 A 
ENDBRANCH  19  20
ENDBRANCH  18  19
TORSDOF 5
ENDMDL
