MODEL 1
REMARK VINA RESULT:      -9.5      0.000      0.000
REMARK  Name = 
REMARK  7 active torsions:
REMARK  status: ('A' for Active; 'I' for Inactive)
REMARK    1  A    between atoms: C_3  and  C_4
REMARK    2  A    between atoms: C_4  and  O_5
REMARK    3  A    between atoms: O_5  and  C_6
REMARK    4  A    between atoms: C_9  and  C_12
REMARK    5  A    between atoms: N_14  and  C_15
REMARK    6  A    between atoms: N_25  and  C_26
REMARK    7  A    between atoms: C_28  and  C_32
REMARK                            x       y       z     vdW  Elec       q    Type
REMARK                         _______ _______ _______ _____ _____    ______ ____
ROOT
ATOM     15  C   UNL     1      -1.402   0.748  24.484  0.00  0.00    +0.146 C 
ATOM     16  C   UNL     1      -1.791   1.376  24.118  0.00  0.00    +0.119 C 
ATOM     17  N   UNL     1      -2.584   1.596  24.179  0.00  0.00    -0.261 N 
ATOM     18  C   UNL     1      -3.184   1.241  24.620  0.00  0.00    +0.095 C 
ATOM     19  C   UNL     1      -3.139   0.579  25.110  0.00  0.00    +0.024 C 
ATOM     20  C   UNL     1      -2.483   0.108  25.280  0.00  0.00    +0.037 C 
ATOM     21  C   UNL     1      -1.710   0.183  25.001  0.00  0.00    +0.174 C 
ATOM     22  O   UNL     1      -1.174  -0.381  25.276  0.00  0.00    -0.221 OA
ATOM     23  C   UNL     1      -2.806   2.258  23.739  0.00  0.00    +0.328 C 
ATOM     24  O   UNL     1      -2.249   2.654  23.278  0.00  0.00    -0.250 OA
ATOM     25  N   UNL     1      -3.587   2.524  23.761  0.00  0.00    -0.162 NA
ENDROOT
BRANCH  25  26
ATOM     26  C   UNL     1      -4.145   2.128  24.222  0.00  0.00    +0.075 A 
ATOM     27  C   UNL     1      -4.521   2.521  24.842  0.00  0.00    +0.021 A 
ATOM     28  C   UNL     1      -5.079   2.126  25.303  0.00  0.00    +0.073 A 
ATOM     29  C   UNL     1      -5.261   1.337  25.144  0.00  0.00    +0.004 A 
ATOM     30  C   UNL     1      -4.885   0.944  24.524  0.00  0.00    +0.001 A 
ATOM     31  C   UNL     1      -4.327   1.340  24.063  0.00  0.00    +0.017 A 
BRANCH  28  32
ATOM     32  C   UNL     1      -5.455   2.519  25.924  0.00  0.00    +0.419 C 
ATOM     33  F   UNL     1      -5.831   2.912  26.544  0.00  0.00    -0.166 F 
ATOM     34  F   UNL     1      -5.849   1.823  26.126  0.00  0.00    -0.166 F 
ATOM     35  F   UNL     1      -5.061   3.215  25.721  0.00  0.00    -0.166 F 
ENDBRANCH  28  32
ENDBRANCH  25  26
BRANCH  15  14
ATOM     12  C   UNL     1      -0.360   0.456  23.551  0.00  0.00    +0.265 C 
ATOM     13  O   UNL     1      -0.924   0.313  22.966  0.00  0.00    -0.268 OA
ATOM     14  N   UNL     1      -0.599   0.673  24.310  0.00  0.00    -0.199 NA
BRANCH  12   9
ATOM      6  C   UNL     1       2.049   0.233  23.029  0.00  0.00    +0.139 A 
ATOM      7  C   UNL     1       1.517  -0.345  22.778  0.00  0.00    +0.037 A 
ATOM      8  C   UNL     1       0.714  -0.271  22.952  0.00  0.00    +0.008 A 
ATOM      9  C   UNL     1       0.443   0.381  23.377  0.00  0.00    +0.055 A 
ATOM     10  C   UNL     1       0.974   0.960  23.628  0.00  0.00    +0.008 A 
ATOM     11  C   UNL     1       1.778   0.886  23.454  0.00  0.00    +0.037 A 
BRANCH   6   5
ATOM      5  O   UNL     1       2.852   0.159  22.855  0.00  0.00    -0.470 OA
BRANCH   5   4
ATOM      4  C   UNL     1       3.407   0.154  23.465  0.00  0.00    +0.236 C 
BRANCH   4   3
ATOM      1  C   UNL     1       4.435   1.336  22.588  0.00  0.00    +0.075 C 
ATOM      2  C   UNL     1       4.681   0.608  22.889  0.00  0.00    +0.154 A 
ATOM      3  C   UNL     1       4.209   0.065  23.292  0.00  0.00    +0.071 A 
ATOM     36  C   UNL     1       4.680  -0.583  23.492  0.00  0.00    +0.100 A 
ATOM     37  C   UNL     1       4.431  -1.255  23.900  0.00  0.00    +0.055 C 
ATOM     38  N   UNL     1       5.443  -0.440  23.213  0.00  0.00    -0.082 NA
ATOM     39  O   UNL     1       5.443   0.296  22.840  0.00  0.00    -0.358 OA
ENDBRANCH   4   3
ENDBRANCH   5   4
ENDBRANCH   6   5
ENDBRANCH  12   9
ENDBRANCH  15  14
TORSDOF 7
ENDMDL
MODEL 2
REMARK VINA RESULT:      -6.0     16.252     17.367
REMARK  Name = 
REMARK  7 active torsions:
REMARK  status: ('A' for Active; 'I' for Inactive)
REMARK    1  A    between atoms: C_3  and  C_4
REMARK    2  A    between atoms: C_4  and  O_5
REMARK    3  A    between atoms: O_5  and  C_6
REMARK    4  A    between atoms: C_9  and  C_12
REMARK    5  A    between atoms: N_14  and  C_15
REMARK    6  A    between atoms: N_25  and  C_26
REMARK    7  A    between atoms: C_28  and  C_32
REMARK                            x       y       z     vdW  Elec       q    Type
REMARK                         _______ _______ _______ _____ _____    ______ ____
ROOT
ATOM     15  C   UNL     1      -7.668  -9.950  12.352  0.00  0.00    +0.146 C 
ATOM     16  C   UNL     1      -7.008  -9.867  11.865  0.00  0.00    +0.119 C 
ATOM     17  N   UNL     1      -6.978  -9.633  11.075  0.00  0.00    -0.261 N 
ATOM     18  C   UNL     1      -7.601  -9.424  10.576  0.00  0.00    +0.095 C 
ATOM     19  C   UNL     1      -8.408  -9.398  10.746  0.00  0.00    +0.024 C 
ATOM     20  C   UNL     1      -8.791  -9.574  11.454  0.00  0.00    +0.037 C 
ATOM     21  C   UNL     1      -8.462  -9.820  12.170  0.00  0.00    +0.174 C 
ATOM     22  O   UNL     1      -8.997  -9.954  12.783  0.00  0.00    -0.221 OA
ATOM     23  C   UNL     1      -6.225  -9.603  10.739  0.00  0.00    +0.328 C 
ATOM     24  O   UNL     1      -5.563  -9.801  11.189  0.00  0.00    -0.250 OA
ATOM     25  N   UNL     1      -6.134  -9.375   9.950  0.00  0.00    -0.162 NA
ENDROOT
BRANCH  25  26
ATOM     26  C   UNL     1      -6.795  -9.177   9.500  0.00  0.00    +0.075 A 
ATOM     27  C   UNL     1      -6.927  -8.391   9.284  0.00  0.00    +0.021 A 
ATOM     28  C   UNL     1      -7.589  -8.193   8.834  0.00  0.00    +0.073 A 
ATOM     29  C   UNL     1      -8.118  -8.779   8.598  0.00  0.00    +0.004 A 
ATOM     30  C   UNL     1      -7.987  -9.565   8.813  0.00  0.00    +0.001 A 
ATOM     31  C   UNL     1      -7.325  -9.763   9.264  0.00  0.00    +0.017 A 
BRANCH  28  32
ATOM     32  C   UNL     1      -7.721  -7.407   8.618  0.00  0.00    +0.419 C 
ATOM     33  F   UNL     1      -7.853  -6.622   8.403  0.00  0.00    -0.166 F 
ATOM     34  F   UNL     1      -6.943  -7.350   8.350  0.00  0.00    -0.166 F 
ATOM     35  F   UNL     1      -8.499  -7.465   8.886  0.00  0.00    -0.166 F 
ENDBRANCH  28  32
ENDBRANCH  25  26
BRANCH  15  14
ATOM     12  C   UNL     1      -7.106  -9.700  13.643  0.00  0.00    +0.265 C 
ATOM     13  O   UNL     1      -6.853  -8.958  13.388  0.00  0.00    -0.268 OA
ATOM     14  N   UNL     1      -7.514 -10.197  13.125  0.00  0.00    -0.199 NA
BRANCH  12   9
ATOM      6  C   UNL     1      -6.645 -10.440  15.959  0.00  0.00    +0.139 A 
ATOM      7  C   UNL     1      -7.241  -9.888  15.813  0.00  0.00    +0.037 A 
ATOM      8  C   UNL     1      -7.395  -9.642  15.041  0.00  0.00    +0.008 A 
ATOM      9  C   UNL     1      -6.953  -9.947  14.415  0.00  0.00    +0.055 A 
ATOM     10  C   UNL     1      -6.357 -10.498  14.561  0.00  0.00    +0.008 A 
ATOM     11  C   UNL     1      -6.203 -10.745  15.333  0.00  0.00    +0.037 A 
BRANCH   6   5
ATOM      5  O   UNL     1      -6.491 -10.686  16.732  0.00  0.00    -0.470 OA
BRANCH   5   4
ATOM      4  C   UNL     1      -6.235 -10.141  17.295  0.00  0.00    +0.236 C 
BRANCH   4   3
ATOM      1  C   UNL     1      -4.592 -10.469  17.938  0.00  0.00    +0.075 C 
ATOM      2  C   UNL     1      -5.300 -10.543  18.356  0.00  0.00    +0.154 A 
ATOM      3  C   UNL     1      -6.055 -10.392  18.060  0.00  0.00    +0.071 A 
ATOM     36  C   UNL     1      -6.599 -10.537  18.664  0.00  0.00    +0.100 A 
ATOM     37  C   UNL     1      -7.418 -10.455  18.608  0.00  0.00    +0.055 C 
ATOM     38  N   UNL     1      -6.180 -10.777  19.333  0.00  0.00    -0.082 NA
ATOM     39  O   UNL     1      -5.377 -10.780  19.142  0.00  0.00    -0.358 OA
ENDBRANCH   4   3
ENDBRANCH   5   4
ENDBRANCH   6   5
ENDBRANCH  12   9
ENDBRANCH  15  14
TORSDOF 7
ENDMDL
MODEL 3
REMARK VINA RESULT:      -5.7     15.351     17.186
REMARK  Name = 
REMARK  7 active torsions:
REMARK  status: ('A' for Active; 'I' for Inactive)
REMARK    1  A    between atoms: C_3  and  C_4
REMARK    2  A    between atoms: C_4  and  O_5
REMARK    3  A    between atoms: O_5  and  C_6
REMARK    4  A    between atoms: C_9  and  C_12
REMARK    5  A    between atoms: N_14  and  C_15
REMARK    6  A    between atoms: N_25  and  C_26
REMARK    7  A    between atoms: C_28  and  C_32
REMARK                            x       y       z     vdW  Elec       q    Type
REMARK                         _______ _______ _______ _____ _____    ______ ____
ROOT
ATOM     15  C   UNL     1      -5.718 -10.007  12.910  0.00  0.00    +0.146 C 
ATOM     16  C   UNL     1      -4.969 -10.247  13.157  0.00  0.00    +0.119 C 
ATOM     17  N   UNL     1      -4.266 -10.260  12.727  0.00  0.00    -0.261 N 
ATOM     18  C   UNL     1      -4.137 -10.035  11.942  0.00  0.00    +0.095 C 
ATOM     19  C   UNL     1      -4.681  -9.743  11.397  0.00  0.00    +0.024 C 
ATOM     20  C   UNL     1      -5.488  -9.602  11.498  0.00  0.00    +0.037 C 
ATOM     21  C   UNL     1      -5.950  -9.720  12.171  0.00  0.00    +0.174 C 
ATOM     22  O   UNL     1      -6.748  -9.524  12.097  0.00  0.00    -0.221 OA
ATOM     23  C   UNL     1      -3.602 -10.533  13.134  0.00  0.00    +0.328 C 
ATOM     24  O   UNL     1      -3.670 -10.771  13.920  0.00  0.00    -0.250 OA
ATOM     25  N   UNL     1      -2.870 -10.568  12.754  0.00  0.00    -0.162 NA
ENDROOT
BRANCH  25  26
ATOM     26  C   UNL     1      -2.802 -10.330  11.967  0.00  0.00    +0.075 A 
ATOM     27  C   UNL     1      -2.306  -9.701  11.768  0.00  0.00    +0.021 A 
ATOM     28  C   UNL     1      -2.238  -9.463  10.982  0.00  0.00    +0.073 A 
ATOM     29  C   UNL     1      -2.666  -9.853  10.394  0.00  0.00    +0.004 A 
ATOM     30  C   UNL     1      -3.162 -10.481  10.593  0.00  0.00    +0.001 A 
ATOM     31  C   UNL     1      -3.230 -10.719  11.380  0.00  0.00    +0.017 A 
BRANCH  28  32
ATOM     32  C   UNL     1      -1.742  -8.835  10.782  0.00  0.00    +0.419 C 
ATOM     33  F   UNL     1      -1.246  -8.206  10.583  0.00  0.00    -0.166 F 
ATOM     34  F   UNL     1      -2.278  -8.594  10.204  0.00  0.00    -0.166 F 
ATOM     35  F   UNL     1      -1.205  -9.075  11.361  0.00  0.00    -0.166 F 
ENDBRANCH  28  32
ENDBRANCH  25  26
BRANCH  15  14
ATOM     12  C   UNL     1      -6.192  -9.765  14.236  0.00  0.00    +0.265 C 
ATOM     13  O   UNL     1      -5.470  -9.416  14.430  0.00  0.00    -0.268 OA
ATOM     14  N   UNL     1      -6.316 -10.060  13.476  0.00  0.00    -0.199 NA
BRANCH  12   9
ATOM      6  C   UNL     1      -7.985  -9.925  15.935  0.00  0.00    +0.139 A 
ATOM      7  C   UNL     1      -8.175  -9.932  15.132  0.00  0.00    +0.037 A 
ATOM      8  C   UNL     1      -7.578  -9.879  14.566  0.00  0.00    +0.008 A 
ATOM      9  C   UNL     1      -6.790  -9.818  14.803  0.00  0.00    +0.055 A 
ATOM     10  C   UNL     1      -6.599  -9.811  15.605  0.00  0.00    +0.008 A 
ATOM     11  C   UNL     1      -7.197  -9.864  16.172  0.00  0.00    +0.037 A 
BRANCH   6   5
ATOM      5  O   UNL     1      -8.583  -9.979  16.501  0.00  0.00    -0.470 OA
BRANCH   5   4
ATOM      4  C   UNL     1      -8.464  -9.670  17.257  0.00  0.00    +0.236 C 
BRANCH   4   3
ATOM      1  C   UNL     1      -9.978  -8.706  17.281  0.00  0.00    +0.075 C 
ATOM      2  C   UNL     1      -9.758  -9.278  17.833  0.00  0.00    +0.154 A 
ATOM      3  C   UNL     1      -9.062  -9.721  17.822  0.00  0.00    +0.071 A 
ATOM     36  C   UNL     1      -9.070 -10.225  18.476  0.00  0.00    +0.100 A 
ATOM     37  C   UNL     1      -8.481 -10.765  18.679  0.00  0.00    +0.055 C 
ATOM     38  N   UNL     1      -9.771 -10.093  18.891  0.00  0.00    -0.082 NA
ATOM     39  O   UNL     1     -10.195  -9.508  18.493  0.00  0.00    -0.358 OA
ENDBRANCH   4   3
ENDBRANCH   5   4
ENDBRANCH   6   5
ENDBRANCH  12   9
ENDBRANCH  15  14
TORSDOF 7
ENDMDL
