MODEL 1
REMARK VINA RESULT:     -13.1      0.000      0.000
REMARK  Name = 
REMARK  6 active torsions:
REMARK  status: ('A' for Active; 'I' for Inactive)
REMARK    1  A    between atoms: C_2  and  C_3
REMARK    2  A    between atoms: C_2  and  C_24
REMARK    3  A    between atoms: C_10  and  N_11
REMARK    4  A    between atoms: C_12  and  C_14
REMARK    5  A    between atoms: C_14  and  C_15
REMARK    6  A    between atoms: N_26  and  C_27
REMARK                            x       y       z     vdW  Elec       q    Type
REMARK                         _______ _______ _______ _____ _____    ______ ____
ROOT
ATOM      3  C   UNL     1      -0.688  -0.631  24.731  0.00  0.00    +0.039 C 
ATOM      4  C   UNL     1      -0.268  -0.628  24.020  0.00  0.00    +0.003 C 
ATOM      5  C   UNL     1       0.046   0.077  23.730  0.00  0.00    +0.000 C 
ATOM      6  C   UNL     1      -0.059   0.779  24.150  0.00  0.00    +0.002 C 
ATOM      7  C   UNL     1       0.360   0.782  23.441  0.00  0.00    +0.000 C 
ATOM      8  C   UNL     1       0.255   1.485  23.860  0.00  0.00    +0.002 C 
ATOM      9  C   UNL     1       0.149   2.187  24.280  0.00  0.00    +0.022 C 
ATOM     10  C   UNL     1      -0.271   2.183  24.991  0.00  0.00    +0.095 C 
ATOM     19  C   UNL     1      -0.585   1.478  25.281  0.00  0.00    +0.022 C 
ATOM     20  C   UNL     1      -1.004   1.475  25.991  0.00  0.00    +0.002 C 
ATOM     21  C   UNL     1      -0.480   0.776  24.861  0.00  0.00    +0.032 C 
ATOM     22  C   UNL     1      -0.794   0.071  25.151  0.00  0.00    +0.152 C 
ATOM     23  O   UNL     1      -1.213   0.067  25.861  0.00  0.00    -0.223 OA
ENDROOT
BRANCH  10  11
ATOM     11  N   UNL     1      -0.376   2.886  25.411  0.00  0.00    -0.207 NA
ATOM     12  C   UNL     1      -0.753   3.527  25.055  0.00  0.00    +0.241 C 
ATOM     13  O   UNL     1      -1.026   3.466  24.278  0.00  0.00    -0.273 OA
BRANCH  12  14
ATOM     14  C   UNL     1      -0.858   4.230  25.475  0.00  0.00    +0.087 C 
BRANCH  14  15
ATOM     15  C   UNL     1      -1.309   4.840  25.152  0.00  0.00    +0.009 C 
ATOM     16  C   UNL     1      -1.759   5.452  24.828  0.00  0.00    +0.000 C 
ATOM     17  C   UNL     1      -0.640   5.127  24.762  0.00  0.00    +0.000 C 
ATOM     18  C   UNL     1      -1.977   4.554  25.541  0.00  0.00    +0.000 C 
ENDBRANCH  14  15
ENDBRANCH  12  14
ENDBRANCH  10  11
BRANCH   3   2
ATOM      1  C   UNL     1      -0.657  -1.704  25.675  0.00  0.00    +0.010 C 
ATOM      2  C   UNL     1      -1.002  -1.337  25.021  0.00  0.00    +0.081 C 
BRANCH   2  24
ATOM     24  C   UNL     1      -1.661  -1.677  24.658  0.00  0.00    +0.241 C 
ATOM     25  O   UNL     1      -1.569  -2.110  23.961  0.00  0.00    -0.273 OA
ATOM     26  N   UNL     1      -2.409  -1.584  24.990  0.00  0.00    -0.207 NA
BRANCH  26  27
ATOM     27  C   UNL     1      -3.067  -1.924  24.627  0.00  0.00    +0.095 C 
ATOM     28  C   UNL     1      -3.203  -2.735  24.694  0.00  0.00    +0.022 C 
ATOM     29  C   UNL     1      -3.860  -3.075  24.330  0.00  0.00    +0.002 C 
ATOM     30  C   UNL     1      -4.384  -2.603  23.900  0.00  0.00    +0.000 C 
ATOM     31  C   UNL     1      -4.248  -1.792  23.833  0.00  0.00    +0.002 C 
ATOM     32  C   UNL     1      -3.590  -1.452  24.196  0.00  0.00    +0.022 C 
ENDBRANCH  26  27
ENDBRANCH   2  24
ENDBRANCH   3   2
TORSDOF 6
ENDMDL
MODEL 2
REMARK VINA RESULT:     -12.3      2.219      6.246
REMARK  Name = 
REMARK  6 active torsions:
REMARK  status: ('A' for Active; 'I' for Inactive)
REMARK    1  A    between atoms: C_2  and  C_3
REMARK    2  A    between atoms: C_2  and  C_24
REMARK    3  A    between atoms: C_10  and  N_11
REMARK    4  A    between atoms: C_12  and  C_14
REMARK    5  A    between atoms: C_14  and  C_15
REMARK    6  A    between atoms: N_26  and  C_27
REMARK                            x       y       z     vdW  Elec       q    Type
REMARK                         _______ _______ _______ _____ _____    ______ ____
ROOT
ATOM      3  C   UNL     1      -4.177   2.832  24.531  0.00  0.00    +0.039 C 
ATOM      4  C   UNL     1      -4.730   2.794  25.143  0.00  0.00    +0.003 C 
ATOM      5  C   UNL     1      -5.024   2.064  25.387  0.00  0.00    +0.000 C 
ATOM      6  C   UNL     1      -4.767   1.372  25.021  0.00  0.00    +0.002 C 
ATOM      7  C   UNL     1      -5.319   1.334  25.632  0.00  0.00    +0.000 C 
ATOM      8  C   UNL     1      -5.062   0.641  25.266  0.00  0.00    +0.002 C 
ATOM      9  C   UNL     1      -4.804  -0.051  24.899  0.00  0.00    +0.022 C 
ATOM     10  C   UNL     1      -4.251  -0.013  24.287  0.00  0.00    +0.095 C 
ATOM     19  C   UNL     1      -3.957   0.717  24.043  0.00  0.00    +0.022 C 
ATOM     20  C   UNL     1      -3.404   0.755  23.431  0.00  0.00    +0.002 C 
ATOM     21  C   UNL     1      -4.214   1.410  24.409  0.00  0.00    +0.032 C 
ATOM     22  C   UNL     1      -3.919   2.140  24.165  0.00  0.00    +0.152 C 
ATOM     23  O   UNL     1      -3.367   2.178  23.553  0.00  0.00    -0.223 OA
ENDROOT
BRANCH  10  11
ATOM     11  N   UNL     1      -3.994  -0.707  23.921  0.00  0.00    -0.207 NA
ATOM     12  C   UNL     1      -3.758  -1.352  24.377  0.00  0.00    +0.241 C 
ATOM     13  O   UNL     1      -3.779  -1.304  25.201  0.00  0.00    -0.273 OA
BRANCH  12  14
ATOM     14  C   UNL     1      -3.501  -2.045  24.010  0.00  0.00    +0.087 C 
BRANCH  14  15
ATOM     15  C   UNL     1      -3.336  -2.714  24.462  0.00  0.00    +0.009 C 
ATOM     16  C   UNL     1      -3.171  -3.385  24.915  0.00  0.00    +0.000 C 
ATOM     17  C   UNL     1      -4.094  -3.003  24.311  0.00  0.00    +0.000 C 
ATOM     18  C   UNL     1      -2.578  -2.426  24.614  0.00  0.00    +0.000 C 
ENDBRANCH  14  15
ENDBRANCH  12  14
ENDBRANCH  10  11
BRANCH   3   2
ATOM      1  C   UNL     1      -4.252   3.972  23.673  0.00  0.00    +0.010 C 
ATOM      2  C   UNL     1      -3.882   3.563  24.286  0.00  0.00    +0.081 C 
BRANCH   2  24
ATOM     24  C   UNL     1      -3.218   3.886  24.655  0.00  0.00    +0.241 C 
ATOM     25  O   UNL     1      -3.250   4.094  25.454  0.00  0.00    -0.273 OA
ATOM     26  N   UNL     1      -2.523   4.001  24.227  0.00  0.00    -0.207 NA
BRANCH  26  27
ATOM     27  C   UNL     1      -1.860   4.324  24.596  0.00  0.00    +0.095 C 
ATOM     28  C   UNL     1      -1.801   5.140  24.699  0.00  0.00    +0.022 C 
ATOM     29  C   UNL     1      -1.138   5.463  25.067  0.00  0.00    +0.002 C 
ATOM     30  C   UNL     1      -0.532   4.968  25.334  0.00  0.00    +0.000 C 
ATOM     31  C   UNL     1      -0.591   4.152  25.231  0.00  0.00    +0.002 C 
ATOM     32  C   UNL     1      -1.255   3.829  24.862  0.00  0.00    +0.022 C 
ENDBRANCH  26  27
ENDBRANCH   2  24
ENDBRANCH   3   2
TORSDOF 6
ENDMDL
MODEL 3
REMARK VINA RESULT:     -11.8      0.676      5.288
REMARK  Name = 
REMARK  6 active torsions:
REMARK  status: ('A' for Active; 'I' for Inactive)
REMARK    1  A    between atoms: C_2  and  C_3
REMARK    2  A    between atoms: C_2  and  C_24
REMARK    3  A    between atoms: C_10  and  N_11
REMARK    4  A    between atoms: C_12  and  C_14
REMARK    5  A    between atoms: C_14  and  C_15
REMARK    6  A    between atoms: N_26  and  C_27
REMARK                            x       y       z     vdW  Elec       q    Type
REMARK                         _______ _______ _______ _____ _____    ______ ____
ROOT
ATOM      3  C   UNL     1      -0.135   1.692  25.069  0.00  0.00    +0.039 C 
ATOM      4  C   UNL     1       0.291   1.581  24.370  0.00  0.00    +0.003 C 
ATOM      5  C   UNL     1       0.229   0.870  23.958  0.00  0.00    +0.000 C 
ATOM      6  C   UNL     1      -0.259   0.270  24.243  0.00  0.00    +0.002 C 
ATOM      7  C   UNL     1       0.166   0.159  23.546  0.00  0.00    +0.000 C 
ATOM      8  C   UNL     1      -0.323  -0.442  23.830  0.00  0.00    +0.002 C 
ATOM      9  C   UNL     1      -0.811  -1.042  24.115  0.00  0.00    +0.022 C 
ATOM     10  C   UNL     1      -1.237  -0.931  24.813  0.00  0.00    +0.095 C 
ATOM     19  C   UNL     1      -1.174  -0.220  25.226  0.00  0.00    +0.022 C 
ATOM     20  C   UNL     1      -1.600  -0.109  25.924  0.00  0.00    +0.002 C 
ATOM     21  C   UNL     1      -0.686   0.381  24.941  0.00  0.00    +0.032 C 
ATOM     22  C   UNL     1      -0.623   1.092  25.354  0.00  0.00    +0.152 C 
ATOM     23  O   UNL     1      -1.049   1.203  26.051  0.00  0.00    -0.223 OA
ENDROOT
BRANCH  10  11
ATOM     11  N   UNL     1      -1.725  -1.532  25.098  0.00  0.00    -0.207 NA
ATOM     12  C   UNL     1      -2.366  -1.791  24.649  0.00  0.00    +0.241 C 
ATOM     13  O   UNL     1      -2.520  -1.448  23.913  0.00  0.00    -0.273 OA
BRANCH  12  14
ATOM     14  C   UNL     1      -2.855  -2.392  24.933  0.00  0.00    +0.087 C 
BRANCH  14  15
ATOM     15  C   UNL     1      -3.502  -2.644  24.488  0.00  0.00    +0.009 C 
ATOM     16  C   UNL     1      -4.150  -2.896  24.043  0.00  0.00    +0.000 C 
ATOM     17  C   UNL     1      -3.053  -3.268  24.188  0.00  0.00    +0.000 C 
ATOM     18  C   UNL     1      -3.951  -2.020  24.788  0.00  0.00    +0.000 C 
ENDBRANCH  14  15
ENDBRANCH  12  14
ENDBRANCH  10  11
BRANCH   3   2
ATOM      1  C   UNL     1       0.387   2.444  26.166  0.00  0.00    +0.010 C 
ATOM      2  C   UNL     1      -0.072   2.404  25.482  0.00  0.00    +0.081 C 
BRANCH   2  24
ATOM     24  C   UNL     1      -0.467   3.076  25.210  0.00  0.00    +0.241 C 
ATOM     25  O   UNL     1      -0.384   3.314  24.424  0.00  0.00    -0.273 OA
ATOM     26  N   UNL     1      -0.945   3.510  25.724  0.00  0.00    -0.207 NA
BRANCH  26  27
ATOM     27  C   UNL     1      -1.339   4.181  25.453  0.00  0.00    +0.095 C 
ATOM     28  C   UNL     1      -0.910   4.834  25.189  0.00  0.00    +0.022 C 
ATOM     29  C   UNL     1      -1.305   5.505  24.918  0.00  0.00    +0.002 C 
ATOM     30  C   UNL     1      -2.130   5.523  24.910  0.00  0.00    +0.000 C 
ATOM     31  C   UNL     1      -2.560   4.871  25.173  0.00  0.00    +0.002 C 
ATOM     32  C   UNL     1      -2.165   4.199  25.445  0.00  0.00    +0.022 C 
ENDBRANCH  26  27
ENDBRANCH   2  24
ENDBRANCH   3   2
TORSDOF 6
ENDMDL
MODEL 4
REMARK VINA RESULT:     -10.7      2.110      3.248
REMARK  Name = 
REMARK  6 active torsions:
REMARK  status: ('A' for Active; 'I' for Inactive)
REMARK    1  A    between atoms: C_2  and  C_3
REMARK    2  A    between atoms: C_2  and  C_24
REMARK    3  A    between atoms: C_10  and  N_11
REMARK    4  A    between atoms: C_12  and  C_14
REMARK    5  A    between atoms: C_14  and  C_15
REMARK    6  A    between atoms: N_26  and  C_27
REMARK                            x       y       z     vdW  Elec       q    Type
REMARK                         _______ _______ _______ _____ _____    ______ ____
ROOT
ATOM      3  C   UNL     1      -4.143   0.220  24.476  0.00  0.00    +0.039 C 
ATOM      4  C   UNL     1      -4.745   0.334  25.029  0.00  0.00    +0.003 C 
ATOM      5  C   UNL     1      -4.912   1.093  25.306  0.00  0.00    +0.000 C 
ATOM      6  C   UNL     1      -4.478   1.737  25.030  0.00  0.00    +0.002 C 
ATOM      7  C   UNL     1      -5.079   1.851  25.582  0.00  0.00    +0.000 C 
ATOM      8  C   UNL     1      -4.645   2.497  25.307  0.00  0.00    +0.002 C 
ATOM      9  C   UNL     1      -4.211   3.141  25.031  0.00  0.00    +0.022 C 
ATOM     10  C   UNL     1      -3.609   3.027  24.478  0.00  0.00    +0.095 C 
ATOM     19  C   UNL     1      -3.442   2.269  24.201  0.00  0.00    +0.022 C 
ATOM     20  C   UNL     1      -2.840   2.155  23.649  0.00  0.00    +0.002 C 
ATOM     21  C   UNL     1      -3.876   1.623  24.477  0.00  0.00    +0.032 C 
ATOM     22  C   UNL     1      -3.709   0.865  24.200  0.00  0.00    +0.152 C 
ATOM     23  O   UNL     1      -3.107   0.751  23.647  0.00  0.00    -0.223 OA
ENDROOT
BRANCH  10  11
ATOM     11  N   UNL     1      -3.175   3.673  24.203  0.00  0.00    -0.207 NA
ATOM     12  C   UNL     1      -2.666   4.076  24.711  0.00  0.00    +0.241 C 
ATOM     13  O   UNL     1      -2.592   3.834  25.497  0.00  0.00    -0.273 OA
BRANCH  12  14
ATOM     14  C   UNL     1      -2.232   4.721  24.436  0.00  0.00    +0.087 C 
BRANCH  14  15
ATOM     15  C   UNL     1      -1.564   4.975  24.846  0.00  0.00    +0.009 C 
ATOM     16  C   UNL     1      -0.894   5.228  25.257  0.00  0.00    +0.000 C 
ATOM     17  C   UNL     1      -1.095   4.465  24.398  0.00  0.00    +0.000 C 
ATOM     18  C   UNL     1      -2.032   5.484  25.295  0.00  0.00    +0.000 C 
ENDBRANCH  14  15
ENDBRANCH  12  14
ENDBRANCH  10  11
BRANCH   3   2
ATOM      1  C   UNL     1      -4.391  -0.843  23.554  0.00  0.00    +0.010 C 
ATOM      2  C   UNL     1      -3.976  -0.539  24.199  0.00  0.00    +0.081 C 
BRANCH   2  24
ATOM     24  C   UNL     1      -3.394  -0.995  24.566  0.00  0.00    +0.241 C 
ATOM     25  O   UNL     1      -3.501  -1.252  25.344  0.00  0.00    -0.273 OA
ATOM     26  N   UNL     1      -2.706  -1.194  24.158  0.00  0.00    -0.207 NA
BRANCH  26  27
ATOM     27  C   UNL     1      -2.125  -1.649  24.525  0.00  0.00    +0.095 C 
ATOM     28  C   UNL     1      -1.478  -1.283  24.883  0.00  0.00    +0.022 C 
ATOM     29  C   UNL     1      -0.897  -1.738  25.251  0.00  0.00    +0.002 C 
ATOM     30  C   UNL     1      -0.963  -2.561  25.261  0.00  0.00    +0.000 C 
ATOM     31  C   UNL     1      -1.609  -2.928  24.903  0.00  0.00    +0.002 C 
ATOM     32  C   UNL     1      -2.191  -2.472  24.535  0.00  0.00    +0.022 C 
ENDBRANCH  26  27
ENDBRANCH   2  24
ENDBRANCH   3   2
TORSDOF 6
ENDMDL
MODEL 5
REMARK VINA RESULT:     -10.4      2.470      4.224
REMARK  Name = 
REMARK  6 active torsions:
REMARK  status: ('A' for Active; 'I' for Inactive)
REMARK    1  A    between atoms: C_2  and  C_3
REMARK    2  A    between atoms: C_2  and  C_24
REMARK    3  A    between atoms: C_10  and  N_11
REMARK    4  A    between atoms: C_12  and  C_14
REMARK    5  A    between atoms: C_14  and  C_15
REMARK    6  A    between atoms: N_26  and  C_27
REMARK                            x       y       z     vdW  Elec       q    Type
REMARK                         _______ _______ _______ _____ _____    ______ ____
ROOT
ATOM      3  C   UNL     1      -3.213  -0.144  24.740  0.00  0.00    +0.039 C 
ATOM      4  C   UNL     1      -2.987  -0.608  25.385  0.00  0.00    +0.003 C 
ATOM      5  C   UNL     1      -2.187  -0.724  25.548  0.00  0.00    +0.000 C 
ATOM      6  C   UNL     1      -1.613  -0.378  25.068  0.00  0.00    +0.002 C 
ATOM      7  C   UNL     1      -1.388  -0.841  25.712  0.00  0.00    +0.000 C 
ATOM      8  C   UNL     1      -0.813  -0.494  25.232  0.00  0.00    +0.002 C 
ATOM      9  C   UNL     1      -0.239  -0.148  24.752  0.00  0.00    +0.022 C 
ATOM     10  C   UNL     1      -0.466   0.316  24.107  0.00  0.00    +0.095 C 
ATOM     19  C   UNL     1      -1.265   0.432  23.943  0.00  0.00    +0.022 C 
ATOM     20  C   UNL     1      -1.491   0.895  23.299  0.00  0.00    +0.002 C 
ATOM     21  C   UNL     1      -1.840   0.086  24.423  0.00  0.00    +0.032 C 
ATOM     22  C   UNL     1      -2.639   0.202  24.260  0.00  0.00    +0.152 C 
ATOM     23  O   UNL     1      -2.866   0.665  23.616  0.00  0.00    -0.223 OA
ENDROOT
BRANCH  10  11
ATOM     11  N   UNL     1       0.109   0.663  23.626  0.00  0.00    -0.207 NA
ATOM     12  C   UNL     1       0.724   0.205  23.323  0.00  0.00    +0.241 C 
ATOM     13  O   UNL     1       0.765  -0.601  23.499  0.00  0.00    -0.273 OA
BRANCH  12  14
ATOM     14  C   UNL     1       1.299   0.552  22.843  0.00  0.00    +0.087 C 
BRANCH  14  15
ATOM     15  C   UNL     1       2.000   0.149  22.681  0.00  0.00    +0.009 C 
ATOM     16  C   UNL     1       2.702  -0.255  22.519  0.00  0.00    +0.000 C 
ATOM     17  C   UNL     1       1.613  -0.292  22.100  0.00  0.00    +0.000 C 
ATOM     18  C   UNL     1       2.387   0.589  23.261  0.00  0.00    +0.000 C 
ENDBRANCH  14  15
ENDBRANCH  12  14
ENDBRANCH  10  11
BRANCH   3   2
ATOM      1  C   UNL     1      -4.389  -0.490  24.005  0.00  0.00    +0.010 C 
ATOM      2  C   UNL     1      -4.014  -0.028  24.577  0.00  0.00    +0.081 C 
BRANCH   2  24
ATOM     24  C   UNL     1      -4.440   0.549  24.985  0.00  0.00    +0.241 C 
ATOM     25  O   UNL     1      -4.613   0.444  25.786  0.00  0.00    -0.273 OA
ATOM     26  N   UNL     1      -4.693   1.229  24.594  0.00  0.00    -0.207 NA
BRANCH  26  27
ATOM     27  C   UNL     1      -5.118   1.805  25.002  0.00  0.00    +0.095 C 
ATOM     28  C   UNL     1      -5.920   1.691  25.162  0.00  0.00    +0.022 C 
ATOM     29  C   UNL     1      -6.346   2.267  25.570  0.00  0.00    +0.002 C 
ATOM     30  C   UNL     1      -5.970   2.959  25.820  0.00  0.00    +0.000 C 
ATOM     31  C   UNL     1      -5.169   3.073  25.660  0.00  0.00    +0.002 C 
ATOM     32  C   UNL     1      -4.742   2.497  25.252  0.00  0.00    +0.022 C 
ENDBRANCH  26  27
ENDBRANCH   2  24
ENDBRANCH   3   2
TORSDOF 6
ENDMDL
MODEL 6
REMARK VINA RESULT:      -9.7      2.590      4.511
REMARK  Name = 
REMARK  6 active torsions:
REMARK  status: ('A' for Active; 'I' for Inactive)
REMARK    1  A    between atoms: C_2  and  C_3
REMARK    2  A    between atoms: C_2  and  C_24
REMARK    3  A    between atoms: C_10  and  N_11
REMARK    4  A    between atoms: C_12  and  C_14
REMARK    5  A    between atoms: C_14  and  C_15
REMARK    6  A    between atoms: N_26  and  C_27
REMARK                            x       y       z     vdW  Elec       q    Type
REMARK                         _______ _______ _______ _____ _____    ______ ____
ROOT
ATOM      3  C   UNL     1      -2.363   2.981  24.542  0.00  0.00    +0.039 C 
ATOM      4  C   UNL     1      -1.920   3.377  25.116  0.00  0.00    +0.003 C 
ATOM      5  C   UNL     1      -1.160   3.118  25.301  0.00  0.00    +0.000 C 
ATOM      6  C   UNL     1      -0.842   2.464  24.913  0.00  0.00    +0.002 C 
ATOM      7  C   UNL     1      -0.399   2.858  25.485  0.00  0.00    +0.000 C 
ATOM      8  C   UNL     1      -0.080   2.203  25.097  0.00  0.00    +0.002 C 
ATOM      9  C   UNL     1       0.238   1.549  24.709  0.00  0.00    +0.022 C 
ATOM     10  C   UNL     1      -0.205   1.154  24.135  0.00  0.00    +0.095 C 
ATOM     19  C   UNL     1      -0.966   1.413  23.951  0.00  0.00    +0.022 C 
ATOM     20  C   UNL     1      -1.408   1.018  23.377  0.00  0.00    +0.002 C 
ATOM     21  C   UNL     1      -1.285   2.068  24.339  0.00  0.00    +0.032 C 
ATOM     22  C   UNL     1      -2.045   2.327  24.154  0.00  0.00    +0.152 C 
ATOM     23  O   UNL     1      -2.488   1.932  23.581  0.00  0.00    -0.223 OA
ENDROOT
BRANCH  10  11
ATOM     11  N   UNL     1       0.114   0.499  23.747  0.00  0.00    -0.207 NA
ATOM     12  C   UNL     1       0.878   0.533  23.441  0.00  0.00    +0.241 C 
ATOM     13  O   UNL     1       1.326   1.222  23.523  0.00  0.00    -0.273 OA
BRANCH  12  14
ATOM     14  C   UNL     1       1.197  -0.122  23.053  0.00  0.00    +0.087 C 
BRANCH  14  15
ATOM     15  C   UNL     1       1.865  -0.035  22.578  0.00  0.00    +0.009 C 
ATOM     16  C   UNL     1       2.534   0.052  22.102  0.00  0.00    +0.000 C 
ATOM     17  C   UNL     1       1.400  -0.138  21.904  0.00  0.00    +0.000 C 
ATOM     18  C   UNL     1       2.332   0.068  23.250  0.00  0.00    +0.000 C 
ENDBRANCH  14  15
ENDBRANCH  12  14
ENDBRANCH  10  11
BRANCH   3   2
ATOM      1  C   UNL     1      -3.254   3.684  23.674  0.00  0.00    +0.010 C 
ATOM      2  C   UNL     1      -3.125   3.241  24.358  0.00  0.00    +0.081 C 
BRANCH   2  24
ATOM     24  C   UNL     1      -3.756   3.059  24.856  0.00  0.00    +0.241 C 
ATOM     25  O   UNL     1      -3.725   3.267  25.655  0.00  0.00    -0.273 OA
ATOM     26  N   UNL     1      -4.419   2.670  24.558  0.00  0.00    -0.207 NA
BRANCH  26  27
ATOM     27  C   UNL     1      -5.050   2.488  25.057  0.00  0.00    +0.095 C 
ATOM     28  C   UNL     1      -5.228   1.700  25.228  0.00  0.00    +0.022 C 
ATOM     29  C   UNL     1      -5.858   1.519  25.726  0.00  0.00    +0.002 C 
ATOM     30  C   UNL     1      -6.313   2.125  26.055  0.00  0.00    +0.000 C 
ATOM     31  C   UNL     1      -6.136   2.912  25.884  0.00  0.00    +0.002 C 
ATOM     32  C   UNL     1      -5.504   3.094  25.385  0.00  0.00    +0.022 C 
ENDBRANCH  26  27
ENDBRANCH   2  24
ENDBRANCH   3   2
TORSDOF 6
ENDMDL
MODEL 7
REMARK VINA RESULT:      -9.6      2.620      4.248
REMARK  Name = 
REMARK  6 active torsions:
REMARK  status: ('A' for Active; 'I' for Inactive)
REMARK    1  A    between atoms: C_2  and  C_3
REMARK    2  A    between atoms: C_2  and  C_24
REMARK    3  A    between atoms: C_10  and  N_11
REMARK    4  A    between atoms: C_12  and  C_14
REMARK    5  A    between atoms: C_14  and  C_15
REMARK    6  A    between atoms: N_26  and  C_27
REMARK                            x       y       z     vdW  Elec       q    Type
REMARK                         _______ _______ _______ _____ _____    ______ ____
ROOT
ATOM      3  C   UNL     1      -0.548   0.803  24.329  0.00  0.00    +0.039 C 
ATOM      4  C   UNL     1      -0.167   1.333  24.834  0.00  0.00    +0.003 C 
ATOM      5  C   UNL     1      -0.580   1.974  25.148  0.00  0.00    +0.000 C 
ATOM      6  C   UNL     1      -1.374   2.086  24.957  0.00  0.00    +0.002 C 
ATOM      7  C   UNL     1      -0.993   2.614  25.461  0.00  0.00    +0.000 C 
ATOM      8  C   UNL     1      -1.788   2.727  25.271  0.00  0.00    +0.002 C 
ATOM      9  C   UNL     1      -2.582   2.839  25.080  0.00  0.00    +0.022 C 
ATOM     10  C   UNL     1      -2.964   2.309  24.574  0.00  0.00    +0.095 C 
ATOM     19  C   UNL     1      -2.551   1.668  24.261  0.00  0.00    +0.022 C 
ATOM     20  C   UNL     1      -2.932   1.139  23.756  0.00  0.00    +0.002 C 
ATOM     21  C   UNL     1      -1.756   1.556  24.451  0.00  0.00    +0.032 C 
ATOM     22  C   UNL     1      -1.343   0.915  24.138  0.00  0.00    +0.152 C 
ATOM     23  O   UNL     1      -1.724   0.386  23.633  0.00  0.00    -0.223 OA
ENDROOT
BRANCH  10  11
ATOM     11  N   UNL     1      -3.759   2.421  24.384  0.00  0.00    -0.207 NA
ATOM     12  C   UNL     1      -4.313   2.548  24.981  0.00  0.00    +0.241 C 
ATOM     13  O   UNL     1      -4.072   2.564  25.771  0.00  0.00    -0.273 OA
BRANCH  12  14
ATOM     14  C   UNL     1      -5.108   2.661  24.790  0.00  0.00    +0.087 C 
BRANCH  14  15
ATOM     15  C   UNL     1      -5.689   2.558  25.365  0.00  0.00    +0.009 C 
ATOM     16  C   UNL     1      -6.271   2.455  25.942  0.00  0.00    +0.000 C 
ATOM     17  C   UNL     1      -5.818   1.788  25.098  0.00  0.00    +0.000 C 
ATOM     18  C   UNL     1      -5.561   3.328  25.633  0.00  0.00    +0.000 C 
ENDBRANCH  14  15
ENDBRANCH  12  14
ENDBRANCH  10  11
BRANCH   3   2
ATOM      1  C   UNL     1      -0.329  -0.606  24.245  0.00  0.00    +0.010 C 
ATOM      2  C   UNL     1      -0.134   0.162  24.015  0.00  0.00    +0.081 C 
BRANCH   2  24
ATOM     24  C   UNL     1       0.474   0.288  23.472  0.00  0.00    +0.241 C 
ATOM     25  O   UNL     1       0.371   0.828  22.855  0.00  0.00    -0.273 OA
ATOM     26  N   UNL     1       1.184  -0.124  23.545  0.00  0.00    -0.207 NA
BRANCH  26  27
ATOM     27  C   UNL     1       1.792   0.002  23.002  0.00  0.00    +0.095 C 
ATOM     28  C   UNL     1       2.446   0.458  23.213  0.00  0.00    +0.022 C 
ATOM     29  C   UNL     1       3.054   0.584  22.671  0.00  0.00    +0.002 C 
ATOM     30  C   UNL     1       3.008   0.254  21.915  0.00  0.00    +0.000 C 
ATOM     31  C   UNL     1       2.354  -0.202  21.704  0.00  0.00    +0.002 C 
ATOM     32  C   UNL     1       1.746  -0.328  22.246  0.00  0.00    +0.022 C 
ENDBRANCH  26  27
ENDBRANCH   2  24
ENDBRANCH   3   2
TORSDOF 6
ENDMDL
MODEL 8
REMARK VINA RESULT:      -9.4      2.107      5.025
REMARK  Name = 
REMARK  6 active torsions:
REMARK  status: ('A' for Active; 'I' for Inactive)
REMARK    1  A    between atoms: C_2  and  C_3
REMARK    2  A    between atoms: C_2  and  C_24
REMARK    3  A    between atoms: C_10  and  N_11
REMARK    4  A    between atoms: C_12  and  C_14
REMARK    5  A    between atoms: C_14  and  C_15
REMARK    6  A    between atoms: N_26  and  C_27
REMARK                            x       y       z     vdW  Elec       q    Type
REMARK                         _______ _______ _______ _____ _____    ______ ____
ROOT
ATOM      3  C   UNL     1      -2.028   3.377  25.193  0.00  0.00    +0.039 C 
ATOM      4  C   UNL     1      -1.529   3.561  25.824  0.00  0.00    +0.003 C 
ATOM      5  C   UNL     1      -0.934   3.036  26.046  0.00  0.00    +0.000 C 
ATOM      6  C   UNL     1      -0.837   2.326  25.637  0.00  0.00    +0.002 C 
ATOM      7  C   UNL     1      -0.338   2.510  26.267  0.00  0.00    +0.000 C 
ATOM      8  C   UNL     1      -0.241   1.800  25.859  0.00  0.00    +0.002 C 
ATOM      9  C   UNL     1      -0.144   1.090  25.450  0.00  0.00    +0.022 C 
ATOM     10  C   UNL     1      -0.643   0.906  24.819  0.00  0.00    +0.095 C 
ATOM     19  C   UNL     1      -1.239   1.431  24.597  0.00  0.00    +0.022 C 
ATOM     20  C   UNL     1      -1.737   1.247  23.967  0.00  0.00    +0.002 C 
ATOM     21  C   UNL     1      -1.336   2.142  25.006  0.00  0.00    +0.032 C 
ATOM     22  C   UNL     1      -1.931   2.667  24.784  0.00  0.00    +0.152 C 
ATOM     23  O   UNL     1      -2.430   2.483  24.154  0.00  0.00    -0.223 OA
ENDROOT
BRANCH  10  11
ATOM     11  N   UNL     1      -0.546   0.196  24.410  0.00  0.00    -0.207 NA
ATOM     12  C   UNL     1      -0.671  -0.523  24.795  0.00  0.00    +0.241 C 
ATOM     13  O   UNL     1      -0.894  -0.532  25.590  0.00  0.00    -0.273 OA
BRANCH  12  14
ATOM     14  C   UNL     1      -0.573  -1.233  24.386  0.00  0.00    +0.087 C 
BRANCH  14  15
ATOM     15  C   UNL     1      -0.896  -1.930  24.687  0.00  0.00    +0.009 C 
ATOM     16  C   UNL     1      -1.219  -2.628  24.988  0.00  0.00    +0.000 C 
ATOM     17  C   UNL     1      -1.544  -1.848  24.183  0.00  0.00    +0.000 C 
ATOM     18  C   UNL     1      -0.248  -2.013  25.191  0.00  0.00    +0.000 C 
ENDBRANCH  14  15
ENDBRANCH  12  14
ENDBRANCH  10  11
BRANCH   3   2
ATOM      1  C   UNL     1      -2.472   4.483  24.405  0.00  0.00    +0.010 C 
ATOM      2  C   UNL     1      -2.624   3.903  24.971  0.00  0.00    +0.081 C 
BRANCH   2  24
ATOM     24  C   UNL     1      -3.372   3.850  25.316  0.00  0.00    +0.241 C 
ATOM     25  O   UNL     1      -3.480   4.072  26.104  0.00  0.00    -0.273 OA
ATOM     26  N   UNL     1      -4.012   3.576  24.874  0.00  0.00    -0.207 NA
BRANCH  26  27
ATOM     27  C   UNL     1      -4.759   3.523  25.218  0.00  0.00    +0.095 C 
ATOM     28  C   UNL     1      -5.229   4.197  25.292  0.00  0.00    +0.022 C 
ATOM     29  C   UNL     1      -5.976   4.144  25.636  0.00  0.00    +0.002 C 
ATOM     30  C   UNL     1      -6.255   3.415  25.907  0.00  0.00    +0.000 C 
ATOM     31  C   UNL     1      -5.786   2.742  25.834  0.00  0.00    +0.002 C 
ATOM     32  C   UNL     1      -5.038   2.794  25.489  0.00  0.00    +0.022 C 
ENDBRANCH  26  27
ENDBRANCH   2  24
ENDBRANCH   3   2
TORSDOF 6
ENDMDL
