REMARK  Name = 
REMARK  7 active torsions:
REMARK  status: ('A' for Active; 'I' for Inactive)
REMARK    1  A    between atoms: C_6  and  C_7
REMARK    2  A    between atoms: C_7  and  N_8
REMARK    3  A    between atoms: N_8  and  C_9
REMARK    4  A    between atoms: N_8  and  C_16
REMARK    5  A    between atoms: C_9  and  C_10
REMARK    6  A    between atoms: C_19  and  C_20
REMARK    7  A    between atoms: C_20  and  N_21
REMARK                            x       y       z     vdW  Elec       q    Type
REMARK                         _______ _______ _______ _____ _____    ______ ____
ROOT
ATOM     16  C   UNL     1      -6.269  -3.134   0.000  0.00  0.00    +0.121 C 
ATOM     17  C   UNL     1      -5.516  -3.470   0.000  0.00  0.00    +0.161 C 
ATOM     18  O   UNL     1      -5.602  -4.290   0.000  0.00  0.00    -0.350 OA
ATOM     19  C   UNL     1      -6.409  -4.462   0.000  0.00  0.00    +0.169 C 
ATOM     30  C   UNL     1      -6.821  -3.747   0.000  0.00  0.00    +0.198 C 
ATOM     31  O   UNL     1      -7.642  -3.661   0.000  0.00  0.00    -0.219 OA
ENDROOT
BRANCH  16   8
ATOM      8  N   UNL     1      -6.441  -2.327   0.000  0.00  0.00    -0.257 NA
BRANCH   8   7
ATOM      7  C   UNL     1      -5.828  -1.775   0.000  0.00  0.00    +0.137 C 
BRANCH   7   6
ATOM      1  C   UNL     1      -4.376  -0.720   0.000  0.00  0.00    +0.132 C 
ATOM      2  N   UNL     1      -4.376  -1.545   0.000  0.00  0.00    -0.311 N 
ATOM      3  C   UNL     1      -3.708  -2.030   0.000  0.00  0.00    +0.098 A 
ATOM      4  C   UNL     1      -3.963  -2.814   0.000  0.00  0.00    +0.119 A 
ATOM      5  N   UNL     1      -4.788  -2.814   0.000  0.00  0.00    -0.228 NA
ATOM      6  C   UNL     1      -5.043  -2.030   0.000  0.00  0.00    +0.137 A 
ENDBRANCH   7   6
ENDBRANCH   8   7
BRANCH   8   9
ATOM      9  C   UNL     1      -7.225  -2.072   0.000  0.00  0.00    +0.137 C 
BRANCH   9  10
ATOM     10  C   UNL     1      -7.397  -1.265   0.000  0.00  0.00    +0.137 A 
ATOM     11  N   UNL     1      -6.845  -0.652   0.000  0.00  0.00    -0.228 NA
ATOM     12  C   UNL     1      -7.257   0.062   0.000  0.00  0.00    +0.119 A 
ATOM     13  C   UNL     1      -8.064  -0.109   0.000  0.00  0.00    +0.098 A 
ATOM     14  N   UNL     1      -8.151  -0.929   0.000  0.00  0.00    -0.311 N 
ATOM     15  C   UNL     1      -8.865  -1.342   0.000  0.00  0.00    +0.132 C 
ENDBRANCH   9  10
ENDBRANCH   8   9
ENDBRANCH  16   8
BRANCH  19  20
ATOM     20  C   UNL     1      -6.744  -5.215   0.000  0.00  0.00    +0.149 C 
BRANCH  20  21
ATOM     21  N   UNL     1      -7.565  -5.301   0.000  0.00  0.00    -0.186 NA
ATOM     22  C   UNL     1      -7.900  -6.055   0.000  0.00  0.00    +0.323 C 
ATOM     23  O   UNL     1      -8.721  -6.141   0.000  0.00  0.00    -0.251 OA
ATOM     24  N   UNL     1      -7.415  -6.723   0.000  0.00  0.00    -0.258 N 
ATOM     25  C   UNL     1      -6.595  -6.636   0.000  0.00  0.00    +0.127 C 
ATOM     26  C   UNL     1      -6.110  -7.304   0.000  0.00  0.00    +0.164 C 
ATOM     27  O   UNL     1      -6.446  -8.057   0.000  0.00  0.00    -0.350 OA
ATOM     28  C   UNL     1      -7.266  -8.144   0.000  0.00  0.00    +0.164 C 
ATOM     29  C   UNL     1      -7.751  -7.476   0.000  0.00  0.00    +0.127 C 
ENDBRANCH  20  21
ENDBRANCH  19  20
TORSDOF 7
