MODEL 1
REMARK VINA RESULT:     -12.1      0.000      0.000
REMARK  Name = 
REMARK  6 active torsions:
REMARK  status: ('A' for Active; 'I' for Inactive)
REMARK    1  A    between atoms: O_2  and  C_3
REMARK    2  A    between atoms: C_8  and  N_9
REMARK    3  A    between atoms: C_15  and  C_17
REMARK    4  A    between atoms: C_17  and  C_18
REMARK    5  A    between atoms: C_20  and  C_21
REMARK    6  A    between atoms: C_24  and  C_25
REMARK                            x       y       z     vdW  Elec       q    Type
REMARK                         _______ _______ _______ _____ _____    ______ ____
ROOT
ATOM      9  N   UNL     1      -3.515  -0.518  24.233  0.00  0.00    -0.302 N 
ATOM     10  C   UNL     1      -3.549  -0.081  24.933  0.00  0.00    +0.112 C 
ATOM     11  C   UNL     1      -3.496   0.741  24.909  0.00  0.00    +0.115 C 
ATOM     12  N   UNL     1      -3.408   1.128  24.185  0.00  0.00    -0.276 N 
ATOM     13  C   UNL     1      -3.373   0.692  23.486  0.00  0.00    +0.115 C 
ATOM     14  C   UNL     1      -3.427  -0.132  23.510  0.00  0.00    +0.112 C 
ATOM     15  C   UNL     1      -3.354   1.950  24.161  0.00  0.00    +0.226 C 
ATOM     16  O   UNL     1      -3.266   2.337  23.438  0.00  0.00    -0.275 OA
ENDROOT
BRANCH   9   8
ATOM      3  C   UNL     1      -2.916  -1.791  24.485  0.00  0.00    +0.152 A 
ATOM      4  C   UNL     1      -2.970  -2.613  24.508  0.00  0.00    +0.038 A 
ATOM      5  C   UNL     1      -3.678  -2.987  24.303  0.00  0.00    +0.003 A 
ATOM      6  C   UNL     1      -4.330  -2.537  24.074  0.00  0.00    +0.001 A 
ATOM      7  C   UNL     1      -4.276  -1.715  24.051  0.00  0.00    +0.018 A 
ATOM      8  C   UNL     1      -3.568  -1.341  24.257  0.00  0.00    +0.082 A 
BRANCH   3   2
ATOM      1  C   UNL     1      -1.536  -1.868  24.848  0.00  0.00    +0.253 C 
ATOM      2  O   UNL     1      -2.210  -1.418  24.690  0.00  0.00    -0.470 OA
ENDBRANCH   3   2
ENDBRANCH   9   8
BRANCH  15  17
ATOM     17  C   UNL     1      -3.389   2.387  24.861  0.00  0.00    +0.089 C 
BRANCH  17  18
ATOM     18  C   UNL     1      -2.881   3.027  24.972  0.00  0.00    +0.027 C 
ATOM     19  C   UNL     1      -2.064   2.914  24.945  0.00  0.00    +0.005 C 
ATOM     20  C   UNL     1      -1.556   3.555  25.056  0.00  0.00    +0.007 C 
ATOM     24  C   UNL     1      -1.864   4.306  25.195  0.00  0.00    +0.054 C 
ATOM     27  C   UNL     1      -2.681   4.419  25.223  0.00  0.00    -0.032 C 
ATOM     28  C   UNL     1      -3.189   3.779  25.111  0.00  0.00    -0.048 C 
ATOM     29  C   UNL     1      -4.006   3.892  25.138  0.00  0.00    +0.026 C 
BRANCH  20  21
ATOM     21  C   UNL     1      -0.738   3.442  25.029  0.00  0.00    +0.000 C 
ATOM     22  C   UNL     1      -0.340   3.156  25.692  0.00  0.00    +0.000 C 
ATOM     23  C   UNL     1      -0.321   3.616  24.339  0.00  0.00    +0.000 C 
ENDBRANCH  20  21
BRANCH  24  25
ATOM     25  C   UNL     1      -1.355   4.947  25.307  0.00  0.00    +0.186 C 
ATOM     26  O   UNL     1      -1.651   5.717  25.281  0.00  0.00    -0.220 OA
ENDBRANCH  24  25
ENDBRANCH  17  18
ENDBRANCH  15  17
TORSDOF 6
ENDMDL
MODEL 2
REMARK VINA RESULT:     -11.6      1.355      5.639
REMARK  Name = 
REMARK  6 active torsions:
REMARK  status: ('A' for Active; 'I' for Inactive)
REMARK    1  A    between atoms: O_2  and  C_3
REMARK    2  A    between atoms: C_8  and  N_9
REMARK    3  A    between atoms: C_15  and  C_17
REMARK    4  A    between atoms: C_17  and  C_18
REMARK    5  A    between atoms: C_20  and  C_21
REMARK    6  A    between atoms: C_24  and  C_25
REMARK                            x       y       z     vdW  Elec       q    Type
REMARK                         _______ _______ _______ _____ _____    ______ ____
ROOT
ATOM      9  N   UNL     1      -1.370   2.861  24.742  0.00  0.00    -0.302 N 
ATOM     10  C   UNL     1      -1.427   2.326  25.368  0.00  0.00    +0.112 C 
ATOM     11  C   UNL     1      -1.406   1.515  25.221  0.00  0.00    +0.115 C 
ATOM     12  N   UNL     1      -1.328   1.237  24.448  0.00  0.00    -0.276 N 
ATOM     13  C   UNL     1      -1.271   1.771  23.822  0.00  0.00    +0.115 C 
ATOM     14  C   UNL     1      -1.292   2.583  23.969  0.00  0.00    +0.112 C 
ATOM     15  C   UNL     1      -1.307   0.426  24.301  0.00  0.00    +0.226 C 
ATOM     16  O   UNL     1      -1.229   0.149  23.528  0.00  0.00    -0.275 OA
ENDROOT
BRANCH   9   8
ATOM      3  C   UNL     1      -2.106   4.041  25.070  0.00  0.00    +0.152 A 
ATOM      4  C   UNL     1      -2.126   4.852  25.216  0.00  0.00    +0.038 A 
ATOM      5  C   UNL     1      -1.430   5.296  25.181  0.00  0.00    +0.003 A 
ATOM      6  C   UNL     1      -0.716   4.927  24.999  0.00  0.00    +0.001 A 
ATOM      7  C   UNL     1      -0.695   4.116  24.853  0.00  0.00    +0.018 A 
ATOM      8  C   UNL     1      -1.391   3.672  24.889  0.00  0.00    +0.082 A 
BRANCH   3   2
ATOM      1  C   UNL     1      -3.520   3.970  25.264  0.00  0.00    +0.253 C 
ATOM      2  O   UNL     1      -2.801   3.598  25.106  0.00  0.00    -0.470 OA
ENDBRANCH   3   2
ENDBRANCH   9   8
BRANCH  15  17
ATOM     17  C   UNL     1      -1.364  -0.108  24.927  0.00  0.00    +0.089 C 
BRANCH  17  18
ATOM     18  C   UNL     1      -1.883  -0.747  24.878  0.00  0.00    +0.027 C 
ATOM     19  C   UNL     1      -2.671  -0.622  24.663  0.00  0.00    +0.005 C 
ATOM     20  C   UNL     1      -3.191  -1.260  24.614  0.00  0.00    +0.007 C 
ATOM     24  C   UNL     1      -2.925  -2.022  24.779  0.00  0.00    +0.054 C 
ATOM     27  C   UNL     1      -2.138  -2.148  24.994  0.00  0.00    -0.032 C 
ATOM     28  C   UNL     1      -1.618  -1.509  25.043  0.00  0.00    -0.048 C 
ATOM     29  C   UNL     1      -0.831  -1.635  25.258  0.00  0.00    +0.026 C 
BRANCH  20  21
ATOM     21  C   UNL     1      -3.978  -1.135  24.399  0.00  0.00    +0.000 C 
ATOM     22  C   UNL     1      -4.478  -0.709  24.898  0.00  0.00    +0.000 C 
ATOM     23  C   UNL     1      -4.264  -1.435  23.686  0.00  0.00    +0.000 C 
ENDBRANCH  20  21
BRANCH  24  25
ATOM     25  C   UNL     1      -3.446  -2.661  24.730  0.00  0.00    +0.186 C 
ATOM     26  O   UNL     1      -3.202  -3.411  24.973  0.00  0.00    -0.220 OA
ENDBRANCH  24  25
ENDBRANCH  17  18
ENDBRANCH  15  17
TORSDOF 6
ENDMDL
MODEL 3
REMARK VINA RESULT:     -11.3      1.304      2.221
REMARK  Name = 
REMARK  6 active torsions:
REMARK  status: ('A' for Active; 'I' for Inactive)
REMARK    1  A    between atoms: O_2  and  C_3
REMARK    2  A    between atoms: C_8  and  N_9
REMARK    3  A    between atoms: C_15  and  C_17
REMARK    4  A    between atoms: C_17  and  C_18
REMARK    5  A    between atoms: C_20  and  C_21
REMARK    6  A    between atoms: C_24  and  C_25
REMARK                            x       y       z     vdW  Elec       q    Type
REMARK                         _______ _______ _______ _____ _____    ______ ____
ROOT
ATOM      9  N   UNL     1      -2.113  -0.830  24.826  0.00  0.00    -0.302 N 
ATOM     10  C   UNL     1      -2.017  -0.272  24.224  0.00  0.00    +0.112 C 
ATOM     11  C   UNL     1      -1.661   0.453  24.387  0.00  0.00    +0.115 C 
ATOM     12  N   UNL     1      -1.400   0.623  25.151  0.00  0.00    -0.276 N 
ATOM     13  C   UNL     1      -1.495   0.067  25.753  0.00  0.00    +0.115 C 
ATOM     14  C   UNL     1      -1.852  -0.660  25.590  0.00  0.00    +0.112 C 
ATOM     15  C   UNL     1      -1.044   1.348  25.314  0.00  0.00    +0.226 C 
ATOM     16  O   UNL     1      -0.783   1.518  26.077  0.00  0.00    -0.275 OA
ENDROOT
BRANCH   9   8
ATOM      3  C   UNL     1      -3.284  -1.600  24.552  0.00  0.00    +0.152 A 
ATOM      4  C   UNL     1      -3.640  -2.326  24.391  0.00  0.00    +0.038 A 
ATOM      5  C   UNL     1      -3.179  -3.009  24.340  0.00  0.00    +0.003 A 
ATOM      6  C   UNL     1      -2.363  -2.965  24.451  0.00  0.00    +0.001 A 
ATOM      7  C   UNL     1      -2.008  -2.239  24.613  0.00  0.00    +0.018 A 
ATOM      8  C   UNL     1      -2.469  -1.556  24.664  0.00  0.00    +0.082 A 
BRANCH   3   2
ATOM      1  C   UNL     1      -4.548  -0.946  24.416  0.00  0.00    +0.253 C 
ATOM      2  O   UNL     1      -3.745  -0.918  24.603  0.00  0.00    -0.470 OA
ENDBRANCH   3   2
ENDBRANCH   9   8
BRANCH  15  17
ATOM     17  C   UNL     1      -0.948   1.905  24.712  0.00  0.00    +0.089 C 
BRANCH  17  18
ATOM     18  C   UNL     1      -1.130   2.698  24.852  0.00  0.00    +0.027 C 
ATOM     19  C   UNL     1      -1.877   2.906  25.133  0.00  0.00    +0.005 C 
ATOM     20  C   UNL     1      -2.059   3.698  25.273  0.00  0.00    +0.007 C 
ATOM     24  C   UNL     1      -1.495   4.282  25.132  0.00  0.00    +0.054 C 
ATOM     27  C   UNL     1      -0.747   4.075  24.851  0.00  0.00    -0.032 C 
ATOM     28  C   UNL     1      -0.565   3.281  24.711  0.00  0.00    -0.048 C 
ATOM     29  C   UNL     1       0.182   3.074  24.429  0.00  0.00    +0.026 C 
BRANCH  20  21
ATOM     21  C   UNL     1      -2.807   3.906  25.554  0.00  0.00    +0.000 C 
ATOM     22  C   UNL     1      -3.449   3.933  25.037  0.00  0.00    +0.000 C 
ATOM     23  C   UNL     1      -2.912   4.088  26.352  0.00  0.00    +0.000 C 
ENDBRANCH  20  21
BRANCH  24  25
ATOM     25  C   UNL     1      -1.677   5.075  25.272  0.00  0.00    +0.186 C 
ATOM     26  O   UNL     1      -1.158   5.667  25.023  0.00  0.00    -0.220 OA
ENDBRANCH  24  25
ENDBRANCH  17  18
ENDBRANCH  15  17
TORSDOF 6
ENDMDL
MODEL 4
REMARK VINA RESULT:     -11.0      1.120      5.340
REMARK  Name = 
REMARK  6 active torsions:
REMARK  status: ('A' for Active; 'I' for Inactive)
REMARK    1  A    between atoms: O_2  and  C_3
REMARK    2  A    between atoms: C_8  and  N_9
REMARK    3  A    between atoms: C_15  and  C_17
REMARK    4  A    between atoms: C_17  and  C_18
REMARK    5  A    between atoms: C_20  and  C_21
REMARK    6  A    between atoms: C_24  and  C_25
REMARK                            x       y       z     vdW  Elec       q    Type
REMARK                         _______ _______ _______ _____ _____    ______ ____
ROOT
ATOM      9  N   UNL     1      -2.245   2.978  24.574  0.00  0.00    -0.302 N 
ATOM     10  C   UNL     1      -2.629   2.515  25.139  0.00  0.00    +0.112 C 
ATOM     11  C   UNL     1      -2.966   1.794  24.922  0.00  0.00    +0.115 C 
ATOM     12  N   UNL     1      -2.920   1.536  24.140  0.00  0.00    -0.276 N 
ATOM     13  C   UNL     1      -2.536   1.998  23.574  0.00  0.00    +0.115 C 
ATOM     14  C   UNL     1      -2.198   2.719  23.792  0.00  0.00    +0.112 C 
ATOM     15  C   UNL     1      -3.257   0.815  23.922  0.00  0.00    +0.226 C 
ATOM     16  O   UNL     1      -3.211   0.558  23.141  0.00  0.00    -0.275 OA
ENDROOT
BRANCH   9   8
ATOM      3  C   UNL     1      -1.109   3.736  24.995  0.00  0.00    +0.152 A 
ATOM      4  C   UNL     1      -0.772   4.457  25.211  0.00  0.00    +0.038 A 
ATOM      5  C   UNL     1      -1.234   5.142  25.223  0.00  0.00    +0.003 A 
ATOM      6  C   UNL     1      -2.031   5.104  25.018  0.00  0.00    +0.001 A 
ATOM      7  C   UNL     1      -2.368   4.384  24.802  0.00  0.00    +0.018 A 
ATOM      8  C   UNL     1      -1.907   3.699  24.790  0.00  0.00    +0.082 A 
BRANCH   3   2
ATOM      1  C   UNL     1       0.125   3.070  25.272  0.00  0.00    +0.253 C 
ATOM      2  O   UNL     1      -0.648   3.052  24.983  0.00  0.00    -0.470 OA
ENDBRANCH   3   2
ENDBRANCH   9   8
BRANCH  15  17
ATOM     17  C   UNL     1      -3.641   0.353  24.488  0.00  0.00    +0.089 C 
BRANCH  17  18
ATOM     18  C   UNL     1      -3.542  -0.466  24.486  0.00  0.00    +0.027 C 
ATOM     19  C   UNL     1      -2.793  -0.791  24.609  0.00  0.00    +0.005 C 
ATOM     20  C   UNL     1      -2.694  -1.610  24.608  0.00  0.00    +0.007 C 
ATOM     24  C   UNL     1      -3.341  -2.104  24.483  0.00  0.00    +0.054 C 
ATOM     27  C   UNL     1      -4.090  -1.780  24.360  0.00  0.00    -0.032 C 
ATOM     28  C   UNL     1      -4.190  -0.960  24.361  0.00  0.00    -0.048 C 
ATOM     29  C   UNL     1      -4.938  -0.636  24.238  0.00  0.00    +0.026 C 
BRANCH  20  21
ATOM     21  C   UNL     1      -1.945  -1.934  24.731  0.00  0.00    +0.000 C 
ATOM     22  C   UNL     1      -1.613  -1.929  25.486  0.00  0.00    +0.000 C 
ATOM     23  C   UNL     1      -1.528  -2.264  24.099  0.00  0.00    +0.000 C 
ENDBRANCH  20  21
BRANCH  24  25
ATOM     25  C   UNL     1      -3.242  -2.923  24.481  0.00  0.00    +0.186 C 
ATOM     26  O   UNL     1      -3.888  -3.416  24.343  0.00  0.00    -0.220 OA
ENDBRANCH  24  25
ENDBRANCH  17  18
ENDBRANCH  15  17
TORSDOF 6
ENDMDL
MODEL 5
REMARK VINA RESULT:     -10.2      1.713      2.328
REMARK  Name = 
REMARK  6 active torsions:
REMARK  status: ('A' for Active; 'I' for Inactive)
REMARK    1  A    between atoms: O_2  and  C_3
REMARK    2  A    between atoms: C_8  and  N_9
REMARK    3  A    between atoms: C_15  and  C_17
REMARK    4  A    between atoms: C_17  and  C_18
REMARK    5  A    between atoms: C_20  and  C_21
REMARK    6  A    between atoms: C_24  and  C_25
REMARK                            x       y       z     vdW  Elec       q    Type
REMARK                         _______ _______ _______ _____ _____    ______ ____
ROOT
ATOM      9  N   UNL     1      -3.278  -1.141  24.562  0.00  0.00    -0.302 N 
ATOM     10  C   UNL     1      -3.612  -0.855  25.260  0.00  0.00    +0.112 C 
ATOM     11  C   UNL     1      -4.030  -0.145  25.257  0.00  0.00    +0.115 C 
ATOM     12  N   UNL     1      -4.113   0.282  24.556  0.00  0.00    -0.276 N 
ATOM     13  C   UNL     1      -3.779  -0.002  23.858  0.00  0.00    +0.115 C 
ATOM     14  C   UNL     1      -3.361  -0.714  23.861  0.00  0.00    +0.112 C 
ATOM     15  C   UNL     1      -4.530   0.993  24.553  0.00  0.00    +0.226 C 
ATOM     16  O   UNL     1      -4.614   1.420  23.852  0.00  0.00    -0.275 OA
ENDROOT
BRANCH   9   8
ATOM      3  C   UNL     1      -2.044  -1.852  24.680  0.00  0.00    +0.152 A 
ATOM      4  C   UNL     1      -1.627  -2.563  24.682  0.00  0.00    +0.038 A 
ATOM      5  C   UNL     1      -2.027  -3.276  24.568  0.00  0.00    +0.003 A 
ATOM      6  C   UNL     1      -2.843  -3.277  24.453  0.00  0.00    +0.001 A 
ATOM      7  C   UNL     1      -3.260  -2.566  24.450  0.00  0.00    +0.018 A 
ATOM      8  C   UNL     1      -2.860  -1.852  24.564  0.00  0.00    +0.082 A 
BRANCH   3   2
ATOM      1  C   UNL     1      -0.830  -1.138  24.924  0.00  0.00    +0.253 C 
ATOM      2  O   UNL     1      -1.644  -1.139  24.793  0.00  0.00    -0.470 OA
ENDBRANCH   3   2
ENDBRANCH   9   8
BRANCH  15  17
ATOM     17  C   UNL     1      -4.865   1.278  25.252  0.00  0.00    +0.089 C 
BRANCH  17  18
ATOM     18  C   UNL     1      -4.968   2.090  25.358  0.00  0.00    +0.027 C 
ATOM     19  C   UNL     1      -4.318   2.597  25.317  0.00  0.00    +0.005 C 
ATOM     20  C   UNL     1      -4.421   3.408  25.423  0.00  0.00    +0.007 C 
ATOM     24  C   UNL     1      -5.173   3.713  25.570  0.00  0.00    +0.054 C 
ATOM     27  C   UNL     1      -5.823   3.207  25.611  0.00  0.00    -0.032 C 
ATOM     28  C   UNL     1      -5.720   2.394  25.505  0.00  0.00    -0.048 C 
ATOM     29  C   UNL     1      -6.370   1.888  25.546  0.00  0.00    +0.026 C 
BRANCH  20  21
ATOM     21  C   UNL     1      -3.771   3.915  25.382  0.00  0.00    +0.000 C 
ATOM     22  C   UNL     1      -3.574   4.275  24.666  0.00  0.00    +0.000 C 
ATOM     23  C   UNL     1      -3.319   4.062  26.056  0.00  0.00    +0.000 C 
ENDBRANCH  20  21
BRANCH  24  25
ATOM     25  C   UNL     1      -5.275   4.525  25.676  0.00  0.00    +0.186 C 
ATOM     26  O   UNL     1      -6.034   4.835  25.770  0.00  0.00    -0.220 OA
ENDBRANCH  24  25
ENDBRANCH  17  18
ENDBRANCH  15  17
TORSDOF 6
ENDMDL
MODEL 6
REMARK VINA RESULT:      -9.9      1.563      2.937
REMARK  Name = 
REMARK  6 active torsions:
REMARK  status: ('A' for Active; 'I' for Inactive)
REMARK    1  A    between atoms: O_2  and  C_3
REMARK    2  A    between atoms: C_8  and  N_9
REMARK    3  A    between atoms: C_15  and  C_17
REMARK    4  A    between atoms: C_17  and  C_18
REMARK    5  A    between atoms: C_20  and  C_21
REMARK    6  A    between atoms: C_24  and  C_25
REMARK                            x       y       z     vdW  Elec       q    Type
REMARK                         _______ _______ _______ _____ _____    ______ ____
ROOT
ATOM      9  N   UNL     1      -1.779  -0.243  24.662  0.00  0.00    -0.302 N 
ATOM     10  C   UNL     1      -1.897   0.241  25.319  0.00  0.00    +0.112 C 
ATOM     11  C   UNL     1      -2.260   0.976  25.230  0.00  0.00    +0.115 C 
ATOM     12  N   UNL     1      -2.505   1.227  24.484  0.00  0.00    -0.276 N 
ATOM     13  C   UNL     1      -2.387   0.744  23.826  0.00  0.00    +0.115 C 
ATOM     14  C   UNL     1      -2.024   0.008  23.915  0.00  0.00    +0.112 C 
ATOM     15  C   UNL     1      -2.868   1.963  24.394  0.00  0.00    +0.226 C 
ATOM     16  O   UNL     1      -3.113   2.214  23.649  0.00  0.00    -0.275 OA
ENDROOT
BRANCH   9   8
ATOM      3  C   UNL     1      -1.871  -1.665  24.766  0.00  0.00    +0.152 A 
ATOM      4  C   UNL     1      -1.508  -2.400  24.855  0.00  0.00    +0.038 A 
ATOM      5  C   UNL     1      -0.687  -2.448  24.927  0.00  0.00    +0.003 A 
ATOM      6  C   UNL     1      -0.230  -1.762  24.910  0.00  0.00    +0.001 A 
ATOM      7  C   UNL     1      -0.594  -1.027  24.822  0.00  0.00    +0.018 A 
ATOM      8  C   UNL     1      -1.415  -0.979  24.750  0.00  0.00    +0.082 A 
BRANCH   3   2
ATOM      1  C   UNL     1      -3.151  -2.301  24.735  0.00  0.00    +0.253 C 
ATOM      2  O   UNL     1      -2.692  -1.617  24.694  0.00  0.00    -0.470 OA
ENDBRANCH   3   2
ENDBRANCH   9   8
BRANCH  15  17
ATOM     17  C   UNL     1      -2.987   2.447  25.053  0.00  0.00    +0.089 C 
BRANCH  17  18
ATOM     18  C   UNL     1      -3.725   2.790  25.184  0.00  0.00    +0.027 C 
ATOM     19  C   UNL     1      -4.398   2.314  25.235  0.00  0.00    +0.005 C 
ATOM     20  C   UNL     1      -5.136   2.657  25.366  0.00  0.00    +0.007 C 
ATOM     24  C   UNL     1      -5.203   3.474  25.447  0.00  0.00    +0.054 C 
ATOM     27  C   UNL     1      -4.531   3.950  25.396  0.00  0.00    -0.032 C 
ATOM     28  C   UNL     1      -3.792   3.607  25.265  0.00  0.00    -0.048 C 
ATOM     29  C   UNL     1      -3.120   4.083  25.214  0.00  0.00    +0.026 C 
BRANCH  20  21
ATOM     21  C   UNL     1      -5.809   2.180  25.417  0.00  0.00    +0.000 C 
ATOM     22  C   UNL     1      -6.231   1.991  24.734  0.00  0.00    +0.000 C 
ATOM     23  C   UNL     1      -6.057   1.894  26.149  0.00  0.00    +0.000 C 
ENDBRANCH  20  21
BRANCH  24  25
ATOM     25  C   UNL     1      -5.942   3.817  25.579  0.00  0.00    +0.186 C 
ATOM     26  O   UNL     1      -6.001   4.627  25.724  0.00  0.00    -0.220 OA
ENDBRANCH  24  25
ENDBRANCH  17  18
ENDBRANCH  15  17
TORSDOF 6
ENDMDL
