MODEL 1
REMARK VINA RESULT:      -7.2      0.000      0.000
REMARK  Name = 
REMARK  5 active torsions:
REMARK  status: ('A' for Active; 'I' for Inactive)
REMARK    1  A    between atoms: O_2  and  C_3
REMARK    2  A    between atoms: C_3  and  C_4
REMARK    3  A    between atoms: C_4  and  N_5
REMARK    4  A    between atoms: N_9  and  C_10
REMARK    5  A    between atoms: C_10  and  C_11
REMARK                            x       y       z     vdW  Elec       q    Type
REMARK                         _______ _______ _______ _____ _____    ______ ____
ROOT
ATOM      5  N   UNL     1      -3.276   3.196  25.096  0.00  0.00    -0.260 N 
ATOM      6  C   UNL     1      -2.890   2.589  24.691  0.00  0.00    +0.116 C 
ATOM      7  C   UNL     1      -3.401   1.943  24.654  0.00  0.00    +0.113 C 
ATOM      8  C   UNL     1      -3.319   1.192  24.322  0.00  0.00    +0.094 C 
ATOM      9  N   UNL     1      -3.937   0.649  24.372  0.00  0.00    -0.263 NA
ATOM     16  C   UNL     1      -4.639   0.856  24.753  0.00  0.00    +0.094 C 
ATOM     17  C   UNL     1      -4.722   1.607  25.085  0.00  0.00    +0.112 C 
ATOM     18  N   UNL     1      -4.103   2.151  25.035  0.00  0.00    -0.261 N 
ATOM     19  C   UNL     1      -4.026   2.925  25.308  0.00  0.00    +0.307 C 
ATOM     20  O   UNL     1      -4.598   3.353  25.721  0.00  0.00    -0.252 OA
ENDROOT
BRANCH   5   4
ATOM      4  C   UNL     1      -2.967   3.943  25.259  0.00  0.00    +0.127 C 
BRANCH   4   3
ATOM      3  C   UNL     1      -2.165   4.094  25.136  0.00  0.00    +0.164 C 
BRANCH   3   2
ATOM      1  C   UNL     1      -1.130   5.074  25.037  0.00  0.00    +0.174 C 
ATOM      2  O   UNL     1      -1.840   4.816  25.369  0.00  0.00    -0.349 OA
ENDBRANCH   3   2
ENDBRANCH   4   3
ENDBRANCH   5   4
BRANCH   9  10
ATOM     10  C   UNL     1      -3.855  -0.102  24.040  0.00  0.00    +0.139 C 
BRANCH  10  11
ATOM     11  C   UNL     1      -3.548  -0.721  24.490  0.00  0.00    +0.155 A 
ATOM     12  N   UNL     1      -2.759  -0.961  24.511  0.00  0.00    -0.226 NA
ATOM     13  C   UNL     1      -2.699  -1.597  25.033  0.00  0.00    +0.121 A 
ATOM     14  C   UNL     1      -3.452  -1.751  25.334  0.00  0.00    +0.121 A 
ATOM     15  N   UNL     1      -3.977  -1.210  24.998  0.00  0.00    -0.226 NA
ENDBRANCH  10  11
ENDBRANCH   9  10
TORSDOF 5
ENDMDL
MODEL 2
REMARK VINA RESULT:      -7.1      2.879      5.192
REMARK  Name = 
REMARK  5 active torsions:
REMARK  status: ('A' for Active; 'I' for Inactive)
REMARK    1  A    between atoms: O_2  and  C_3
REMARK    2  A    between atoms: C_3  and  C_4
REMARK    3  A    between atoms: C_4  and  N_5
REMARK    4  A    between atoms: N_9  and  C_10
REMARK    5  A    between atoms: C_10  and  C_11
REMARK                            x       y       z     vdW  Elec       q    Type
REMARK                         _______ _______ _______ _____ _____    ______ ____
ROOT
ATOM      5  N   UNL     1      -1.027  -0.562  24.747  0.00  0.00    -0.260 N 
ATOM      6  C   UNL     1      -1.307  -0.057  25.337  0.00  0.00    +0.116 C 
ATOM      7  C   UNL     1      -0.918   0.665  25.259  0.00  0.00    +0.113 C 
ATOM      8  C   UNL     1      -0.970   1.369  25.687  0.00  0.00    +0.094 C 
ATOM      9  N   UNL     1      -0.501   2.015  25.478  0.00  0.00    -0.263 NA
ATOM     16  C   UNL     1       0.020   1.957  24.840  0.00  0.00    +0.094 C 
ATOM     17  C   UNL     1       0.072   1.254  24.413  0.00  0.00    +0.112 C 
ATOM     18  N   UNL     1      -0.397   0.607  24.622  0.00  0.00    -0.261 N 
ATOM     19  C   UNL     1      -0.464  -0.151  24.306  0.00  0.00    +0.307 C 
ATOM     20  O   UNL     1      -0.043  -0.447  23.661  0.00  0.00    -0.252 OA
ENDROOT
BRANCH   5   4
ATOM      4  C   UNL     1      -1.267  -1.341  24.621  0.00  0.00    +0.127 C 
BRANCH   4   3
ATOM      3  C   UNL     1      -2.051  -1.559  24.756  0.00  0.00    +0.164 C 
BRANCH   3   2
ATOM      1  C   UNL     1      -3.097  -2.523  24.624  0.00  0.00    +0.174 C 
ATOM      2  O   UNL     1      -2.294  -2.336  24.621  0.00  0.00    -0.349 OA
ENDBRANCH   3   2
ENDBRANCH   4   3
ENDBRANCH   5   4
BRANCH   9  10
ATOM     10  C   UNL     1      -0.553   2.719  25.905  0.00  0.00    +0.139 C 
BRANCH  10  11
ATOM     11  C   UNL     1      -1.016   3.340  25.622  0.00  0.00    +0.155 A 
ATOM     12  N   UNL     1      -0.754   3.964  25.151  0.00  0.00    -0.226 NA
ATOM     13  C   UNL     1      -1.398   4.457  24.998  0.00  0.00    +0.121 A 
ATOM     14  C   UNL     1      -2.059   4.137  25.377  0.00  0.00    +0.121 A 
ATOM     15  N   UNL     1      -1.822   3.447  25.762  0.00  0.00    -0.226 NA
ENDBRANCH  10  11
ENDBRANCH   9  10
TORSDOF 5
ENDMDL
MODEL 3
REMARK VINA RESULT:      -7.1      2.570      3.844
REMARK  Name = 
REMARK  5 active torsions:
REMARK  status: ('A' for Active; 'I' for Inactive)
REMARK    1  A    between atoms: O_2  and  C_3
REMARK    2  A    between atoms: C_3  and  C_4
REMARK    3  A    between atoms: C_4  and  N_5
REMARK    4  A    between atoms: N_9  and  C_10
REMARK    5  A    between atoms: C_10  and  C_11
REMARK                            x       y       z     vdW  Elec       q    Type
REMARK                         _______ _______ _______ _____ _____    ______ ____
ROOT
ATOM      5  N   UNL     1      -0.741   2.047  24.609  0.00  0.00    -0.260 N 
ATOM      6  C   UNL     1      -1.448   2.080  24.184  0.00  0.00    +0.116 C 
ATOM      7  C   UNL     1      -1.953   2.604  24.570  0.00  0.00    +0.113 C 
ATOM      8  C   UNL     1      -2.722   2.855  24.404  0.00  0.00    +0.094 C 
ATOM      9  N   UNL     1      -3.096   3.396  24.901  0.00  0.00    -0.263 NA
ATOM     16  C   UNL     1      -2.702   3.688  25.564  0.00  0.00    +0.094 C 
ATOM     17  C   UNL     1      -1.934   3.438  25.731  0.00  0.00    +0.112 C 
ATOM     18  N   UNL     1      -1.559   2.896  25.233  0.00  0.00    -0.261 N 
ATOM     19  C   UNL     1      -0.811   2.552  25.257  0.00  0.00    +0.307 C 
ATOM     20  O   UNL     1      -0.232   2.688  25.829  0.00  0.00    -0.252 OA
ENDROOT
BRANCH   5   4
ATOM      4  C   UNL     1      -0.082   1.590  24.418  0.00  0.00    +0.127 C 
BRANCH   4   3
ATOM      3  C   UNL     1      -0.160   0.942  23.913  0.00  0.00    +0.164 C 
BRANCH   3   2
ATOM      1  C   UNL     1       0.498  -0.221  23.409  0.00  0.00    +0.174 C 
ATOM      2  O   UNL     1       0.511   0.582  23.596  0.00  0.00    -0.349 OA
ENDBRANCH   3   2
ENDBRANCH   4   3
ENDBRANCH   5   4
BRANCH   9  10
ATOM     10  C   UNL     1      -3.865   3.647  24.735  0.00  0.00    +0.139 C 
BRANCH  10  11
ATOM     11  C   UNL     1      -4.509   3.228  25.033  0.00  0.00    +0.155 A 
ATOM     12  N   UNL     1      -4.902   2.608  24.657  0.00  0.00    -0.226 NA
ATOM     13  C   UNL     1      -5.510   2.353  25.153  0.00  0.00    +0.121 A 
ATOM     14  C   UNL     1      -5.493   2.815  25.836  0.00  0.00    +0.121 A 
ATOM     15  N   UNL     1      -4.874   3.356  25.762  0.00  0.00    -0.226 NA
ENDBRANCH  10  11
ENDBRANCH   9  10
TORSDOF 5
ENDMDL
MODEL 4
REMARK VINA RESULT:      -7.0      2.165      3.962
REMARK  Name = 
REMARK  5 active torsions:
REMARK  status: ('A' for Active; 'I' for Inactive)
REMARK    1  A    between atoms: O_2  and  C_3
REMARK    2  A    between atoms: C_3  and  C_4
REMARK    3  A    between atoms: C_4  and  N_5
REMARK    4  A    between atoms: N_9  and  C_10
REMARK    5  A    between atoms: C_10  and  C_11
REMARK                            x       y       z     vdW  Elec       q    Type
REMARK                         _______ _______ _______ _____ _____    ______ ____
ROOT
ATOM      5  N   UNL     1      -1.163   1.007  24.962  0.00  0.00    -0.260 N 
ATOM      6  C   UNL     1      -1.892   0.994  24.575  0.00  0.00    +0.116 C 
ATOM      7  C   UNL     1      -2.258   1.723  24.699  0.00  0.00    +0.113 C 
ATOM      8  C   UNL     1      -2.984   2.026  24.450  0.00  0.00    +0.094 C 
ATOM      9  N   UNL     1      -3.207   2.790  24.663  0.00  0.00    -0.263 NA
ATOM     16  C   UNL     1      -2.704   3.253  25.125  0.00  0.00    +0.094 C 
ATOM     17  C   UNL     1      -1.978   2.952  25.374  0.00  0.00    +0.112 C 
ATOM     18  N   UNL     1      -1.755   2.186  25.161  0.00  0.00    -0.261 N 
ATOM     19  C   UNL     1      -1.078   1.743  25.323  0.00  0.00    +0.307 C 
ATOM     20  O   UNL     1      -0.430   1.993  25.769  0.00  0.00    -0.252 OA
ENDROOT
BRANCH   5   4
ATOM      4  C   UNL     1      -0.615   0.391  24.982  0.00  0.00    +0.127 C 
BRANCH   4   3
ATOM      3  C   UNL     1      -0.871  -0.392  24.937  0.00  0.00    +0.164 C 
BRANCH   3   2
ATOM      1  C   UNL     1      -0.555  -1.760  25.204  0.00  0.00    +0.174 C 
ATOM      2  O   UNL     1      -0.323  -1.008  24.954  0.00  0.00    -0.349 OA
ENDBRANCH   3   2
ENDBRANCH   4   3
ENDBRANCH   5   4
BRANCH   9  10
ATOM     10  C   UNL     1      -3.934   3.093  24.415  0.00  0.00    +0.139 C 
BRANCH  10  11
ATOM     11  C   UNL     1      -4.615   2.946  24.855  0.00  0.00    +0.155 A 
ATOM     12  N   UNL     1      -4.885   3.392  25.495  0.00  0.00    -0.226 NA
ATOM     13  C   UNL     1      -5.583   3.049  25.769  0.00  0.00    +0.121 A 
ATOM     14  C   UNL     1      -5.745   2.390  25.298  0.00  0.00    +0.121 A 
ATOM     15  N   UNL     1      -5.147   2.327  24.734  0.00  0.00    -0.226 NA
ENDBRANCH  10  11
ENDBRANCH   9  10
TORSDOF 5
ENDMDL
MODEL 5
REMARK VINA RESULT:      -6.9      2.368      3.789
REMARK  Name = 
REMARK  5 active torsions:
REMARK  status: ('A' for Active; 'I' for Inactive)
REMARK    1  A    between atoms: O_2  and  C_3
REMARK    2  A    between atoms: C_3  and  C_4
REMARK    3  A    between atoms: C_4  and  N_5
REMARK    4  A    between atoms: N_9  and  C_10
REMARK    5  A    between atoms: C_10  and  C_11
REMARK                            x       y       z     vdW  Elec       q    Type
REMARK                         _______ _______ _______ _____ _____    ______ ____
ROOT
ATOM      5  N   UNL     1      -1.565   0.065  24.544  0.00  0.00    -0.260 N 
ATOM      6  C   UNL     1      -1.877   0.765  24.239  0.00  0.00    +0.116 C 
ATOM      7  C   UNL     1      -2.683   0.781  24.411  0.00  0.00    +0.113 C 
ATOM      8  C   UNL     1      -3.272   1.335  24.247  0.00  0.00    +0.094 C 
ATOM      9  N   UNL     1      -4.047   1.199  24.493  0.00  0.00    -0.263 NA
ATOM     16  C   UNL     1      -4.233   0.509  24.905  0.00  0.00    +0.094 C 
ATOM     17  C   UNL     1      -3.645  -0.045  25.070  0.00  0.00    +0.112 C 
ATOM     18  N   UNL     1      -2.869   0.091  24.823  0.00  0.00    -0.261 N 
ATOM     19  C   UNL     1      -2.178  -0.351  24.905  0.00  0.00    +0.307 C 
ATOM     20  O   UNL     1      -2.112  -1.082  25.282  0.00  0.00    -0.252 OA
ENDROOT
BRANCH   5   4
ATOM      4  C   UNL     1      -0.777  -0.176  24.497  0.00  0.00    +0.127 C 
BRANCH   4   3
ATOM      3  C   UNL     1      -0.310   0.063  23.861  0.00  0.00    +0.164 C 
BRANCH   3   2
ATOM      1  C   UNL     1       0.874  -0.081  23.073  0.00  0.00    +0.174 C 
ATOM      2  O   UNL     1       0.431  -0.280  23.741  0.00  0.00    -0.349 OA
ENDBRANCH   3   2
ENDBRANCH   4   3
ENDBRANCH   5   4
BRANCH   9  10
ATOM     10  C   UNL     1      -4.636   1.753  24.329  0.00  0.00    +0.139 C 
BRANCH  10  11
ATOM     11  C   UNL     1      -4.855   2.305  24.901  0.00  0.00    +0.155 A 
ATOM     12  N   UNL     1      -4.487   3.029  25.042  0.00  0.00    -0.226 NA
ATOM     13  C   UNL     1      -4.885   3.402  25.661  0.00  0.00    +0.121 A 
ATOM     14  C   UNL     1      -5.501   2.908  25.902  0.00  0.00    +0.121 A 
ATOM     15  N   UNL     1      -5.482   2.230  25.432  0.00  0.00    -0.226 NA
ENDBRANCH  10  11
ENDBRANCH   9  10
TORSDOF 5
ENDMDL
MODEL 6
REMARK VINA RESULT:      -6.8      2.029      2.667
REMARK  Name = 
REMARK  5 active torsions:
REMARK  status: ('A' for Active; 'I' for Inactive)
REMARK    1  A    between atoms: O_2  and  C_3
REMARK    2  A    between atoms: C_3  and  C_4
REMARK    3  A    between atoms: C_4  and  N_5
REMARK    4  A    between atoms: N_9  and  C_10
REMARK    5  A    between atoms: C_10  and  C_11
REMARK                            x       y       z     vdW  Elec       q    Type
REMARK                         _______ _______ _______ _____ _____    ______ ____
ROOT
ATOM      5  N   UNL     1      -0.964   1.688  24.514  0.00  0.00    -0.260 N 
ATOM      6  C   UNL     1      -1.712   1.501  24.810  0.00  0.00    +0.116 C 
ATOM      7  C   UNL     1      -1.758   0.682  24.884  0.00  0.00    +0.113 C 
ATOM      8  C   UNL     1      -2.362   0.184  25.147  0.00  0.00    +0.094 C 
ATOM      9  N   UNL     1      -2.248  -0.632  25.161  0.00  0.00    -0.263 NA
ATOM     16  C   UNL     1      -1.529  -0.952  24.912  0.00  0.00    +0.094 C 
ATOM     17  C   UNL     1      -0.925  -0.456  24.650  0.00  0.00    +0.112 C 
ATOM     18  N   UNL     1      -1.040   0.362  24.636  0.00  0.00    -0.261 N 
ATOM     19  C   UNL     1      -0.549   0.983  24.407  0.00  0.00    +0.307 C 
ATOM     20  O   UNL     1       0.222   0.913  24.121  0.00  0.00    -0.252 OA
ENDROOT
BRANCH   5   4
ATOM      4  C   UNL     1      -0.681   2.447  24.355  0.00  0.00    +0.127 C 
BRANCH   4   3
ATOM      3  C   UNL     1      -1.010   3.099  24.737  0.00  0.00    +0.164 C 
BRANCH   3   2
ATOM      1  C   UNL     1      -0.980   4.495  25.040  0.00  0.00    +0.174 C 
ATOM      2  O   UNL     1      -0.718   3.856  24.588  0.00  0.00    -0.349 OA
ENDBRANCH   3   2
ENDBRANCH   4   3
ENDBRANCH   5   4
BRANCH   9  10
ATOM     10  C   UNL     1      -2.852  -1.129  25.423  0.00  0.00    +0.139 C 
BRANCH  10  11
ATOM     11  C   UNL     1      -3.319  -1.535  24.879  0.00  0.00    +0.155 A 
ATOM     12  N   UNL     1      -3.240  -2.328  24.666  0.00  0.00    -0.226 NA
ATOM     13  C   UNL     1      -3.820  -2.501  24.106  0.00  0.00    +0.121 A 
ATOM     14  C   UNL     1      -4.259  -1.815  23.972  0.00  0.00    +0.121 A 
ATOM     15  N   UNL     1      -3.949  -1.218  24.450  0.00  0.00    -0.226 NA
ENDBRANCH  10  11
ENDBRANCH   9  10
TORSDOF 5
ENDMDL
MODEL 7
REMARK VINA RESULT:      -6.8      2.016      4.196
REMARK  Name = 
REMARK  5 active torsions:
REMARK  status: ('A' for Active; 'I' for Inactive)
REMARK    1  A    between atoms: O_2  and  C_3
REMARK    2  A    between atoms: C_3  and  C_4
REMARK    3  A    between atoms: C_4  and  N_5
REMARK    4  A    between atoms: N_9  and  C_10
REMARK    5  A    between atoms: C_10  and  C_11
REMARK                            x       y       z     vdW  Elec       q    Type
REMARK                         _______ _______ _______ _____ _____    ______ ____
ROOT
ATOM      5  N   UNL     1      -3.987   0.234  24.377  0.00  0.00    -0.260 N 
ATOM      6  C   UNL     1      -3.194   0.370  24.192  0.00  0.00    +0.116 C 
ATOM      7  C   UNL     1      -3.015   1.148  24.396  0.00  0.00    +0.113 C 
ATOM      8  C   UNL     1      -2.320   1.589  24.340  0.00  0.00    +0.094 C 
ATOM      9  N   UNL     1      -2.306   2.373  24.593  0.00  0.00    -0.263 NA
ATOM     16  C   UNL     1      -2.988   2.718  24.903  0.00  0.00    +0.094 C 
ATOM     17  C   UNL     1      -3.683   2.279  24.960  0.00  0.00    +0.112 C 
ATOM     18  N   UNL     1      -3.697   1.494  24.707  0.00  0.00    -0.261 N 
ATOM     19  C   UNL     1      -4.297   0.928  24.695  0.00  0.00    +0.307 C 
ATOM     20  O   UNL     1      -5.073   1.038  24.955  0.00  0.00    -0.252 OA
ENDROOT
BRANCH   5   4
ATOM      4  C   UNL     1      -4.396  -0.474  24.264  0.00  0.00    +0.127 C 
BRANCH   4   3
ATOM      3  C   UNL     1      -3.982  -1.171  24.115  0.00  0.00    +0.164 C 
BRANCH   3   2
ATOM      1  C   UNL     1      -4.040  -2.597  24.040  0.00  0.00    +0.174 C 
ATOM      2  O   UNL     1      -4.391  -1.860  23.919  0.00  0.00    -0.349 OA
ENDBRANCH   3   2
ENDBRANCH   4   3
ENDBRANCH   5   4
BRANCH   9  10
ATOM     10  C   UNL     1      -1.610   2.813  24.536  0.00  0.00    +0.139 C 
BRANCH  10  11
ATOM     11  C   UNL     1      -1.006   2.703  25.085  0.00  0.00    +0.155 A 
ATOM     12  N   UNL     1      -0.984   3.008  25.852  0.00  0.00    -0.226 NA
ATOM     13  C   UNL     1      -0.281   2.761  26.205  0.00  0.00    +0.121 A 
ATOM     14  C   UNL     1       0.133   2.304  25.657  0.00  0.00    +0.121 A 
ATOM     15  N   UNL     1      -0.314   2.268  24.965  0.00  0.00    -0.226 NA
ENDBRANCH  10  11
ENDBRANCH   9  10
TORSDOF 5
ENDMDL
MODEL 8
REMARK VINA RESULT:      -6.7      2.075      2.762
REMARK  Name = 
REMARK  5 active torsions:
REMARK  status: ('A' for Active; 'I' for Inactive)
REMARK    1  A    between atoms: O_2  and  C_3
REMARK    2  A    between atoms: C_3  and  C_4
REMARK    3  A    between atoms: C_4  and  N_5
REMARK    4  A    between atoms: N_9  and  C_10
REMARK    5  A    between atoms: C_10  and  C_11
REMARK                            x       y       z     vdW  Elec       q    Type
REMARK                         _______ _______ _______ _____ _____    ______ ____
ROOT
ATOM      5  N   UNL     1      -3.412   2.776  24.425  0.00  0.00    -0.260 N 
ATOM      6  C   UNL     1      -2.934   2.447  25.013  0.00  0.00    +0.116 C 
ATOM      7  C   UNL     1      -2.333   2.020  24.644  0.00  0.00    +0.113 C 
ATOM      8  C   UNL     1      -1.703   1.581  24.944  0.00  0.00    +0.094 C 
ATOM      9  N   UNL     1      -1.179   1.206  24.430  0.00  0.00    -0.263 NA
ATOM     16  C   UNL     1      -1.284   1.271  23.614  0.00  0.00    +0.094 C 
ATOM     17  C   UNL     1      -1.914   1.710  23.313  0.00  0.00    +0.112 C 
ATOM     18  N   UNL     1      -2.439   2.085  23.828  0.00  0.00    -0.261 N 
ATOM     19  C   UNL     1      -3.105   2.551  23.693  0.00  0.00    +0.307 C 
ATOM     20  O   UNL     1      -3.412   2.758  22.955  0.00  0.00    -0.252 OA
ENDROOT
BRANCH   5   4
ATOM      4  C   UNL     1      -4.079   3.246  24.549  0.00  0.00    +0.127 C 
BRANCH   4   3
ATOM      3  C   UNL     1      -4.519   3.163  25.241  0.00  0.00    +0.164 C 
BRANCH   3   2
ATOM      1  C   UNL     1      -5.844   3.344  25.744  0.00  0.00    +0.174 C 
ATOM      2  O   UNL     1      -5.172   3.649  25.375  0.00  0.00    -0.349 OA
ENDBRANCH   3   2
ENDBRANCH   4   3
ENDBRANCH   5   4
BRANCH   9  10
ATOM     10  C   UNL     1      -0.548   0.767  24.730  0.00  0.00    +0.139 C 
BRANCH  10  11
ATOM     11  C   UNL     1      -0.626  -0.047  24.836  0.00  0.00    +0.155 A 
ATOM     12  N   UNL     1      -0.934  -0.422  25.503  0.00  0.00    -0.226 NA
ATOM     13  C   UNL     1      -0.907  -1.237  25.373  0.00  0.00    +0.121 A 
ATOM     14  C   UNL     1      -0.582  -1.365  24.626  0.00  0.00    +0.121 A 
ATOM     15  N   UNL     1      -0.407  -0.630  24.294  0.00  0.00    -0.226 NA
ENDBRANCH  10  11
ENDBRANCH   9  10
TORSDOF 5
ENDMDL
