REMARK  Name = 
REMARK  6 active torsions:
REMARK  status: ('A' for Active; 'I' for Inactive)
REMARK    1  A    between atoms: N_2  and  C_4
REMARK    2  A    between atoms: C_7  and  C_10
REMARK    3  A    between atoms: N_12  and  C_13
REMARK    4  A    between atoms: C_18  and  C_19
REMARK    5  A    between atoms: C_19  and  C_20
REMARK    6  A    between atoms: C_20  and  C_21
REMARK                            x       y       z     vdW  Elec       q    Type
REMARK                         _______ _______ _______ _____ _____    ______ ____
ROOT
ATOM     13  C   UNL     1      -0.628  -0.698   0.000  0.00  0.00    +0.113 C 
ATOM     14  C   UNL     1      -0.143  -1.365   0.000  0.00  0.00    +0.048 C 
ATOM     15  C   UNL     1       0.641  -1.110   0.000  0.00  0.00    +0.138 C 
ATOM     16  N   UNL     1       0.641  -0.285   0.000  0.00  0.00    -0.265 NA
ATOM     17  C   UNL     1      -0.143  -0.030   0.000  0.00  0.00    +0.094 C 
ATOM     18  C   UNL     1       1.356   0.127   0.000  0.00  0.00    +0.080 C 
ATOM     29  C   UNL     1       2.070  -0.285   0.000  0.00  0.00    +0.131 C 
ATOM     30  N   UNL     1       2.070  -1.110   0.000  0.00  0.00    -0.203 NA
ATOM     31  C   UNL     1       1.356  -1.523   0.000  0.00  0.00    +0.256 C 
ATOM     32  O   UNL     1       1.356  -2.348   0.000  0.00  0.00    -0.272 OA
ENDROOT
BRANCH  13  12
ATOM     10  C   UNL     1      -1.866  -1.412   0.000  0.00  0.00    +0.265 C 
ATOM     11  O   UNL     1      -1.453  -2.127   0.000  0.00  0.00    -0.268 OA
ATOM     12  N   UNL     1      -1.453  -0.698   0.000  0.00  0.00    -0.202 NA
BRANCH  10   7
ATOM      4  C   UNL     1      -4.341  -1.412   0.000  0.00  0.00    +0.048 A 
ATOM      5  C   UNL     1      -3.928  -0.698   0.000  0.00  0.00    +0.015 A 
ATOM      6  C   UNL     1      -3.103  -0.698   0.000  0.00  0.00    +0.006 A 
ATOM      7  C   UNL     1      -2.691  -1.412   0.000  0.00  0.00    +0.055 A 
ATOM      8  C   UNL     1      -3.103  -2.127   0.000  0.00  0.00    +0.006 A 
ATOM      9  C   UNL     1      -3.928  -2.127   0.000  0.00  0.00    +0.015 A 
BRANCH   4   2
ATOM      1  C   UNL     1      -5.578  -2.127   0.000  0.00  0.00    +0.112 C 
ATOM      2  N   UNL     1      -5.166  -1.412   0.000  0.00  0.00    -0.304 N 
ATOM      3  C   UNL     1      -5.578  -0.698   0.000  0.00  0.00    +0.112 C 
ENDBRANCH   4   2
ENDBRANCH  10   7
ENDBRANCH  13  12
BRANCH  18  19
ATOM     19  C   UNL     1       1.356   0.952   0.000  0.00  0.00    +0.027 C 
BRANCH  19  20
ATOM     20  C   UNL     1       2.070   1.365   0.000  0.00  0.00    +0.087 C 
BRANCH  20  21
ATOM     21  C   UNL     1       2.070   2.190   0.000  0.00  0.00    +0.226 C 
ATOM     22  O   UNL     1       1.356   2.602   0.000  0.00  0.00    -0.275 OA
ATOM     23  N   UNL     1       2.784   2.602   0.000  0.00  0.00    -0.280 N 
ATOM     24  C   UNL     1       2.784   3.427   0.000  0.00  0.00    +0.093 C 
ATOM     25  C   UNL     1       3.499   3.840   0.000  0.00  0.00    +0.022 C 
ATOM     26  C   UNL     1       4.213   3.427   0.000  0.00  0.00    +0.004 C 
ATOM     27  C   UNL     1       4.213   2.602   0.000  0.00  0.00    +0.022 C 
ATOM     28  C   UNL     1       3.499   2.190   0.000  0.00  0.00    +0.093 C 
ENDBRANCH  20  21
ENDBRANCH  19  20
ENDBRANCH  18  19
TORSDOF 6
