MODEL 1
REMARK VINA RESULT:      -9.2      0.000      0.000
REMARK  Name = 
REMARK  7 active torsions:
REMARK  status: ('A' for Active; 'I' for Inactive)
REMARK    1  A    between atoms: O_2  and  C_3
REMARK    2  A    between atoms: C_3  and  C_4
REMARK    3  A    between atoms: N_6  and  C_7
REMARK    4  A    between atoms: C_10  and  C_13
REMARK    5  A    between atoms: N_18  and  C_19
REMARK    6  A    between atoms: C_19  and  C_20
REMARK    7  A    between atoms: C_26  and  C_27
REMARK                            x       y       z     vdW  Elec       q    Type
REMARK                         _______ _______ _______ _____ _____    ______ ____
ROOT
ATOM     13  C   UNL     1      -1.084  -0.120  24.643  0.00  0.00    +0.159 C 
ATOM     14  O   UNL     1      -0.513  -0.641  24.355  0.00  0.00    -0.341 OA
ATOM     15  C   UNL     1      -0.649  -1.455  24.376  0.00  0.00    +0.227 C 
ATOM     16  C   UNL     1      -1.357  -1.747  24.684  0.00  0.00    +0.256 C 
ATOM     17  O   UNL     1      -1.492  -2.560  24.705  0.00  0.00    -0.272 OA
ATOM     18  N   UNL     1      -1.927  -1.225  24.972  0.00  0.00    -0.270 N 
ATOM     26  C   UNL     1      -1.792  -0.413  24.951  0.00  0.00    +0.140 C 
ENDROOT
BRANCH  13  10
ATOM      7  C   UNL     1      -0.675   2.320  24.581  0.00  0.00    +0.073 A 
ATOM      8  C   UNL     1      -1.110   1.959  23.980  0.00  0.00    +0.016 A 
ATOM      9  C   UNL     1      -1.246   1.146  24.001  0.00  0.00    -0.001 A 
ATOM     10  C   UNL     1      -0.948   0.694  24.622  0.00  0.00    +0.006 A 
ATOM     11  C   UNL     1      -0.513   1.054  25.223  0.00  0.00    -0.001 A 
ATOM     12  C   UNL     1      -0.377   1.868  25.202  0.00  0.00    +0.016 A 
BRANCH   7   6
ATOM      4  C   UNL     1      -1.021   3.642  24.995  0.00  0.00    +0.276 C 
ATOM      5  O   UNL     1      -1.638   3.339  25.449  0.00  0.00    -0.270 OA
ATOM      6  N   UNL     1      -0.539   3.133  24.560  0.00  0.00    -0.177 NA
BRANCH   4   3
ATOM      3  C   UNL     1      -0.885   4.456  24.974  0.00  0.00    +0.229 C 
BRANCH   3   2
ATOM      1  C   UNL     1      -1.450   5.769  24.995  0.00  0.00    +0.175 C 
ATOM      2  O   UNL     1      -1.470   4.979  25.231  0.00  0.00    -0.342 OA
ENDBRANCH   3   2
ENDBRANCH   4   3
ENDBRANCH   7   6
ENDBRANCH  13  10
BRANCH  26  27
ATOM     27  C   UNL     1      -2.362   0.109  25.239  0.00  0.00    +0.205 C 
ATOM     28  O   UNL     1      -2.544   0.121  26.043  0.00  0.00    -0.218 OA
ENDBRANCH  26  27
BRANCH  18  19
ATOM     19  C   UNL     1      -2.635  -1.518  25.280  0.00  0.00    +0.122 C 
BRANCH  19  20
ATOM     20  C   UNL     1      -3.203  -1.840  24.776  0.00  0.00    +0.017 A 
ATOM     21  C   UNL     1      -3.682  -1.343  24.324  0.00  0.00    +0.001 A 
ATOM     22  C   UNL     1      -4.251  -1.666  23.820  0.00  0.00    +0.020 A 
ATOM     23  C   UNL     1      -4.340  -2.484  23.768  0.00  0.00    +0.099 A 
ATOM     24  N   UNL     1      -3.860  -2.980  24.220  0.00  0.00    -0.243 NA
ATOM     25  C   UNL     1      -3.292  -2.659  24.724  0.00  0.00    +0.096 A 
ENDBRANCH  19  20
ENDBRANCH  18  19
TORSDOF 7
ENDMDL
MODEL 2
REMARK VINA RESULT:      -8.9      2.839      4.486
REMARK  Name = 
REMARK  7 active torsions:
REMARK  status: ('A' for Active; 'I' for Inactive)
REMARK    1  A    between atoms: O_2  and  C_3
REMARK    2  A    between atoms: C_3  and  C_4
REMARK    3  A    between atoms: N_6  and  C_7
REMARK    4  A    between atoms: C_10  and  C_13
REMARK    5  A    between atoms: N_18  and  C_19
REMARK    6  A    between atoms: C_19  and  C_20
REMARK    7  A    between atoms: C_26  and  C_27
REMARK                            x       y       z     vdW  Elec       q    Type
REMARK                         _______ _______ _______ _____ _____    ______ ____
ROOT
ATOM     13  C   UNL     1      -2.063   2.993  25.212  0.00  0.00    +0.159 C 
ATOM     14  O   UNL     1      -1.979   3.536  25.827  0.00  0.00    -0.341 OA
ATOM     15  C   UNL     1      -2.628   3.983  26.073  0.00  0.00    +0.227 C 
ATOM     16  C   UNL     1      -3.359   3.887  25.703  0.00  0.00    +0.256 C 
ATOM     17  O   UNL     1      -4.007   4.334  25.949  0.00  0.00    -0.272 OA
ATOM     18  N   UNL     1      -3.442   3.344  25.088  0.00  0.00    -0.270 N 
ATOM     26  C   UNL     1      -2.794   2.897  24.842  0.00  0.00    +0.140 C 
ENDROOT
BRANCH  13  10
ATOM      7  C   UNL     1      -0.118   1.650  24.476  0.00  0.00    +0.073 A 
ATOM      8  C   UNL     1      -0.241   2.404  24.164  0.00  0.00    +0.016 A 
ATOM      9  C   UNL     1      -0.889   2.851  24.410  0.00  0.00    -0.001 A 
ATOM     10  C   UNL     1      -1.414   2.545  24.966  0.00  0.00    +0.006 A 
ATOM     11  C   UNL     1      -1.291   1.792  25.279  0.00  0.00    -0.001 A 
ATOM     12  C   UNL     1      -0.643   1.344  25.033  0.00  0.00    +0.016 A 
BRANCH   7   6
ATOM      4  C   UNL     1       0.434   0.620  23.655  0.00  0.00    +0.276 C 
ATOM      5  O   UNL     1      -0.309   0.484  23.326  0.00  0.00    -0.270 OA
ATOM      6  N   UNL     1       0.530   1.203  24.231  0.00  0.00    -0.177 NA
BRANCH   4   3
ATOM      3  C   UNL     1       1.082   0.173  23.409  0.00  0.00    +0.229 C 
BRANCH   3   2
ATOM      1  C   UNL     1       1.930  -0.233  22.332  0.00  0.00    +0.175 C 
ATOM      2  O   UNL     1       1.191   0.011  22.607  0.00  0.00    -0.342 OA
ENDBRANCH   3   2
ENDBRANCH   4   3
ENDBRANCH   7   6
ENDBRANCH  13  10
BRANCH  26  27
ATOM     27  C   UNL     1      -2.876   2.353  24.227  0.00  0.00    +0.205 C 
ATOM     28  O   UNL     1      -2.987   2.618  23.454  0.00  0.00    -0.218 OA
ENDBRANCH  26  27
BRANCH  18  19
ATOM     19  C   UNL     1      -4.173   3.248  24.718  0.00  0.00    +0.122 C 
BRANCH  19  20
ATOM     20  C   UNL     1      -4.782   2.847  25.106  0.00  0.00    +0.017 A 
ATOM     21  C   UNL     1      -4.864   2.032  25.011  0.00  0.00    +0.001 A 
ATOM     22  C   UNL     1      -5.473   1.631  25.398  0.00  0.00    +0.020 A 
ATOM     23  C   UNL     1      -5.999   2.045  25.879  0.00  0.00    +0.099 A 
ATOM     24  N   UNL     1      -5.917   2.861  25.973  0.00  0.00    -0.243 NA
ATOM     25  C   UNL     1      -5.309   3.262  25.587  0.00  0.00    +0.096 A 
ENDBRANCH  19  20
ENDBRANCH  18  19
TORSDOF 7
ENDMDL
MODEL 3
REMARK VINA RESULT:      -8.7      1.861      5.743
REMARK  Name = 
REMARK  7 active torsions:
REMARK  status: ('A' for Active; 'I' for Inactive)
REMARK    1  A    between atoms: O_2  and  C_3
REMARK    2  A    between atoms: C_3  and  C_4
REMARK    3  A    between atoms: N_6  and  C_7
REMARK    4  A    between atoms: C_10  and  C_13
REMARK    5  A    between atoms: N_18  and  C_19
REMARK    6  A    between atoms: C_19  and  C_20
REMARK    7  A    between atoms: C_26  and  C_27
REMARK                            x       y       z     vdW  Elec       q    Type
REMARK                         _______ _______ _______ _____ _____    ______ ____
ROOT
ATOM     13  C   UNL     1      -3.708   2.324  24.398  0.00  0.00    +0.159 C 
ATOM     14  O   UNL     1      -4.211   2.858  24.020  0.00  0.00    -0.341 OA
ATOM     15  C   UNL     1      -4.115   3.669  24.140  0.00  0.00    +0.227 C 
ATOM     16  C   UNL     1      -3.517   3.945  24.637  0.00  0.00    +0.256 C 
ATOM     17  O   UNL     1      -3.422   4.756  24.756  0.00  0.00    -0.272 OA
ATOM     18  N   UNL     1      -3.015   3.410  25.014  0.00  0.00    -0.270 N 
ATOM     26  C   UNL     1      -3.110   2.600  24.894  0.00  0.00    +0.140 C 
ENDROOT
BRANCH  13  10
ATOM      7  C   UNL     1      -3.995  -0.108  24.040  0.00  0.00    +0.073 A 
ATOM      8  C   UNL     1      -3.427   0.308  23.608  0.00  0.00    +0.016 A 
ATOM      9  C   UNL     1      -3.332   1.119  23.728  0.00  0.00    -0.001 A 
ATOM     10  C   UNL     1      -3.803   1.513  24.278  0.00  0.00    +0.006 A 
ATOM     11  C   UNL     1      -4.370   1.097  24.709  0.00  0.00    -0.001 A 
ATOM     12  C   UNL     1      -4.465   0.285  24.590  0.00  0.00    +0.016 A 
BRANCH   7   6
ATOM      4  C   UNL     1      -3.698  -1.456  24.408  0.00  0.00    +0.276 C 
ATOM      5  O   UNL     1      -3.212  -1.182  25.015  0.00  0.00    -0.270 OA
ATOM      6  N   UNL     1      -4.089  -0.919  23.920  0.00  0.00    -0.177 NA
BRANCH   4   3
ATOM      3  C   UNL     1      -3.792  -2.267  24.289  0.00  0.00    +0.229 C 
BRANCH   3   2
ATOM      1  C   UNL     1      -3.387  -3.604  24.591  0.00  0.00    +0.175 C 
ATOM      2  O   UNL     1      -3.420  -2.805  24.793  0.00  0.00    -0.342 OA
ENDBRANCH   3   2
ENDBRANCH   4   3
ENDBRANCH   7   6
ENDBRANCH  13  10
BRANCH  26  27
ATOM     27  C   UNL     1      -2.607   2.065  25.271  0.00  0.00    +0.205 C 
ATOM     28  O   UNL     1      -2.627   1.987  26.092  0.00  0.00    -0.218 OA
ENDBRANCH  26  27
BRANCH  18  19
ATOM     19  C   UNL     1      -2.417   3.687  25.510  0.00  0.00    +0.122 C 
BRANCH  19  20
ATOM     20  C   UNL     1      -1.756   4.065  25.190  0.00  0.00    +0.017 A 
ATOM     21  C   UNL     1      -1.669   4.881  25.273  0.00  0.00    +0.001 A 
ATOM     22  C   UNL     1      -1.008   5.260  24.953  0.00  0.00    +0.020 A 
ATOM     23  C   UNL     1      -0.436   4.822  24.551  0.00  0.00    +0.099 A 
ATOM     24  N   UNL     1      -0.525   4.005  24.469  0.00  0.00    -0.243 NA
ATOM     25  C   UNL     1      -1.184   3.627  24.788  0.00  0.00    +0.096 A 
ENDBRANCH  19  20
ENDBRANCH  18  19
TORSDOF 7
ENDMDL
MODEL 4
REMARK VINA RESULT:      -8.6      2.530      4.158
REMARK  Name = 
REMARK  7 active torsions:
REMARK  status: ('A' for Active; 'I' for Inactive)
REMARK    1  A    between atoms: O_2  and  C_3
REMARK    2  A    between atoms: C_3  and  C_4
REMARK    3  A    between atoms: N_6  and  C_7
REMARK    4  A    between atoms: C_10  and  C_13
REMARK    5  A    between atoms: N_18  and  C_19
REMARK    6  A    between atoms: C_19  and  C_20
REMARK    7  A    between atoms: C_26  and  C_27
REMARK                            x       y       z     vdW  Elec       q    Type
REMARK                         _______ _______ _______ _____ _____    ______ ____
ROOT
ATOM     13  C   UNL     1      -2.810   0.120  24.840  0.00  0.00    +0.159 C 
ATOM     14  O   UNL     1      -3.203  -0.370  25.375  0.00  0.00    -0.341 OA
ATOM     15  C   UNL     1      -3.991  -0.219  25.569  0.00  0.00    +0.227 C 
ATOM     16  C   UNL     1      -4.385   0.421  25.229  0.00  0.00    +0.256 C 
ATOM     17  O   UNL     1      -5.172   0.571  25.423  0.00  0.00    -0.272 OA
ATOM     18  N   UNL     1      -3.990   0.910  24.694  0.00  0.00    -0.270 N 
ATOM     26  C   UNL     1      -3.203   0.760  24.500  0.00  0.00    +0.140 C 
ENDROOT
BRANCH  13  10
ATOM      7  C   UNL     1      -0.447  -0.333  24.257  0.00  0.00    +0.073 A 
ATOM      8  C   UNL     1      -0.635   0.289  24.766  0.00  0.00    +0.016 A 
ATOM      9  C   UNL     1      -1.422   0.439  24.960  0.00  0.00    -0.001 A 
ATOM     10  C   UNL     1      -2.021  -0.031  24.646  0.00  0.00    +0.006 A 
ATOM     11  C   UNL     1      -1.835  -0.652  24.137  0.00  0.00    -0.001 A 
ATOM     12  C   UNL     1      -1.046  -0.803  23.942  0.00  0.00    +0.016 A 
BRANCH   7   6
ATOM      4  C   UNL     1       0.679  -0.117  23.406  0.00  0.00    +0.276 C 
ATOM      5  O   UNL     1       0.232   0.398  22.944  0.00  0.00    -0.270 OA
ATOM      6  N   UNL     1       0.340  -0.483  24.063  0.00  0.00    -0.177 NA
BRANCH   4   3
ATOM      3  C   UNL     1       1.468  -0.267  23.212  0.00  0.00    +0.229 C 
BRANCH   3   2
ATOM      1  C   UNL     1       2.640   0.109  22.486  0.00  0.00    +0.175 C 
ATOM      2  O   UNL     1       1.821   0.134  22.582  0.00  0.00    -0.342 OA
ENDBRANCH   3   2
ENDBRANCH   4   3
ENDBRANCH   7   6
ENDBRANCH  13  10
BRANCH  26  27
ATOM     27  C   UNL     1      -2.809   1.249  23.965  0.00  0.00    +0.205 C 
ATOM     28  O   UNL     1      -3.035   1.261  23.172  0.00  0.00    -0.218 OA
ENDBRANCH  26  27
BRANCH  18  19
ATOM     19  C   UNL     1      -4.384   1.550  24.353  0.00  0.00    +0.122 C 
BRANCH  19  20
ATOM     20  C   UNL     1      -4.582   2.206  24.814  0.00  0.00    +0.017 A 
ATOM     21  C   UNL     1      -5.371   2.354  25.003  0.00  0.00    +0.001 A 
ATOM     22  C   UNL     1      -5.569   3.010  25.464  0.00  0.00    +0.020 A 
ATOM     23  C   UNL     1      -4.977   3.517  25.735  0.00  0.00    +0.099 A 
ATOM     24  N   UNL     1      -4.188   3.368  25.546  0.00  0.00    -0.243 NA
ATOM     25  C   UNL     1      -3.990   2.713  25.085  0.00  0.00    +0.096 A 
ENDBRANCH  19  20
ENDBRANCH  18  19
TORSDOF 7
ENDMDL
MODEL 5
REMARK VINA RESULT:      -8.3      1.282      5.291
REMARK  Name = 
REMARK  7 active torsions:
REMARK  status: ('A' for Active; 'I' for Inactive)
REMARK    1  A    between atoms: O_2  and  C_3
REMARK    2  A    between atoms: C_3  and  C_4
REMARK    3  A    between atoms: N_6  and  C_7
REMARK    4  A    between atoms: C_10  and  C_13
REMARK    5  A    between atoms: N_18  and  C_19
REMARK    6  A    between atoms: C_19  and  C_20
REMARK    7  A    between atoms: C_26  and  C_27
REMARK                            x       y       z     vdW  Elec       q    Type
REMARK                         _______ _______ _______ _____ _____    ______ ____
ROOT
ATOM     13  C   UNL     1      -0.925   1.145  25.471  0.00  0.00    +0.159 C 
ATOM     14  O   UNL     1      -0.397   1.242  26.097  0.00  0.00    -0.341 OA
ATOM     15  C   UNL     1      -0.022   1.970  26.210  0.00  0.00    +0.227 C 
ATOM     16  C   UNL     1      -0.176   2.597  25.697  0.00  0.00    +0.256 C 
ATOM     17  O   UNL     1       0.198   3.323  25.811  0.00  0.00    -0.272 OA
ATOM     18  N   UNL     1      -0.705   2.498  25.072  0.00  0.00    -0.270 N 
ATOM     26  C   UNL     1      -1.079   1.773  24.958  0.00  0.00    +0.140 C 
ENDROOT
BRANCH  13  10
ATOM      7  C   UNL     1      -2.049  -1.035  25.131  0.00  0.00    +0.073 A 
ATOM      8  C   UNL     1      -1.309  -0.894  24.792  0.00  0.00    +0.016 A 
ATOM      9  C   UNL     1      -0.936  -0.168  24.906  0.00  0.00    -0.001 A 
ATOM     10  C   UNL     1      -1.300   0.418  25.357  0.00  0.00    +0.006 A 
ATOM     11  C   UNL     1      -2.039   0.278  25.696  0.00  0.00    -0.001 A 
ATOM     12  C   UNL     1      -2.413  -0.449  25.583  0.00  0.00    +0.016 A 
BRANCH   7   6
ATOM      4  C   UNL     1      -3.076  -1.814  24.516  0.00  0.00    +0.276 C 
ATOM      5  O   UNL     1      -3.354  -1.142  24.129  0.00  0.00    -0.270 OA
ATOM      6  N   UNL     1      -2.423  -1.761  25.018  0.00  0.00    -0.177 NA
BRANCH   4   3
ATOM      3  C   UNL     1      -3.450  -2.541  24.402  0.00  0.00    +0.229 C 
BRANCH   3   2
ATOM      1  C   UNL     1      -4.365  -3.309  23.618  0.00  0.00    +0.175 C 
ATOM      2  O   UNL     1      -4.132  -2.585  23.938  0.00  0.00    -0.342 OA
ENDBRANCH   3   2
ENDBRANCH   4   3
ENDBRANCH   7   6
ENDBRANCH  13  10
BRANCH  26  27
ATOM     27  C   UNL     1      -1.608   1.673  24.332  0.00  0.00    +0.205 C 
ATOM     28  O   UNL     1      -1.335   1.690  23.555  0.00  0.00    -0.218 OA
ENDBRANCH  26  27
BRANCH  18  19
ATOM     19  C   UNL     1      -0.859   3.126  24.559  0.00  0.00    +0.122 C 
BRANCH  19  20
ATOM     20  C   UNL     1      -1.272   3.788  24.829  0.00  0.00    +0.017 A 
ATOM     21  C   UNL     1      -0.909   4.529  24.828  0.00  0.00    +0.001 A 
ATOM     22  C   UNL     1      -1.322   5.191  25.098  0.00  0.00    +0.020 A 
ATOM     23  C   UNL     1      -2.097   5.111  25.369  0.00  0.00    +0.099 A 
ATOM     24  N   UNL     1      -2.459   4.370  25.370  0.00  0.00    -0.243 NA
ATOM     25  C   UNL     1      -2.047   3.709  25.100  0.00  0.00    +0.096 A 
ENDBRANCH  19  20
ENDBRANCH  18  19
TORSDOF 7
ENDMDL
MODEL 6
REMARK VINA RESULT:      -7.8      1.791      2.982
REMARK  Name = 
REMARK  7 active torsions:
REMARK  status: ('A' for Active; 'I' for Inactive)
REMARK    1  A    between atoms: O_2  and  C_3
REMARK    2  A    between atoms: C_3  and  C_4
REMARK    3  A    between atoms: N_6  and  C_7
REMARK    4  A    between atoms: C_10  and  C_13
REMARK    5  A    between atoms: N_18  and  C_19
REMARK    6  A    between atoms: C_19  and  C_20
REMARK    7  A    between atoms: C_26  and  C_27
REMARK                            x       y       z     vdW  Elec       q    Type
REMARK                         _______ _______ _______ _____ _____    ______ ____
ROOT
ATOM     13  C   UNL     1      -2.195   0.813  24.679  0.00  0.00    +0.159 C 
ATOM     14  O   UNL     1      -2.770   1.401  24.614  0.00  0.00    -0.341 OA
ATOM     15  C   UNL     1      -3.551   1.237  24.826  0.00  0.00    +0.227 C 
ATOM     16  C   UNL     1      -3.755   0.488  25.104  0.00  0.00    +0.256 C 
ATOM     17  O   UNL     1      -4.535   0.325  25.316  0.00  0.00    -0.272 OA
ATOM     18  N   UNL     1      -3.179  -0.099  25.168  0.00  0.00    -0.270 N 
ATOM     26  C   UNL     1      -2.399   0.064  24.956  0.00  0.00    +0.140 C 
ENDROOT
BRANCH  13  10
ATOM      7  C   UNL     1       0.147   1.302  24.041  0.00  0.00    +0.073 A 
ATOM      8  C   UNL     1      -0.097   1.399  24.824  0.00  0.00    +0.016 A 
ATOM      9  C   UNL     1      -0.877   1.236  25.036  0.00  0.00    -0.001 A 
ATOM     10  C   UNL     1      -1.413   0.977  24.466  0.00  0.00    +0.006 A 
ATOM     11  C   UNL     1      -1.171   0.880  23.684  0.00  0.00    -0.001 A 
ATOM     12  C   UNL     1      -0.390   1.043  23.471  0.00  0.00    +0.016 A 
BRANCH   7   6
ATOM      4  C   UNL     1       1.385   0.883  23.465  0.00  0.00    +0.276 C 
ATOM      5  O   UNL     1       1.063   0.140  23.314  0.00  0.00    -0.270 OA
ATOM      6  N   UNL     1       0.927   1.465  23.829  0.00  0.00    -0.177 NA
BRANCH   4   3
ATOM      3  C   UNL     1       2.166   1.046  23.253  0.00  0.00    +0.229 C 
BRANCH   3   2
ATOM      1  C   UNL     1       3.376   0.660  22.600  0.00  0.00    +0.175 C 
ATOM      2  O   UNL     1       2.603   0.488  22.830  0.00  0.00    -0.342 OA
ENDBRANCH   3   2
ENDBRANCH   4   3
ENDBRANCH   7   6
ENDBRANCH  13  10
BRANCH  26  27
ATOM     27  C   UNL     1      -1.822  -0.523  25.021  0.00  0.00    +0.205 C 
ATOM     28  O   UNL     1      -1.536  -0.741  25.763  0.00  0.00    -0.218 OA
ENDBRANCH  26  27
BRANCH  18  19
ATOM     19  C   UNL     1      -3.383  -0.849  25.446  0.00  0.00    +0.122 C 
BRANCH  19  20
ATOM     20  C   UNL     1      -3.658  -1.422  24.920  0.00  0.00    +0.017 A 
ATOM     21  C   UNL     1      -3.406  -2.204  24.994  0.00  0.00    +0.001 A 
ATOM     22  C   UNL     1      -3.682  -2.778  24.468  0.00  0.00    +0.020 A 
ATOM     23  C   UNL     1      -4.209  -2.569  23.869  0.00  0.00    +0.099 A 
ATOM     24  N   UNL     1      -4.461  -1.787  23.796  0.00  0.00    -0.243 NA
ATOM     25  C   UNL     1      -4.186  -1.214  24.320  0.00  0.00    +0.096 A 
ENDBRANCH  19  20
ENDBRANCH  18  19
TORSDOF 7
ENDMDL
MODEL 7
REMARK VINA RESULT:      -7.7      2.444      3.491
REMARK  Name = 
REMARK  7 active torsions:
REMARK  status: ('A' for Active; 'I' for Inactive)
REMARK    1  A    between atoms: O_2  and  C_3
REMARK    2  A    between atoms: C_3  and  C_4
REMARK    3  A    between atoms: N_6  and  C_7
REMARK    4  A    between atoms: C_10  and  C_13
REMARK    5  A    between atoms: N_18  and  C_19
REMARK    6  A    between atoms: C_19  and  C_20
REMARK    7  A    between atoms: C_26  and  C_27
REMARK                            x       y       z     vdW  Elec       q    Type
REMARK                         _______ _______ _______ _____ _____    ______ ____
ROOT
ATOM     13  C   UNL     1      -3.099  -0.309  24.599  0.00  0.00    +0.159 C 
ATOM     14  O   UNL     1      -3.307  -1.055  24.314  0.00  0.00    -0.341 OA
ATOM     15  C   UNL     1      -2.730  -1.640  24.231  0.00  0.00    +0.227 C 
ATOM     16  C   UNL     1      -1.946  -1.478  24.433  0.00  0.00    +0.256 C 
ATOM     17  O   UNL     1      -1.370  -2.062  24.351  0.00  0.00    -0.272 OA
ATOM     18  N   UNL     1      -1.740  -0.731  24.718  0.00  0.00    -0.270 N 
ATOM     26  C   UNL     1      -2.316  -0.147  24.801  0.00  0.00    +0.140 C 
ENDROOT
BRANCH  13  10
ATOM      7  C   UNL     1      -4.830   1.443  24.848  0.00  0.00    +0.073 A 
ATOM      8  C   UNL     1      -4.292   1.480  24.223  0.00  0.00    +0.016 A 
ATOM      9  C   UNL     1      -3.716   0.895  24.141  0.00  0.00    -0.001 A 
ATOM     10  C   UNL     1      -3.677   0.275  24.682  0.00  0.00    +0.006 A 
ATOM     11  C   UNL     1      -4.214   0.238  25.306  0.00  0.00    -0.001 A 
ATOM     12  C   UNL     1      -4.791   0.822  25.389  0.00  0.00    +0.016 A 
BRANCH   7   6
ATOM      4  C   UNL     1      -5.242   2.709  25.364  0.00  0.00    +0.276 C 
ATOM      5  O   UNL     1      -4.502   2.807  25.714  0.00  0.00    -0.270 OA
ATOM      6  N   UNL     1      -5.407   2.027  24.930  0.00  0.00    -0.177 NA
BRANCH   4   3
ATOM      3  C   UNL     1      -5.818   3.294  25.446  0.00  0.00    +0.229 C 
BRANCH   3   2
ATOM      1  C   UNL     1      -6.118   4.681  25.614  0.00  0.00    +0.175 C 
ATOM      2  O   UNL     1      -5.610   4.042  25.729  0.00  0.00    -0.342 OA
ENDBRANCH   3   2
ENDBRANCH   4   3
ENDBRANCH   7   6
ENDBRANCH  13  10
BRANCH  26  27
ATOM     27  C   UNL     1      -2.110   0.599  25.086  0.00  0.00    +0.205 C 
ATOM     28  O   UNL     1      -1.875   0.691  25.870  0.00  0.00    -0.218 OA
ENDBRANCH  26  27
BRANCH  18  19
ATOM     19  C   UNL     1      -0.957  -0.569  24.920  0.00  0.00    +0.122 C 
BRANCH  19  20
ATOM     20  C   UNL     1      -0.406  -0.396  24.330  0.00  0.00    +0.017 A 
ATOM     21  C   UNL     1      -0.317   0.380  24.065  0.00  0.00    +0.001 A 
ATOM     22  C   UNL     1       0.234   0.553  23.475  0.00  0.00    +0.020 A 
ATOM     23  C   UNL     1       0.696  -0.049  23.152  0.00  0.00    +0.099 A 
ATOM     24  N   UNL     1       0.606  -0.825  23.418  0.00  0.00    -0.243 NA
ATOM     25  C   UNL     1       0.056  -0.999  24.007  0.00  0.00    +0.096 A 
ENDBRANCH  19  20
ENDBRANCH  18  19
TORSDOF 7
ENDMDL
MODEL 8
REMARK VINA RESULT:      -7.6      2.050      2.376
REMARK  Name = 
REMARK  7 active torsions:
REMARK  status: ('A' for Active; 'I' for Inactive)
REMARK    1  A    between atoms: O_2  and  C_3
REMARK    2  A    between atoms: C_3  and  C_4
REMARK    3  A    between atoms: N_6  and  C_7
REMARK    4  A    between atoms: C_10  and  C_13
REMARK    5  A    between atoms: N_18  and  C_19
REMARK    6  A    between atoms: C_19  and  C_20
REMARK    7  A    between atoms: C_26  and  C_27
REMARK                            x       y       z     vdW  Elec       q    Type
REMARK                         _______ _______ _______ _____ _____    ______ ____
ROOT
ATOM     13  C   UNL     1      -1.696   0.926  24.370  0.00  0.00    +0.159 C 
ATOM     14  O   UNL     1      -1.046   0.965  23.865  0.00  0.00    -0.341 OA
ATOM     15  C   UNL     1      -0.533   0.321  23.802  0.00  0.00    +0.227 C 
ATOM     16  C   UNL     1      -0.671  -0.361  24.244  0.00  0.00    +0.256 C 
ATOM     17  O   UNL     1      -0.159  -1.004  24.181  0.00  0.00    -0.272 OA
ATOM     18  N   UNL     1      -1.323  -0.399  24.749  0.00  0.00    -0.270 N 
ATOM     26  C   UNL     1      -1.835   0.243  24.813  0.00  0.00    +0.140 C 
ENDROOT
BRANCH  13  10
ATOM      7  C   UNL     1      -3.234   2.856  24.559  0.00  0.00    +0.073 A 
ATOM      8  C   UNL     1      -2.552   2.825  25.024  0.00  0.00    +0.016 A 
ATOM      9  C   UNL     1      -2.040   2.181  24.960  0.00  0.00    -0.001 A 
ATOM     10  C   UNL     1      -2.209   1.570  24.433  0.00  0.00    +0.006 A 
ATOM     11  C   UNL     1      -2.890   1.601  23.969  0.00  0.00    -0.001 A 
ATOM     12  C   UNL     1      -3.403   2.246  24.032  0.00  0.00    +0.016 A 
BRANCH   7   6
ATOM      4  C   UNL     1      -4.372   3.476  25.158  0.00  0.00    +0.276 C 
ATOM      5  O   UNL     1      -4.486   2.810  25.630  0.00  0.00    -0.270 OA
ATOM      6  N   UNL     1      -3.746   3.500  24.622  0.00  0.00    -0.177 NA
BRANCH   4   3
ATOM      3  C   UNL     1      -4.885   4.120  25.222  0.00  0.00    +0.229 C 
BRANCH   3   2
ATOM      1  C   UNL     1      -6.140   4.661  25.639  0.00  0.00    +0.175 C 
ATOM      2  O   UNL     1      -5.591   4.045  25.644  0.00  0.00    -0.342 OA
ENDBRANCH   3   2
ENDBRANCH   4   3
ENDBRANCH   7   6
ENDBRANCH  13  10
BRANCH  26  27
ATOM     27  C   UNL     1      -2.486   0.205  25.318  0.00  0.00    +0.205 C 
ATOM     28  O   UNL     1      -2.374   0.191  26.135  0.00  0.00    -0.218 OA
ENDBRANCH  26  27
BRANCH  18  19
ATOM     19  C   UNL     1      -1.461  -1.082  25.192  0.00  0.00    +0.122 C 
BRANCH  19  20
ATOM     20  C   UNL     1      -1.840  -1.729  24.846  0.00  0.00    +0.017 A 
ATOM     21  C   UNL     1      -2.658  -1.812  24.915  0.00  0.00    +0.001 A 
ATOM     22  C   UNL     1      -3.037  -2.458  24.569  0.00  0.00    +0.020 A 
ATOM     23  C   UNL     1      -2.599  -3.021  24.154  0.00  0.00    +0.099 A 
ATOM     24  N   UNL     1      -1.781  -2.936  24.085  0.00  0.00    -0.243 NA
ATOM     25  C   UNL     1      -1.402  -2.291  24.431  0.00  0.00    +0.096 A 
ENDBRANCH  19  20
ENDBRANCH  18  19
TORSDOF 7
ENDMDL
MODEL 9
REMARK VINA RESULT:      -7.5      1.599      2.293
REMARK  Name = 
REMARK  7 active torsions:
REMARK  status: ('A' for Active; 'I' for Inactive)
REMARK    1  A    between atoms: O_2  and  C_3
REMARK    2  A    between atoms: C_3  and  C_4
REMARK    3  A    between atoms: N_6  and  C_7
REMARK    4  A    between atoms: C_10  and  C_13
REMARK    5  A    between atoms: N_18  and  C_19
REMARK    6  A    between atoms: C_19  and  C_20
REMARK    7  A    between atoms: C_26  and  C_27
REMARK                            x       y       z     vdW  Elec       q    Type
REMARK                         _______ _______ _______ _____ _____    ______ ____
ROOT
ATOM     13  C   UNL     1      -3.765   0.475  24.389  0.00  0.00    +0.159 C 
ATOM     14  O   UNL     1      -4.389   0.230  23.908  0.00  0.00    -0.341 OA
ATOM     15  C   UNL     1      -4.586  -0.570  23.864  0.00  0.00    +0.227 C 
ATOM     16  C   UNL     1      -4.159  -1.125  24.300  0.00  0.00    +0.256 C 
ATOM     17  O   UNL     1      -4.356  -1.924  24.256  0.00  0.00    -0.272 OA
ATOM     18  N   UNL     1      -3.535  -0.879  24.781  0.00  0.00    -0.270 N 
ATOM     26  C   UNL     1      -3.338  -0.080  24.825  0.00  0.00    +0.140 C 
ENDROOT
BRANCH  13  10
ATOM      7  C   UNL     1      -3.176   2.875  24.522  0.00  0.00    +0.073 A 
ATOM      8  C   UNL     1      -2.781   2.382  23.990  0.00  0.00    +0.016 A 
ATOM      9  C   UNL     1      -2.978   1.583  23.946  0.00  0.00    -0.001 A 
ATOM     10  C   UNL     1      -3.568   1.276  24.433  0.00  0.00    +0.006 A 
ATOM     11  C   UNL     1      -3.963   1.768  24.964  0.00  0.00    -0.001 A 
ATOM     12  C   UNL     1      -3.766   2.569  25.008  0.00  0.00    +0.016 A 
BRANCH   7   6
ATOM      4  C   UNL     1      -2.365   3.921  25.058  0.00  0.00    +0.276 C 
ATOM      5  O   UNL     1      -1.949   3.369  25.506  0.00  0.00    -0.270 OA
ATOM      6  N   UNL     1      -2.979   3.675  24.566  0.00  0.00    -0.177 NA
BRANCH   4   3
ATOM      3  C   UNL     1      -2.167   4.722  25.102  0.00  0.00    +0.229 C 
BRANCH   3   2
ATOM      1  C   UNL     1      -1.076   5.632  24.952  0.00  0.00    +0.175 C 
ATOM      2  O   UNL     1      -1.394   4.946  25.283  0.00  0.00    -0.342 OA
ENDBRANCH   3   2
ENDBRANCH   4   3
ENDBRANCH   7   6
ENDBRANCH  13  10
BRANCH  26  27
ATOM     27  C   UNL     1      -2.714   0.167  25.306  0.00  0.00    +0.205 C 
ATOM     28  O   UNL     1      -2.765   0.082  26.125  0.00  0.00    -0.218 OA
ENDBRANCH  26  27
BRANCH  18  19
ATOM     19  C   UNL     1      -3.108  -1.433  25.218  0.00  0.00    +0.122 C 
BRANCH  19  20
ATOM     20  C   UNL     1      -2.545  -1.908  24.844  0.00  0.00    +0.017 A 
ATOM     21  C   UNL     1      -2.749  -2.667  24.593  0.00  0.00    +0.001 A 
ATOM     22  C   UNL     1      -2.186  -3.142  24.219  0.00  0.00    +0.020 A 
ATOM     23  C   UNL     1      -1.421  -2.858  24.098  0.00  0.00    +0.099 A 
ATOM     24  N   UNL     1      -1.219  -2.099  24.350  0.00  0.00    -0.243 NA
ATOM     25  C   UNL     1      -1.780  -1.624  24.723  0.00  0.00    +0.096 A 
ENDBRANCH  19  20
ENDBRANCH  18  19
TORSDOF 7
ENDMDL
