MODEL 1
REMARK VINA RESULT:      -9.7      0.000      0.000
REMARK  Name = 
REMARK  6 active torsions:
REMARK  status: ('A' for Active; 'I' for Inactive)
REMARK    1  A    between atoms: C_2  and  C_4
REMARK    2  A    between atoms: C_6  and  C_7
REMARK    3  A    between atoms: C_7  and  C_8
REMARK    4  A    between atoms: C_17  and  C_18
REMARK    5  A    between atoms: C_18  and  N_19
REMARK    6  A    between atoms: N_19  and  C_20
REMARK                            x       y       z     vdW  Elec       q    Type
REMARK                         _______ _______ _______ _____ _____    ______ ____
ROOT
ATOM      4  C   UNL     1      -2.818   1.383  23.794  0.00  0.00    +0.006 C 
ATOM      5  C   UNL     1      -3.601   1.264  24.025  0.00  0.00    +0.005 C 
ATOM      6  C   UNL     1      -3.787   0.656  24.551  0.00  0.00    +0.027 C 
ATOM     14  C   UNL     1      -3.192   0.167  24.845  0.00  0.00    -0.048 C 
ATOM     15  C   UNL     1      -3.379  -0.441  25.371  0.00  0.00    +0.026 C 
ATOM     16  C   UNL     1      -2.408   0.287  24.614  0.00  0.00    -0.033 C 
ATOM     17  C   UNL     1      -2.222   0.894  24.089  0.00  0.00    +0.043 C 
ENDROOT
BRANCH   4   2
ATOM      1  C   UNL     1      -2.430   2.738  23.557  0.00  0.00    +0.000 C 
ATOM      2  C   UNL     1      -2.631   1.991  23.269  0.00  0.00    +0.000 C 
ATOM      3  C   UNL     1      -2.645   1.853  22.456  0.00  0.00    +0.000 C 
ENDBRANCH   4   2
BRANCH   6   7
ATOM      7  C   UNL     1      -4.571   0.536  24.782  0.00  0.00    +0.091 C 
BRANCH   7   8
ATOM      8  C   UNL     1      -5.051   1.182  24.964  0.00  0.00    +0.226 A 
ATOM      9  N   UNL     1      -5.674   1.468  24.506  0.00  0.00    -0.112 NA
ATOM     10  N   UNL     1      -5.999   2.118  24.895  0.00  0.00    -0.112 NA
ATOM     11  C   UNL     1      -5.577   2.235  25.594  0.00  0.00    +0.227 A 
ATOM     12  C   UNL     1      -5.717   2.827  26.152  0.00  0.00    +0.097 C 
ATOM     13  O   UNL     1      -4.990   1.657  25.637  0.00  0.00    -0.423 OA
ENDBRANCH   7   8
ENDBRANCH   6   7
BRANCH  17  18
ATOM     18  C   UNL     1      -1.439   1.013  23.858  0.00  0.00    +0.117 C 
BRANCH  18  19
ATOM     19  N   UNL     1      -0.839   0.546  24.176  0.00  0.00    -0.236 NA
BRANCH  19  20
ATOM     20  C   UNL     1      -0.054   0.675  23.957  0.00  0.00    +0.085 A 
ATOM     21  C   UNL     1       0.361   1.316  24.267  0.00  0.00    +0.116 A 
ATOM     22  N   UNL     1       1.145   1.446  24.048  0.00  0.00    -0.226 NA
ATOM     23  C   UNL     1       1.515   0.933  23.518  0.00  0.00    +0.155 A 
ATOM     24  N   UNL     1       2.300   1.062  23.298  0.00  0.00    -0.160 NA
ATOM     25  C   UNL     1       2.670   0.550  22.768  0.00  0.00    +0.247 C 
ATOM     26  C   UNL     1       3.454   0.679  22.549  0.00  0.00    +0.097 C 
ATOM     27  O   UNL     1       2.254  -0.092  22.457  0.00  0.00    -0.273 OA
ATOM     28  C   UNL     1       1.101   0.291  23.207  0.00  0.00    +0.038 A 
ATOM     29  C   UNL     1       0.315   0.162  23.426  0.00  0.00    +0.021 A 
ENDBRANCH  19  20
ENDBRANCH  18  19
ENDBRANCH  17  18
TORSDOF 6
ENDMDL
MODEL 2
REMARK VINA RESULT:      -9.1      1.252      1.752
REMARK  Name = 
REMARK  6 active torsions:
REMARK  status: ('A' for Active; 'I' for Inactive)
REMARK    1  A    between atoms: C_2  and  C_4
REMARK    2  A    between atoms: C_6  and  C_7
REMARK    3  A    between atoms: C_7  and  C_8
REMARK    4  A    between atoms: C_17  and  C_18
REMARK    5  A    between atoms: C_18  and  N_19
REMARK    6  A    between atoms: N_19  and  C_20
REMARK                            x       y       z     vdW  Elec       q    Type
REMARK                         _______ _______ _______ _____ _____    ______ ____
ROOT
ATOM      4  C   UNL     1      -2.609   2.229  23.878  0.00  0.00    +0.006 C 
ATOM      5  C   UNL     1      -3.133   2.754  24.237  0.00  0.00    +0.005 C 
ATOM      6  C   UNL     1      -2.916   3.143  24.932  0.00  0.00    +0.027 C 
ATOM     14  C   UNL     1      -2.175   3.008  25.267  0.00  0.00    -0.048 C 
ATOM     15  C   UNL     1      -1.958   3.397  25.961  0.00  0.00    +0.026 C 
ATOM     16  C   UNL     1      -1.650   2.482  24.907  0.00  0.00    -0.033 C 
ATOM     17  C   UNL     1      -1.867   2.092  24.213  0.00  0.00    +0.043 C 
ENDROOT
BRANCH   4   2
ATOM      1  C   UNL     1      -2.660   2.179  22.451  0.00  0.00    +0.000 C 
ATOM      2  C   UNL     1      -2.826   1.839  23.184  0.00  0.00    +0.000 C 
ATOM      3  C   UNL     1      -3.209   1.110  23.223  0.00  0.00    +0.000 C 
ENDBRANCH   4   2
BRANCH   6   7
ATOM      7  C   UNL     1      -3.441   3.669  25.291  0.00  0.00    +0.091 C 
BRANCH   7   8
ATOM      8  C   UNL     1      -4.237   3.469  25.369  0.00  0.00    +0.226 A 
ATOM      9  N   UNL     1      -4.870   3.839  24.991  0.00  0.00    -0.112 NA
ATOM     10  N   UNL     1      -5.564   3.462  25.227  0.00  0.00    -0.112 NA
ATOM     11  C   UNL     1      -5.361   2.858  25.751  0.00  0.00    +0.227 A 
ATOM     12  C   UNL     1      -5.887   2.341  26.122  0.00  0.00    +0.097 C 
ATOM     13  O   UNL     1      -4.541   2.862  25.839  0.00  0.00    -0.423 OA
ENDBRANCH   7   8
ENDBRANCH   6   7
BRANCH  17  18
ATOM     18  C   UNL     1      -1.342   1.567  23.854  0.00  0.00    +0.117 C 
BRANCH  18  19
ATOM     19  N   UNL     1      -0.733   1.226  24.293  0.00  0.00    -0.236 NA
BRANCH  19  20
ATOM     20  C   UNL     1      -0.072   0.915  23.911  0.00  0.00    +0.085 A 
ATOM     21  C   UNL     1      -0.114   0.174  23.550  0.00  0.00    +0.116 A 
ATOM     22  N   UNL     1       0.546  -0.137  23.168  0.00  0.00    -0.226 NA
ATOM     23  C   UNL     1       1.251   0.292  23.146  0.00  0.00    +0.155 A 
ATOM     24  N   UNL     1       1.912  -0.020  22.763  0.00  0.00    -0.160 NA
ATOM     25  C   UNL     1       2.617   0.410  22.741  0.00  0.00    +0.247 C 
ATOM     26  C   UNL     1       3.277   0.098  22.359  0.00  0.00    +0.097 C 
ATOM     27  O   UNL     1       2.659   1.151  23.102  0.00  0.00    -0.273 OA
ATOM     28  C   UNL     1       1.294   1.033  23.506  0.00  0.00    +0.038 A 
ATOM     29  C   UNL     1       0.632   1.344  23.889  0.00  0.00    +0.021 A 
ENDBRANCH  19  20
ENDBRANCH  18  19
ENDBRANCH  17  18
TORSDOF 6
ENDMDL
MODEL 3
REMARK VINA RESULT:      -9.0      2.952      4.648
REMARK  Name = 
REMARK  6 active torsions:
REMARK  status: ('A' for Active; 'I' for Inactive)
REMARK    1  A    between atoms: C_2  and  C_4
REMARK    2  A    between atoms: C_6  and  C_7
REMARK    3  A    between atoms: C_7  and  C_8
REMARK    4  A    between atoms: C_17  and  C_18
REMARK    5  A    between atoms: C_18  and  N_19
REMARK    6  A    between atoms: N_19  and  C_20
REMARK                            x       y       z     vdW  Elec       q    Type
REMARK                         _______ _______ _______ _____ _____    ______ ____
ROOT
ATOM      4  C   UNL     1      -3.078   2.319  23.955  0.00  0.00    +0.006 C 
ATOM      5  C   UNL     1      -2.977   3.117  24.139  0.00  0.00    +0.005 C 
ATOM      6  C   UNL     1      -3.454   3.471  24.712  0.00  0.00    +0.027 C 
ATOM     14  C   UNL     1      -4.032   3.028  25.099  0.00  0.00    -0.048 C 
ATOM     15  C   UNL     1      -4.508   3.383  25.672  0.00  0.00    +0.026 C 
ATOM     16  C   UNL     1      -4.133   2.230  24.914  0.00  0.00    -0.033 C 
ATOM     17  C   UNL     1      -3.656   1.876  24.342  0.00  0.00    +0.043 C 
ENDROOT
BRANCH   4   2
ATOM      1  C   UNL     1      -2.848   1.943  22.595  0.00  0.00    +0.000 C 
ATOM      2  C   UNL     1      -2.601   1.965  23.382  0.00  0.00    +0.000 C 
ATOM      3  C   UNL     1      -1.877   1.632  23.596  0.00  0.00    +0.000 C 
ENDBRANCH   4   2
BRANCH   6   7
ATOM      7  C   UNL     1      -3.352   4.269  24.897  0.00  0.00    +0.091 C 
BRANCH   7   8
ATOM      8  C   UNL     1      -2.603   4.557  25.087  0.00  0.00    +0.226 A 
ATOM      9  N   UNL     1      -2.218   4.466  25.811  0.00  0.00    -0.112 NA
ATOM     10  N   UNL     1      -1.485   4.839  25.758  0.00  0.00    -0.112 NA
ATOM     11  C   UNL     1      -1.416   5.161  25.002  0.00  0.00    +0.227 A 
ATOM     12  C   UNL     1      -0.769   5.583  24.711  0.00  0.00    +0.097 C 
ATOM     13  O   UNL     1      -2.107   4.987  24.587  0.00  0.00    -0.423 OA
ENDBRANCH   7   8
ENDBRANCH   6   7
BRANCH  17  18
ATOM     18  C   UNL     1      -3.757   1.079  24.157  0.00  0.00    +0.117 C 
BRANCH  18  19
ATOM     19  N   UNL     1      -4.233   0.601  24.633  0.00  0.00    -0.236 NA
BRANCH  19  20
ATOM     20  C   UNL     1      -4.074  -0.205  24.699  0.00  0.00    +0.085 A 
ATOM     21  C   UNL     1      -3.743  -0.506  25.393  0.00  0.00    +0.116 A 
ATOM     22  N   UNL     1      -3.584  -1.312  25.459  0.00  0.00    -0.226 NA
ATOM     23  C   UNL     1      -3.757  -1.819  24.831  0.00  0.00    +0.155 A 
ATOM     24  N   UNL     1      -3.598  -2.627  24.897  0.00  0.00    -0.160 NA
ATOM     25  C   UNL     1      -3.771  -3.133  24.269  0.00  0.00    +0.247 C 
ATOM     26  C   UNL     1      -3.613  -3.940  24.335  0.00  0.00    +0.097 C 
ATOM     27  O   UNL     1      -4.103  -2.833  23.576  0.00  0.00    -0.273 OA
ATOM     28  C   UNL     1      -4.088  -1.520  24.138  0.00  0.00    +0.038 A 
ATOM     29  C   UNL     1      -4.247  -0.712  24.072  0.00  0.00    +0.021 A 
ENDBRANCH  19  20
ENDBRANCH  18  19
ENDBRANCH  17  18
TORSDOF 6
ENDMDL
MODEL 4
REMARK VINA RESULT:      -8.7      2.849      4.038
REMARK  Name = 
REMARK  6 active torsions:
REMARK  status: ('A' for Active; 'I' for Inactive)
REMARK    1  A    between atoms: C_2  and  C_4
REMARK    2  A    between atoms: C_6  and  C_7
REMARK    3  A    between atoms: C_7  and  C_8
REMARK    4  A    between atoms: C_17  and  C_18
REMARK    5  A    between atoms: C_18  and  N_19
REMARK    6  A    between atoms: N_19  and  C_20
REMARK                            x       y       z     vdW  Elec       q    Type
REMARK                         _______ _______ _______ _____ _____    ______ ____
ROOT
ATOM      4  C   UNL     1      -3.173   0.245  24.849  0.00  0.00    +0.006 C 
ATOM      5  C   UNL     1      -3.370  -0.542  24.992  0.00  0.00    +0.005 C 
ATOM      6  C   UNL     1      -2.857  -1.024  25.422  0.00  0.00    +0.027 C 
ATOM     14  C   UNL     1      -2.148  -0.718  25.711  0.00  0.00    -0.048 C 
ATOM     15  C   UNL     1      -1.635  -1.200  26.141  0.00  0.00    +0.026 C 
ATOM     16  C   UNL     1      -1.951   0.071  25.568  0.00  0.00    -0.033 C 
ATOM     17  C   UNL     1      -2.464   0.553  25.137  0.00  0.00    +0.043 C 
ENDROOT
BRANCH   4   2
ATOM      1  C   UNL     1      -4.315   1.104  24.798  0.00  0.00    +0.000 C 
ATOM      2  C   UNL     1      -3.686   0.727  24.419  0.00  0.00    +0.000 C 
ATOM      3  C   UNL     1      -3.571   0.833  23.609  0.00  0.00    +0.000 C 
ENDBRANCH   4   2
BRANCH   6   7
ATOM      7  C   UNL     1      -3.054  -1.813  25.565  0.00  0.00    +0.091 C 
BRANCH   7   8
ATOM      8  C   UNL     1      -3.254  -2.309  24.936  0.00  0.00    +0.226 A 
ATOM      9  N   UNL     1      -2.732  -2.776  24.502  0.00  0.00    -0.112 NA
ATOM     10  N   UNL     1      -3.167  -3.179  23.929  0.00  0.00    -0.112 NA
ATOM     11  C   UNL     1      -3.958  -2.962  24.010  0.00  0.00    +0.227 A 
ATOM     12  C   UNL     1      -4.586  -3.235  23.549  0.00  0.00    +0.097 C 
ATOM     13  O   UNL     1      -4.013  -2.424  24.632  0.00  0.00    -0.423 OA
ENDBRANCH   7   8
ENDBRANCH   6   7
BRANCH  17  18
ATOM     18  C   UNL     1      -2.267   1.341  24.995  0.00  0.00    +0.117 C 
BRANCH  18  19
ATOM     19  N   UNL     1      -1.575   1.658  25.313  0.00  0.00    -0.236 NA
BRANCH  19  20
ATOM     20  C   UNL     1      -1.359   2.435  25.141  0.00  0.00    +0.085 A 
ATOM     21  C   UNL     1      -0.734   2.585  24.624  0.00  0.00    +0.116 A 
ATOM     22  N   UNL     1      -0.519   3.362  24.452  0.00  0.00    -0.226 NA
ATOM     23  C   UNL     1      -0.929   3.990  24.797  0.00  0.00    +0.155 A 
ATOM     24  N   UNL     1      -0.713   4.768  24.625  0.00  0.00    -0.160 NA
ATOM     25  C   UNL     1      -1.123   5.396  24.969  0.00  0.00    +0.247 C 
ATOM     26  C   UNL     1      -0.908   6.173  24.797  0.00  0.00    +0.097 C 
ATOM     27  O   UNL     1      -1.749   5.245  25.486  0.00  0.00    -0.273 OA
ATOM     28  C   UNL     1      -1.554   3.840  25.313  0.00  0.00    +0.038 A 
ATOM     29  C   UNL     1      -1.770   3.062  25.486  0.00  0.00    +0.021 A 
ENDBRANCH  19  20
ENDBRANCH  18  19
ENDBRANCH  17  18
TORSDOF 6
ENDMDL
MODEL 5
REMARK VINA RESULT:      -8.3      3.020      4.467
REMARK  Name = 
REMARK  6 active torsions:
REMARK  status: ('A' for Active; 'I' for Inactive)
REMARK    1  A    between atoms: C_2  and  C_4
REMARK    2  A    between atoms: C_6  and  C_7
REMARK    3  A    between atoms: C_7  and  C_8
REMARK    4  A    between atoms: C_17  and  C_18
REMARK    5  A    between atoms: C_18  and  N_19
REMARK    6  A    between atoms: N_19  and  C_20
REMARK                            x       y       z     vdW  Elec       q    Type
REMARK                         _______ _______ _______ _____ _____    ______ ____
ROOT
ATOM      4  C   UNL     1      -1.256   2.100  24.236  0.00  0.00    +0.006 C 
ATOM      5  C   UNL     1      -0.974   2.849  24.433  0.00  0.00    +0.005 C 
ATOM      6  C   UNL     1      -0.579   2.967  25.148  0.00  0.00    +0.027 C 
ATOM     14  C   UNL     1      -0.465   2.335  25.666  0.00  0.00    -0.048 C 
ATOM     15  C   UNL     1      -0.070   2.452  26.380  0.00  0.00    +0.026 C 
ATOM     16  C   UNL     1      -0.747   1.584  25.468  0.00  0.00    -0.033 C 
ATOM     17  C   UNL     1      -1.142   1.467  24.754  0.00  0.00    +0.043 C 
ENDROOT
BRANCH   4   2
ATOM      1  C   UNL     1      -2.468   2.089  23.480  0.00  0.00    +0.000 C 
ATOM      2  C   UNL     1      -1.651   1.982  23.522  0.00  0.00    +0.000 C 
ATOM      3  C   UNL     1      -1.230   1.758  22.849  0.00  0.00    +0.000 C 
ENDBRANCH   4   2
BRANCH   6   7
ATOM      7  C   UNL     1      -0.297   3.717  25.345  0.00  0.00    +0.091 C 
BRANCH   7   8
ATOM      8  C   UNL     1      -0.770   4.382  25.221  0.00  0.00    +0.226 A 
ATOM      9  N   UNL     1      -0.590   5.021  24.732  0.00  0.00    -0.112 NA
ATOM     10  N   UNL     1      -1.214   5.557  24.773  0.00  0.00    -0.112 NA
ATOM     11  C   UNL     1      -1.781   5.250  25.288  0.00  0.00    +0.227 A 
ATOM     12  C   UNL     1      -2.497   5.607  25.490  0.00  0.00    +0.097 C 
ATOM     13  O   UNL     1      -1.507   4.523  25.565  0.00  0.00    -0.423 OA
ENDBRANCH   7   8
ENDBRANCH   6   7
BRANCH  17  18
ATOM     18  C   UNL     1      -1.424   0.717  24.557  0.00  0.00    +0.117 C 
BRANCH  18  19
ATOM     19  N   UNL     1      -1.350   0.094  25.093  0.00  0.00    -0.236 NA
BRANCH  19  20
ATOM     20  C   UNL     1      -1.686  -0.639  24.923  0.00  0.00    +0.085 A 
ATOM     21  C   UNL     1      -1.208  -1.265  24.676  0.00  0.00    +0.116 A 
ATOM     22  N   UNL     1      -1.544  -1.998  24.505  0.00  0.00    -0.226 NA
ATOM     23  C   UNL     1      -2.358  -2.107  24.581  0.00  0.00    +0.155 A 
ATOM     24  N   UNL     1      -2.694  -2.841  24.410  0.00  0.00    -0.160 NA
ATOM     25  C   UNL     1      -3.509  -2.950  24.486  0.00  0.00    +0.247 C 
ATOM     26  C   UNL     1      -3.844  -3.683  24.316  0.00  0.00    +0.097 C 
ATOM     27  O   UNL     1      -3.987  -2.324  24.733  0.00  0.00    -0.273 OA
ATOM     28  C   UNL     1      -2.837  -1.482  24.828  0.00  0.00    +0.038 A 
ATOM     29  C   UNL     1      -2.500  -0.748  24.998  0.00  0.00    +0.021 A 
ENDBRANCH  19  20
ENDBRANCH  18  19
ENDBRANCH  17  18
TORSDOF 6
ENDMDL
