MODEL 1
REMARK VINA RESULT:     -11.6      0.000      0.000
REMARK  Name = 
REMARK  4 active torsions:
REMARK  status: ('A' for Active; 'I' for Inactive)
REMARK    1  A    between atoms: O_2  and  C_3
REMARK    2  A    between atoms: C_6  and  C_9
REMARK    3  A    between atoms: C_12  and  C_14
REMARK    4  A    between atoms: N_18  and  C_19
REMARK                            x       y       z     vdW  Elec       q    Type
REMARK                         _______ _______ _______ _____ _____    ______ ____
ROOT
ATOM     14  C   UNL     1      -4.641   2.490  25.030  0.00  0.00    +0.138 C 
ATOM     15  C   UNL     1      -5.429   2.674  25.188  0.00  0.00    +0.027 C 
ATOM     16  C   UNL     1      -5.453   3.434  25.509  0.00  0.00    +0.019 C 
ATOM     17  C   UNL     1      -4.680   3.718  25.550  0.00  0.00    +0.072 C 
ATOM     18  N   UNL     1      -4.178   3.136  25.254  0.00  0.00    -0.268 NA
ENDROOT
BRANCH  18  19
ATOM     19  C   UNL     1      -3.357   3.187  25.192  0.00  0.00    +0.061 C 
ATOM     20  C   UNL     1      -2.882   2.981  25.835  0.00  0.00    +0.038 C 
ATOM     21  C   UNL     1      -2.060   3.032  25.773  0.00  0.00    +0.095 C 
ATOM     22  N   UNL     1      -1.714   3.289  25.070  0.00  0.00    -0.279 N 
ATOM     23  C   UNL     1      -2.189   3.495  24.428  0.00  0.00    +0.095 C 
ATOM     24  C   UNL     1      -3.011   3.444  24.489  0.00  0.00    +0.038 C 
ATOM     25  C   UNL     1      -0.894   3.341  25.009  0.00  0.00    +0.226 C 
ATOM     26  C   UNL     1      -0.418   3.135  25.651  0.00  0.00    +0.095 C 
ATOM     27  O   UNL     1      -0.547   3.598  24.305  0.00  0.00    -0.275 OA
ENDBRANCH  18  19
BRANCH  14  12
ATOM      9  C   UNL     1      -4.015   0.504  24.558  0.00  0.00    +0.205 A 
ATOM     10  N   UNL     1      -3.855   0.895  23.850  0.00  0.00    -0.056 NA
ATOM     11  O   UNL     1      -4.070   1.685  23.940  0.00  0.00    -0.336 OA
ATOM     12  C   UNL     1      -4.363   1.784  24.705  0.00  0.00    +0.251 A 
ATOM     13  N   UNL     1      -4.329   1.054  25.087  0.00  0.00    -0.190 NA
BRANCH   9   6
ATOM      3  C   UNL     1      -3.623  -1.896  25.018  0.00  0.00    +0.225 A 
ATOM      4  N   UNL     1      -3.355  -1.326  25.549  0.00  0.00    -0.210 NA
ATOM      5  C   UNL     1      -3.485  -0.526  25.396  0.00  0.00    +0.105 A 
ATOM      6  C   UNL     1      -3.885  -0.296  24.712  0.00  0.00    +0.058 A 
ATOM      7  C   UNL     1      -4.154  -0.868  24.180  0.00  0.00    +0.010 A 
ATOM      8  C   UNL     1      -4.023  -1.668  24.333  0.00  0.00    +0.058 A 
BRANCH   3   2
ATOM      1  C   UNL     1      -3.283  -3.206  24.556  0.00  0.00    +0.254 C 
ATOM      2  O   UNL     1      -3.493  -2.696  25.171  0.00  0.00    -0.456 OA
ENDBRANCH   3   2
ENDBRANCH   9   6
ENDBRANCH  14  12
TORSDOF 4
ENDMDL
MODEL 2
REMARK VINA RESULT:     -11.3      1.956      3.437
REMARK  Name = 
REMARK  4 active torsions:
REMARK  status: ('A' for Active; 'I' for Inactive)
REMARK    1  A    between atoms: O_2  and  C_3
REMARK    2  A    between atoms: C_6  and  C_9
REMARK    3  A    between atoms: C_12  and  C_14
REMARK    4  A    between atoms: N_18  and  C_19
REMARK                            x       y       z     vdW  Elec       q    Type
REMARK                         _______ _______ _______ _____ _____    ______ ____
ROOT
ATOM     14  C   UNL     1      -1.177   3.894  25.223  0.00  0.00    +0.138 C 
ATOM     15  C   UNL     1      -0.565   4.417  25.045  0.00  0.00    +0.027 C 
ATOM     16  C   UNL     1      -0.902   5.145  24.847  0.00  0.00    +0.019 C 
ATOM     17  C   UNL     1      -1.721   5.070  24.903  0.00  0.00    +0.072 C 
ATOM     18  N   UNL     1      -1.892   4.298  25.135  0.00  0.00    -0.268 NA
ENDROOT
BRANCH  18  19
ATOM     19  C   UNL     1      -2.645   3.983  25.258  0.00  0.00    +0.061 C 
ATOM     20  C   UNL     1      -3.048   3.625  24.633  0.00  0.00    +0.038 C 
ATOM     21  C   UNL     1      -3.801   3.309  24.756  0.00  0.00    +0.095 C 
ATOM     22  N   UNL     1      -4.150   3.352  25.503  0.00  0.00    -0.279 N 
ATOM     23  C   UNL     1      -3.746   3.710  26.126  0.00  0.00    +0.095 C 
ATOM     24  C   UNL     1      -2.993   4.025  26.004  0.00  0.00    +0.038 C 
ATOM     25  C   UNL     1      -4.902   3.036  25.625  0.00  0.00    +0.226 C 
ATOM     26  C   UNL     1      -5.306   2.678  25.000  0.00  0.00    +0.095 C 
ATOM     27  O   UNL     1      -5.251   3.079  26.371  0.00  0.00    -0.275 OA
ENDBRANCH  18  19
BRANCH  14  12
ATOM      9  C   UNL     1      -0.986   1.776  25.406  0.00  0.00    +0.205 A 
ATOM     10  N   UNL     1      -0.932   2.010  26.195  0.00  0.00    -0.056 NA
ATOM     11  O   UNL     1      -0.997   2.831  26.223  0.00  0.00    -0.336 OA
ATOM     12  C   UNL     1      -1.091   3.106  25.450  0.00  0.00    +0.251 A 
ATOM     13  N   UNL     1      -1.085   2.453  24.946  0.00  0.00    -0.190 NA
BRANCH   9   6
ATOM      3  C   UNL     1      -0.874  -0.550  24.566  0.00  0.00    +0.225 A 
ATOM      4  N   UNL     1      -0.342   0.016  24.287  0.00  0.00    -0.210 NA
ATOM      5  C   UNL     1      -0.380   0.791  24.567  0.00  0.00    +0.105 A 
ATOM      6  C   UNL     1      -0.949   1.001  25.126  0.00  0.00    +0.058 A 
ATOM      7  C   UNL     1      -1.481   0.434  25.406  0.00  0.00    +0.010 A 
ATOM      8  C   UNL     1      -1.443  -0.341  25.126  0.00  0.00    +0.058 A 
BRANCH   3   2
ATOM      1  C   UNL     1      -1.289  -1.915  24.644  0.00  0.00    +0.254 C 
ATOM      2  O   UNL     1      -0.836  -1.325  24.287  0.00  0.00    -0.456 OA
ENDBRANCH   3   2
ENDBRANCH   9   6
ENDBRANCH  14  12
TORSDOF 4
ENDMDL
MODEL 3
REMARK VINA RESULT:     -11.3      1.167      4.264
REMARK  Name = 
REMARK  4 active torsions:
REMARK  status: ('A' for Active; 'I' for Inactive)
REMARK    1  A    between atoms: O_2  and  C_3
REMARK    2  A    between atoms: C_6  and  C_9
REMARK    3  A    between atoms: C_12  and  C_14
REMARK    4  A    between atoms: N_18  and  C_19
REMARK                            x       y       z     vdW  Elec       q    Type
REMARK                         _______ _______ _______ _____ _____    ______ ____
ROOT
ATOM     14  C   UNL     1      -4.378   1.781  24.673  0.00  0.00    +0.138 C 
ATOM     15  C   UNL     1      -4.911   2.410  24.696  0.00  0.00    +0.027 C 
ATOM     16  C   UNL     1      -5.664   2.100  24.836  0.00  0.00    +0.019 C 
ATOM     17  C   UNL     1      -5.594   1.281  24.899  0.00  0.00    +0.072 C 
ATOM     18  N   UNL     1      -4.801   1.083  24.799  0.00  0.00    -0.268 NA
ENDROOT
BRANCH  18  19
ATOM     19  C   UNL     1      -4.483   0.322  24.820  0.00  0.00    +0.061 C 
ATOM     20  C   UNL     1      -4.415  -0.115  24.123  0.00  0.00    +0.038 C 
ATOM     21  C   UNL     1      -4.097  -0.877  24.144  0.00  0.00    +0.095 C 
ATOM     22  N   UNL     1      -3.847  -1.201  24.861  0.00  0.00    -0.279 N 
ATOM     23  C   UNL     1      -3.916  -0.764  25.556  0.00  0.00    +0.095 C 
ATOM     24  C   UNL     1      -4.234  -0.002  25.536  0.00  0.00    +0.038 C 
ATOM     25  C   UNL     1      -3.530  -1.961  24.881  0.00  0.00    +0.226 C 
ATOM     26  C   UNL     1      -3.461  -2.399  24.184  0.00  0.00    +0.095 C 
ATOM     27  O   UNL     1      -3.280  -2.286  25.597  0.00  0.00    -0.275 OA
ENDBRANCH  18  19
BRANCH  14  12
ATOM      9  C   UNL     1      -2.257   2.006  24.750  0.00  0.00    +0.205 A 
ATOM     10  N   UNL     1      -2.371   1.848  23.949  0.00  0.00    -0.056 NA
ATOM     11  O   UNL     1      -3.179   1.744  23.822  0.00  0.00    -0.336 OA
ATOM     12  C   UNL     1      -3.565   1.839  24.546  0.00  0.00    +0.251 A 
ATOM     13  N   UNL     1      -2.994   2.000  25.119  0.00  0.00    -0.190 NA
BRANCH   9   6
ATOM      3  C   UNL     1      -0.081   2.424  25.854  0.00  0.00    +0.225 A 
ATOM      4  N   UNL     1      -0.260   1.672  25.568  0.00  0.00    -0.210 NA
ATOM      5  C   UNL     1      -0.985   1.533  25.200  0.00  0.00    +0.105 A 
ATOM      6  C   UNL     1      -1.532   2.145  25.118  0.00  0.00    +0.058 A 
ATOM      7  C   UNL     1      -1.352   2.898  25.405  0.00  0.00    +0.010 A 
ATOM      8  C   UNL     1      -0.627   3.038  25.773  0.00  0.00    +0.058 A 
BRANCH   3   2
ATOM      1  C   UNL     1       0.687   2.609  27.046  0.00  0.00    +0.254 C 
ATOM      2  O   UNL     1       0.644   2.563  26.222  0.00  0.00    -0.456 OA
ENDBRANCH   3   2
ENDBRANCH   9   6
ENDBRANCH  14  12
TORSDOF 4
ENDMDL
MODEL 4
REMARK VINA RESULT:     -11.2      1.668      3.863
REMARK  Name = 
REMARK  4 active torsions:
REMARK  status: ('A' for Active; 'I' for Inactive)
REMARK    1  A    between atoms: O_2  and  C_3
REMARK    2  A    between atoms: C_6  and  C_9
REMARK    3  A    between atoms: C_12  and  C_14
REMARK    4  A    between atoms: N_18  and  C_19
REMARK                            x       y       z     vdW  Elec       q    Type
REMARK                         _______ _______ _______ _____ _____    ______ ____
ROOT
ATOM     14  C   UNL     1      -2.566  -0.942  24.625  0.00  0.00    +0.138 C 
ATOM     15  C   UNL     1      -2.809  -1.728  24.678  0.00  0.00    +0.027 C 
ATOM     16  C   UNL     1      -2.167  -2.176  24.941  0.00  0.00    +0.019 C 
ATOM     17  C   UNL     1      -1.528  -1.666  25.048  0.00  0.00    +0.072 C 
ATOM     18  N   UNL     1      -1.773  -0.904  24.853  0.00  0.00    -0.268 NA
ENDROOT
BRANCH  18  19
ATOM     19  C   UNL     1      -1.310  -0.222  24.881  0.00  0.00    +0.061 C 
ATOM     20  C   UNL     1      -1.278   0.225  25.575  0.00  0.00    +0.038 C 
ATOM     21  C   UNL     1      -0.815   0.908  25.603  0.00  0.00    +0.095 C 
ATOM     22  N   UNL     1      -0.384   1.142  24.940  0.00  0.00    -0.279 N 
ATOM     23  C   UNL     1      -0.416   0.695  24.248  0.00  0.00    +0.095 C 
ATOM     24  C   UNL     1      -0.879   0.013  24.219  0.00  0.00    +0.038 C 
ATOM     25  C   UNL     1       0.079   1.824  24.969  0.00  0.00    +0.226 C 
ATOM     26  C   UNL     1       0.112   2.272  25.661  0.00  0.00    +0.095 C 
ATOM     27  O   UNL     1       0.510   2.059  24.306  0.00  0.00    -0.275 OA
ENDBRANCH  18  19
BRANCH  14  12
ATOM      9  C   UNL     1      -3.855   0.745  24.404  0.00  0.00    +0.205 A 
ATOM     10  N   UNL     1      -3.640   0.605  23.621  0.00  0.00    -0.056 NA
ATOM     11  O   UNL     1      -3.132  -0.044  23.607  0.00  0.00    -0.336 OA
ATOM     12  C   UNL     1      -3.032  -0.305  24.384  0.00  0.00    +0.251 A 
ATOM     13  N   UNL     1      -3.479   0.183  24.876  0.00  0.00    -0.190 NA
BRANCH   9   6
ATOM      3  C   UNL     1      -5.363   2.539  25.201  0.00  0.00    +0.225 A 
ATOM      4  N   UNL     1      -4.718   2.725  24.722  0.00  0.00    -0.210 NA
ATOM      5  C   UNL     1      -4.216   2.127  24.457  0.00  0.00    +0.105 A 
ATOM      6  C   UNL     1      -4.358   1.343  24.670  0.00  0.00    +0.058 A 
ATOM      7  C   UNL     1      -5.003   1.157  25.150  0.00  0.00    +0.010 A 
ATOM      8  C   UNL     1      -5.506   1.755  25.416  0.00  0.00    +0.058 A 
BRANCH   3   2
ATOM      1  C   UNL     1      -5.562   3.885  25.639  0.00  0.00    +0.254 C 
ATOM      2  O   UNL     1      -5.866   3.136  25.467  0.00  0.00    -0.456 OA
ENDBRANCH   3   2
ENDBRANCH   9   6
ENDBRANCH  14  12
TORSDOF 4
ENDMDL
MODEL 5
REMARK VINA RESULT:     -10.7      1.869      3.944
REMARK  Name = 
REMARK  4 active torsions:
REMARK  status: ('A' for Active; 'I' for Inactive)
REMARK    1  A    between atoms: O_2  and  C_3
REMARK    2  A    between atoms: C_6  and  C_9
REMARK    3  A    between atoms: C_12  and  C_14
REMARK    4  A    between atoms: N_18  and  C_19
REMARK                            x       y       z     vdW  Elec       q    Type
REMARK                         _______ _______ _______ _____ _____    ______ ____
ROOT
ATOM     14  C   UNL     1      -1.038   2.606  25.143  0.00  0.00    +0.138 C 
ATOM     15  C   UNL     1      -0.720   3.313  25.422  0.00  0.00    +0.027 C 
ATOM     16  C   UNL     1       0.016   3.146  25.756  0.00  0.00    +0.019 C 
ATOM     17  C   UNL     1       0.152   2.336  25.683  0.00  0.00    +0.072 C 
ATOM     18  N   UNL     1      -0.499   2.001  25.304  0.00  0.00    -0.268 NA
ENDROOT
BRANCH  18  19
ATOM     19  C   UNL     1      -0.596   1.204  25.118  0.00  0.00    +0.061 C 
ATOM     20  C   UNL     1      -0.942   0.693  25.666  0.00  0.00    +0.038 C 
ATOM     21  C   UNL     1      -1.040  -0.106  25.481  0.00  0.00    +0.095 C 
ATOM     22  N   UNL     1      -0.791  -0.393  24.748  0.00  0.00    -0.279 N 
ATOM     23  C   UNL     1      -0.445   0.118  24.201  0.00  0.00    +0.095 C 
ATOM     24  C   UNL     1      -0.348   0.916  24.387  0.00  0.00    +0.038 C 
ATOM     25  C   UNL     1      -0.889  -1.191  24.564  0.00  0.00    +0.226 C 
ATOM     26  C   UNL     1      -1.235  -1.702  25.111  0.00  0.00    +0.095 C 
ATOM     27  O   UNL     1      -0.640  -1.478  23.832  0.00  0.00    -0.275 OA
ENDBRANCH  18  19
BRANCH  14  12
ATOM      9  C   UNL     1      -3.075   2.352  24.556  0.00  0.00    +0.205 A 
ATOM     10  N   UNL     1      -2.703   2.404  23.822  0.00  0.00    -0.056 NA
ATOM     11  O   UNL     1      -1.895   2.505  23.952  0.00  0.00    -0.336 OA
ATOM     12  C   UNL     1      -1.768   2.516  24.768  0.00  0.00    +0.251 A 
ATOM     13  N   UNL     1      -2.497   2.422  25.140  0.00  0.00    -0.190 NA
BRANCH   9   6
ATOM      3  C   UNL     1      -5.501   2.044  24.938  0.00  0.00    +0.225 A 
ATOM      4  N   UNL     1      -5.162   2.791  25.022  0.00  0.00    -0.210 NA
ATOM      5  C   UNL     1      -4.354   2.894  24.894  0.00  0.00    +0.105 A 
ATOM      6  C   UNL     1      -3.884   2.250  24.683  0.00  0.00    +0.058 A 
ATOM      7  C   UNL     1      -4.223   1.502  24.600  0.00  0.00    +0.010 A 
ATOM      8  C   UNL     1      -5.032   1.399  24.727  0.00  0.00    +0.058 A 
BRANCH   3   2
ATOM      1  C   UNL     1      -6.603   1.891  25.836  0.00  0.00    +0.254 C 
ATOM      2  O   UNL     1      -6.309   1.942  25.066  0.00  0.00    -0.456 OA
ENDBRANCH   3   2
ENDBRANCH   9   6
ENDBRANCH  14  12
TORSDOF 4
ENDMDL
MODEL 6
REMARK VINA RESULT:     -10.7      1.656      3.067
REMARK  Name = 
REMARK  4 active torsions:
REMARK  status: ('A' for Active; 'I' for Inactive)
REMARK    1  A    between atoms: O_2  and  C_3
REMARK    2  A    between atoms: C_6  and  C_9
REMARK    3  A    between atoms: C_12  and  C_14
REMARK    4  A    between atoms: N_18  and  C_19
REMARK                            x       y       z     vdW  Elec       q    Type
REMARK                         _______ _______ _______ _____ _____    ______ ____
ROOT
ATOM     14  C   UNL     1      -0.495   1.471  24.699  0.00  0.00    +0.138 C 
ATOM     15  C   UNL     1       0.282   1.426  24.429  0.00  0.00    +0.027 C 
ATOM     16  C   UNL     1       0.488   2.162  24.117  0.00  0.00    +0.019 C 
ATOM     17  C   UNL     1      -0.163   2.662  24.196  0.00  0.00    +0.072 C 
ATOM     18  N   UNL     1      -0.771   2.237  24.556  0.00  0.00    -0.268 NA
ENDROOT
BRANCH  18  19
ATOM     19  C   UNL     1      -1.522   2.523  24.740  0.00  0.00    +0.061 C 
ATOM     20  C   UNL     1      -2.132   2.465  24.186  0.00  0.00    +0.038 C 
ATOM     21  C   UNL     1      -2.884   2.752  24.370  0.00  0.00    +0.095 C 
ATOM     22  N   UNL     1      -3.026   3.095  25.107  0.00  0.00    -0.279 N 
ATOM     23  C   UNL     1      -2.417   3.152  25.660  0.00  0.00    +0.095 C 
ATOM     24  C   UNL     1      -1.665   2.866  25.476  0.00  0.00    +0.038 C 
ATOM     25  C   UNL     1      -3.778   3.381  25.290  0.00  0.00    +0.226 C 
ATOM     26  C   UNL     1      -4.388   3.324  24.737  0.00  0.00    +0.095 C 
ATOM     27  O   UNL     1      -3.921   3.724  26.026  0.00  0.00    -0.275 OA
ENDBRANCH  18  19
BRANCH  14  12
ATOM      9  C   UNL     1      -1.700  -0.210  25.225  0.00  0.00    +0.205 A 
ATOM     10  N   UNL     1      -1.462   0.054  25.968  0.00  0.00    -0.056 NA
ATOM     11  O   UNL     1      -0.982   0.716  25.863  0.00  0.00    -0.336 OA
ATOM     12  C   UNL     1      -0.923   0.861  25.052  0.00  0.00    +0.251 A 
ATOM     13  N   UNL     1      -1.367   0.289  24.659  0.00  0.00    -0.190 NA
BRANCH   9   6
ATOM      3  C   UNL     1      -3.159  -2.157  24.770  0.00  0.00    +0.225 A 
ATOM      4  N   UNL     1      -2.374  -2.163  24.519  0.00  0.00    -0.210 NA
ATOM      5  C   UNL     1      -1.888  -1.514  24.671  0.00  0.00    +0.105 A 
ATOM      6  C   UNL     1      -2.187  -0.859  25.073  0.00  0.00    +0.058 A 
ATOM      7  C   UNL     1      -2.973  -0.854  25.324  0.00  0.00    +0.010 A 
ATOM      8  C   UNL     1      -3.459  -1.503  25.173  0.00  0.00    +0.058 A 
BRANCH   3   2
ATOM      1  C   UNL     1      -4.157  -2.797  23.971  0.00  0.00    +0.254 C 
ATOM      2  O   UNL     1      -3.645  -2.806  24.619  0.00  0.00    -0.456 OA
ENDBRANCH   3   2
ENDBRANCH   9   6
ENDBRANCH  14  12
TORSDOF 4
ENDMDL
MODEL 7
REMARK VINA RESULT:     -10.6      2.415      4.433
REMARK  Name = 
REMARK  4 active torsions:
REMARK  status: ('A' for Active; 'I' for Inactive)
REMARK    1  A    between atoms: O_2  and  C_3
REMARK    2  A    between atoms: C_6  and  C_9
REMARK    3  A    between atoms: C_12  and  C_14
REMARK    4  A    between atoms: N_18  and  C_19
REMARK                            x       y       z     vdW  Elec       q    Type
REMARK                         _______ _______ _______ _____ _____    ______ ____
ROOT
ATOM     14  C   UNL     1      -3.134   1.347  24.753  0.00  0.00    +0.138 C 
ATOM     15  C   UNL     1      -3.416   2.121  24.714  0.00  0.00    +0.027 C 
ATOM     16  C   UNL     1      -4.238   2.089  24.643  0.00  0.00    +0.019 C 
ATOM     17  C   UNL     1      -4.463   1.296  24.638  0.00  0.00    +0.072 C 
ATOM     18  N   UNL     1      -3.782   0.837  24.706  0.00  0.00    -0.268 NA
ENDROOT
BRANCH  18  19
ATOM     19  C   UNL     1      -3.751   0.013  24.724  0.00  0.00    +0.061 C 
ATOM     20  C   UNL     1      -3.786  -0.416  24.019  0.00  0.00    +0.038 C 
ATOM     21  C   UNL     1      -3.755  -1.241  24.036  0.00  0.00    +0.095 C 
ATOM     22  N   UNL     1      -3.689  -1.636  24.758  0.00  0.00    -0.279 N 
ATOM     23  C   UNL     1      -3.653  -1.208  25.461  0.00  0.00    +0.095 C 
ATOM     24  C   UNL     1      -3.684  -0.383  25.444  0.00  0.00    +0.038 C 
ATOM     25  C   UNL     1      -3.658  -2.460  24.774  0.00  0.00    +0.226 C 
ATOM     26  C   UNL     1      -3.693  -2.889  24.070  0.00  0.00    +0.095 C 
ATOM     27  O   UNL     1      -3.591  -2.856  25.495  0.00  0.00    -0.275 OA
ENDBRANCH  18  19
BRANCH  14  12
ATOM      9  C   UNL     1      -1.086   0.788  24.529  0.00  0.00    +0.205 A 
ATOM     10  N   UNL     1      -1.171   0.760  25.349  0.00  0.00    -0.056 NA
ATOM     11  O   UNL     1      -1.947   0.965  25.533  0.00  0.00    -0.336 OA
ATOM     12  C   UNL     1      -2.344   1.121  24.825  0.00  0.00    +0.251 A 
ATOM     13  N   UNL     1      -1.811   1.011  24.206  0.00  0.00    -0.190 NA
BRANCH   9   6
ATOM      3  C   UNL     1       0.981   0.289  23.262  0.00  0.00    +0.225 A 
ATOM      4  N   UNL     1       0.814   1.064  23.490  0.00  0.00    -0.210 NA
ATOM      5  C   UNL     1       0.125   1.230  23.912  0.00  0.00    +0.105 A 
ATOM      6  C   UNL     1      -0.397   0.622  24.107  0.00  0.00    +0.058 A 
ATOM      7  C   UNL     1      -0.230  -0.154  23.878  0.00  0.00    +0.010 A 
ATOM      8  C   UNL     1       0.459  -0.320  23.456  0.00  0.00    +0.058 A 
BRANCH   3   2
ATOM      1  C   UNL     1       1.625  -0.275  22.118  0.00  0.00    +0.254 C 
ATOM      2  O   UNL     1       1.670   0.123  22.839  0.00  0.00    -0.456 OA
ENDBRANCH   3   2
ENDBRANCH   9   6
ENDBRANCH  14  12
TORSDOF 4
ENDMDL
