REMARK  Name = 
REMARK  6 active torsions:
REMARK  status: ('A' for Active; 'I' for Inactive)
REMARK    1  A    between atoms: C_3  and  N_18
REMARK    2  A    between atoms: C_6  and  C_7
REMARK    3  A    between atoms: C_7  and  N_8
REMARK    4  A    between atoms: N_8  and  S_9
REMARK    5  A    between atoms: S_9  and  C_12
REMARK    6  A    between atoms: N_18  and  C_19
REMARK                            x       y       z     vdW  Elec       q    Type
REMARK                         _______ _______ _______ _____ _____    ______ ____
ROOT
ATOM      1  O   UNL     1       2.037  -0.474   0.000  0.00  0.00    -0.219 OA
ATOM      2  C   UNL     1       2.037  -1.299   0.000  0.00  0.00    +0.199 C 
ATOM      3  C   UNL     1       2.704  -1.784   0.000  0.00  0.00    +0.135 C 
ATOM      4  C   UNL     1       2.449  -2.569   0.000  0.00  0.00    +0.162 C 
ATOM      5  O   UNL     1       1.624  -2.569   0.000  0.00  0.00    -0.350 OA
ATOM      6  C   UNL     1       1.369  -1.784   0.000  0.00  0.00    +0.166 C 
ENDROOT
BRANCH   6   7
ATOM      7  C   UNL     1       0.585  -1.529   0.000  0.00  0.00    +0.148 C 
BRANCH   7   8
ATOM      8  N   UNL     1      -0.028  -2.081   0.000  0.00  0.00    -0.075 NA
BRANCH   8   9
ATOM      9  S   UNL     1      -0.813  -1.826   0.000  0.00  0.00    +0.077 S 
ATOM     10  O   UNL     1      -1.068  -2.611   0.000  0.00  0.00    -0.152 OA
ATOM     11  O   UNL     1      -0.558  -1.042   0.000  0.00  0.00    -0.152 OA
BRANCH   9  12
ATOM     12  C   UNL     1      -1.598  -1.571   0.000  0.00  0.00    +0.124 A 
ATOM     13  C   UNL     1      -2.211  -2.123   0.000  0.00  0.00    +0.020 A 
ATOM     14  C   UNL     1      -2.995  -1.868   0.000  0.00  0.00    +0.001 A 
ATOM     15  C   UNL     1      -3.167  -1.061   0.000  0.00  0.00    +0.000 A 
ATOM     16  C   UNL     1      -2.554  -0.509   0.000  0.00  0.00    +0.001 A 
ATOM     17  C   UNL     1      -1.769  -0.764   0.000  0.00  0.00    +0.020 A 
ENDBRANCH   9  12
ENDBRANCH   8   9
ENDBRANCH   7   8
ENDBRANCH   6   7
BRANCH   3  18
ATOM     18  N   UNL     1       3.489  -1.529   0.000  0.00  0.00    -0.216 NA
BRANCH  18  19
ATOM     19  C   UNL     1       4.102  -2.081   0.000  0.00  0.00    +0.076 C 
ATOM     20  C   UNL     1       4.886  -1.826   0.000  0.00  0.00    +0.036 C 
ATOM     21  C   UNL     1       5.500  -2.378   0.000  0.00  0.00    +0.090 C 
ATOM     22  N   UNL     1       5.328  -3.185   0.000  0.00  0.00    -0.218 NA
ATOM     23  C   UNL     1       4.543  -3.440   0.000  0.00  0.00    +0.090 C 
ATOM     24  C   UNL     1       3.930  -2.888   0.000  0.00  0.00    +0.036 C 
ENDBRANCH  18  19
ENDBRANCH   3  18
TORSDOF 6
