MODEL 1
REMARK VINA RESULT:     -11.5      0.000      0.000
REMARK  Name = 
REMARK  5 active torsions:
REMARK  status: ('A' for Active; 'I' for Inactive)
REMARK    1  A    between atoms: C_5  and  N_6
REMARK    2  A    between atoms: N_9  and  C_10
REMARK    3  A    between atoms: C_12  and  C_18
REMARK    4  A    between atoms: N_20  and  C_21
REMARK    5  A    between atoms: C_21  and  C_22
REMARK                            x       y       z     vdW  Elec       q    Type
REMARK                         _______ _______ _______ _____ _____    ______ ____
ROOT
ATOM     10  C   UNL     1      -3.931   2.223  24.918  0.00  0.00    +0.152 C 
ATOM     11  C   UNL     1      -3.238   2.408  25.327  0.00  0.00    -0.002 C 
ATOM     12  C   UNL     1      -2.815   3.089  25.134  0.00  0.00    +0.033 C 
ATOM     13  C   UNL     1      -3.083   3.585  24.533  0.00  0.00    +0.066 C 
ATOM     14  C   UNL     1      -3.776   3.401  24.124  0.00  0.00    +0.189 C 
ATOM     15  O   UNL     1      -4.045   3.897  23.522  0.00  0.00    -0.220 OA
ATOM     16  C   UNL     1      -4.199   2.719  24.317  0.00  0.00    +0.206 C 
ATOM     17  O   UNL     1      -4.892   2.535  23.908  0.00  0.00    -0.218 OA
ENDROOT
BRANCH  10   9
ATOM      6  N   UNL     1      -4.464   0.117  25.132  0.00  0.00    -0.161 NA
ATOM      7  C   UNL     1      -4.040   0.799  24.938  0.00  0.00    +0.344 C 
ATOM      8  O   UNL     1      -3.304   0.737  24.574  0.00  0.00    -0.249 OA
ATOM      9  N   UNL     1      -4.354   1.542  25.111  0.00  0.00    -0.181 NA
BRANCH   6   5
ATOM      1  C   UNL     1      -3.207  -2.855  24.439  0.00  0.00    +0.031 C 
ATOM      2  C   UNL     1      -3.522  -2.111  24.612  0.00  0.00    -0.022 A 
ATOM      3  C   UNL     1      -3.986  -1.721  24.055  0.00  0.00    -0.003 A 
ATOM      4  C   UNL     1      -4.301  -0.978  24.228  0.00  0.00    +0.016 A 
ATOM      5  C   UNL     1      -4.150  -0.626  24.959  0.00  0.00    +0.075 A 
ATOM     25  C   UNL     1      -3.685  -1.017  25.516  0.00  0.00    +0.016 A 
ATOM     26  C   UNL     1      -3.370  -1.760  25.343  0.00  0.00    -0.003 A 
ENDBRANCH   6   5
ENDBRANCH  10   9
BRANCH  12  18
ATOM     18  C   UNL     1      -2.122   3.273  25.542  0.00  0.00    +0.261 C 
ATOM     19  O   UNL     1      -2.136   3.837  26.145  0.00  0.00    -0.269 OA
ATOM     20  N   UNL     1      -1.416   2.893  25.348  0.00  0.00    -0.192 NA
BRANCH  20  21
ATOM     21  C   UNL     1      -0.723   3.077  25.757  0.00  0.00    +0.203 C 
BRANCH  21  22
ATOM     22  C   UNL     1      -0.045   2.620  25.646  0.00  0.00    +0.283 C 
ATOM     23  N   UNL     1       0.419   2.408  26.294  0.00  0.00    -0.086 NA
ATOM     24  O   UNL     1       0.168   2.375  24.889  0.00  0.00    -0.270 OA
ENDBRANCH  21  22
ENDBRANCH  20  21
ENDBRANCH  12  18
TORSDOF 5
ENDMDL
MODEL 2
REMARK VINA RESULT:     -10.7      1.385      2.961
REMARK  Name = 
REMARK  5 active torsions:
REMARK  status: ('A' for Active; 'I' for Inactive)
REMARK    1  A    between atoms: C_5  and  N_6
REMARK    2  A    between atoms: N_9  and  C_10
REMARK    3  A    between atoms: C_12  and  C_18
REMARK    4  A    between atoms: N_20  and  C_21
REMARK    5  A    between atoms: C_21  and  C_22
REMARK                            x       y       z     vdW  Elec       q    Type
REMARK                         _______ _______ _______ _____ _____    ______ ____
ROOT
ATOM     10  C   UNL     1      -0.905   1.257  25.330  0.00  0.00    +0.152 C 
ATOM     11  C   UNL     1      -1.480   1.814  25.530  0.00  0.00    -0.002 C 
ATOM     12  C   UNL     1      -1.421   2.587  25.247  0.00  0.00    +0.033 C 
ATOM     13  C   UNL     1      -0.789   2.802  24.765  0.00  0.00    +0.066 C 
ATOM     14  C   UNL     1      -0.213   2.245  24.564  0.00  0.00    +0.189 C 
ATOM     15  O   UNL     1       0.420   2.461  24.081  0.00  0.00    -0.220 OA
ATOM     16  C   UNL     1      -0.272   1.472  24.848  0.00  0.00    +0.206 C 
ATOM     17  O   UNL     1       0.303   0.915  24.647  0.00  0.00    -0.218 OA
ENDROOT
BRANCH  10   9
ATOM      6  N   UNL     1      -1.594  -0.799  25.589  0.00  0.00    -0.161 NA
ATOM      7  C   UNL     1      -1.535  -0.025  25.305  0.00  0.00    +0.344 C 
ATOM      8  O   UNL     1      -2.047   0.238  24.716  0.00  0.00    -0.249 OA
ATOM      9  N   UNL     1      -0.963   0.484  25.613  0.00  0.00    -0.181 NA
BRANCH   6   5
ATOM      1  C   UNL     1      -3.878  -2.836  24.356  0.00  0.00    +0.031 C 
ATOM      2  C   UNL     1      -3.306  -2.326  24.664  0.00  0.00    -0.022 A 
ATOM      3  C   UNL     1      -2.531  -2.361  24.387  0.00  0.00    -0.003 A 
ATOM      4  C   UNL     1      -1.960  -1.852  24.695  0.00  0.00    +0.016 A 
ATOM      5  C   UNL     1      -2.165  -1.308  25.281  0.00  0.00    +0.075 A 
ATOM     25  C   UNL     1      -2.940  -1.273  25.558  0.00  0.00    +0.016 A 
ATOM     26  C   UNL     1      -3.512  -1.783  25.250  0.00  0.00    -0.003 A 
ENDBRANCH   6   5
ENDBRANCH  10   9
BRANCH  12  18
ATOM     18  C   UNL     1      -1.996   3.144  25.447  0.00  0.00    +0.261 C 
ATOM     19  O   UNL     1      -1.868   3.661  26.077  0.00  0.00    -0.269 OA
ATOM     20  N   UNL     1      -2.698   3.182  25.017  0.00  0.00    -0.192 NA
BRANCH  20  21
ATOM     21  C   UNL     1      -3.274   3.739  25.217  0.00  0.00    +0.203 C 
BRANCH  21  22
ATOM     22  C   UNL     1      -4.002   3.738  24.827  0.00  0.00    +0.283 C 
ATOM     23  N   UNL     1      -4.698   3.626  25.255  0.00  0.00    -0.086 NA
ATOM     24  O   UNL     1      -4.033   3.850  24.012  0.00  0.00    -0.270 OA
ENDBRANCH  21  22
ENDBRANCH  20  21
ENDBRANCH  12  18
TORSDOF 5
ENDMDL
MODEL 3
REMARK VINA RESULT:     -10.7      2.113      3.972
REMARK  Name = 
REMARK  5 active torsions:
REMARK  status: ('A' for Active; 'I' for Inactive)
REMARK    1  A    between atoms: C_5  and  N_6
REMARK    2  A    between atoms: N_9  and  C_10
REMARK    3  A    between atoms: C_12  and  C_18
REMARK    4  A    between atoms: N_20  and  C_21
REMARK    5  A    between atoms: C_21  and  C_22
REMARK                            x       y       z     vdW  Elec       q    Type
REMARK                         _______ _______ _______ _____ _____    ______ ____
ROOT
ATOM     10  C   UNL     1      -1.290   2.597  24.795  0.00  0.00    +0.152 C 
ATOM     11  C   UNL     1      -1.165   1.851  24.467  0.00  0.00    -0.002 C 
ATOM     12  C   UNL     1      -0.494   1.417  24.673  0.00  0.00    +0.033 C 
ATOM     13  C   UNL     1       0.051   1.729  25.206  0.00  0.00    +0.066 C 
ATOM     14  C   UNL     1      -0.074   2.477  25.534  0.00  0.00    +0.189 C 
ATOM     15  O   UNL     1       0.472   2.790  26.068  0.00  0.00    -0.220 OA
ATOM     16  C   UNL     1      -0.745   2.910  25.328  0.00  0.00    +0.206 C 
ATOM     17  O   UNL     1      -0.870   3.657  25.656  0.00  0.00    -0.218 OA
ENDROOT
BRANCH  10   9
ATOM      6  N   UNL     1      -3.380   3.200  24.608  0.00  0.00    -0.161 NA
ATOM      7  C   UNL     1      -2.709   2.766  24.814  0.00  0.00    +0.344 C 
ATOM      8  O   UNL     1      -2.785   2.068  25.246  0.00  0.00    -0.249 OA
ATOM      9  N   UNL     1      -1.961   3.031  24.588  0.00  0.00    -0.181 NA
BRANCH   6   5
ATOM      1  C   UNL     1      -6.371   2.139  25.515  0.00  0.00    +0.031 C 
ATOM      2  C   UNL     1      -5.622   2.405  25.288  0.00  0.00    -0.022 A 
ATOM      3  C   UNL     1      -5.231   2.970  25.742  0.00  0.00    -0.003 A 
ATOM      4  C   UNL     1      -4.483   3.235  25.516  0.00  0.00    +0.016 A 
ATOM      5  C   UNL     1      -4.128   2.934  24.834  0.00  0.00    +0.075 A 
ATOM     25  C   UNL     1      -4.519   2.369  24.380  0.00  0.00    +0.016 A 
ATOM     26  C   UNL     1      -5.268   2.103  24.607  0.00  0.00    -0.003 A 
ENDBRANCH   6   5
ENDBRANCH  10   9
BRANCH  12  18
ATOM     18  C   UNL     1      -0.369   0.670  24.345  0.00  0.00    +0.261 C 
ATOM     19  O   UNL     1      -0.003   0.598  23.610  0.00  0.00    -0.269 OA
ATOM     20  N   UNL     1      -0.611  -0.004  24.754  0.00  0.00    -0.192 NA
BRANCH  20  21
ATOM     21  C   UNL     1      -0.487  -0.752  24.426  0.00  0.00    +0.203 C 
BRANCH  21  22
ATOM     22  C   UNL     1      -0.760  -1.425  24.818  0.00  0.00    +0.283 C 
ATOM     23  N   UNL     1      -1.448  -1.801  24.561  0.00  0.00    -0.086 NA
ATOM     24  O   UNL     1      -0.345  -1.721  25.466  0.00  0.00    -0.270 OA
ENDBRANCH  21  22
ENDBRANCH  20  21
ENDBRANCH  12  18
TORSDOF 5
ENDMDL
MODEL 4
REMARK VINA RESULT:     -10.7      1.544      4.666
REMARK  Name = 
REMARK  5 active torsions:
REMARK  status: ('A' for Active; 'I' for Inactive)
REMARK    1  A    between atoms: C_5  and  N_6
REMARK    2  A    between atoms: N_9  and  C_10
REMARK    3  A    between atoms: C_12  and  C_18
REMARK    4  A    between atoms: N_20  and  C_21
REMARK    5  A    between atoms: C_21  and  C_22
REMARK                            x       y       z     vdW  Elec       q    Type
REMARK                         _______ _______ _______ _____ _____    ______ ____
ROOT
ATOM     10  C   UNL     1      -4.508   2.352  25.480  0.00  0.00    +0.152 C 
ATOM     11  C   UNL     1      -4.125   1.666  25.229  0.00  0.00    -0.002 C 
ATOM     12  C   UNL     1      -4.547   1.084  24.824  0.00  0.00    +0.033 C 
ATOM     13  C   UNL     1      -5.350   1.187  24.670  0.00  0.00    +0.066 C 
ATOM     14  C   UNL     1      -5.733   1.874  24.922  0.00  0.00    +0.189 C 
ATOM     15  O   UNL     1      -6.537   1.978  24.769  0.00  0.00    -0.220 OA
ATOM     16  C   UNL     1      -5.311   2.456  25.327  0.00  0.00    +0.206 C 
ATOM     17  O   UNL     1      -5.694   3.142  25.579  0.00  0.00    -0.218 OA
ENDROOT
BRANCH  10   9
ATOM      6  N   UNL     1      -2.986   3.843  25.955  0.00  0.00    -0.161 NA
ATOM      7  C   UNL     1      -3.407   3.261  25.550  0.00  0.00    +0.344 C 
ATOM      8  O   UNL     1      -3.150   3.005  24.810  0.00  0.00    -0.249 OA
ATOM      9  N   UNL     1      -4.087   2.935  25.886  0.00  0.00    -0.181 NA
BRANCH   6   5
ATOM      1  C   UNL     1      -0.270   5.149  24.610  0.00  0.00    +0.031 C 
ATOM      2  C   UNL     1      -0.950   4.823  24.947  0.00  0.00    -0.022 A 
ATOM      3  C   UNL     1      -1.650   5.256  24.963  0.00  0.00    -0.003 A 
ATOM      4  C   UNL     1      -2.329   4.930  25.299  0.00  0.00    +0.016 A 
ATOM      5  C   UNL     1      -2.307   4.169  25.619  0.00  0.00    +0.075 A 
ATOM     25  C   UNL     1      -1.606   3.736  25.603  0.00  0.00    +0.016 A 
ATOM     26  C   UNL     1      -0.926   4.062  25.266  0.00  0.00    -0.003 A 
ENDBRANCH   6   5
ENDBRANCH  10   9
BRANCH  12  18
ATOM     18  C   UNL     1      -4.163   0.398  24.572  0.00  0.00    +0.261 C 
ATOM     19  O   UNL     1      -3.894   0.336  23.795  0.00  0.00    -0.269 OA
ATOM     20  N   UNL     1      -4.049  -0.226  25.099  0.00  0.00    -0.192 NA
BRANCH  20  21
ATOM     21  C   UNL     1      -3.666  -0.913  24.848  0.00  0.00    +0.203 C 
BRANCH  21  22
ATOM     22  C   UNL     1      -3.546  -1.536  25.377  0.00  0.00    +0.283 C 
ATOM     23  N   UNL     1      -3.556  -2.314  25.105  0.00  0.00    -0.086 NA
ATOM     24  O   UNL     1      -3.416  -1.379  26.176  0.00  0.00    -0.270 OA
ENDBRANCH  21  22
ENDBRANCH  20  21
ENDBRANCH  12  18
TORSDOF 5
ENDMDL
MODEL 5
REMARK VINA RESULT:     -10.4      2.115      4.164
REMARK  Name = 
REMARK  5 active torsions:
REMARK  status: ('A' for Active; 'I' for Inactive)
REMARK    1  A    between atoms: C_5  and  N_6
REMARK    2  A    between atoms: N_9  and  C_10
REMARK    3  A    between atoms: C_12  and  C_18
REMARK    4  A    between atoms: N_20  and  C_21
REMARK    5  A    between atoms: C_21  and  C_22
REMARK                            x       y       z     vdW  Elec       q    Type
REMARK                         _______ _______ _______ _____ _____    ______ ____
ROOT
ATOM     10  C   UNL     1      -3.499  -0.828  24.341  0.00  0.00    +0.152 C 
ATOM     11  C   UNL     1      -2.719  -0.592  24.470  0.00  0.00    -0.002 C 
ATOM     12  C   UNL     1      -2.162  -1.139  24.740  0.00  0.00    +0.033 C 
ATOM     13  C   UNL     1      -2.386  -1.920  24.880  0.00  0.00    +0.066 C 
ATOM     14  C   UNL     1      -3.166  -2.156  24.751  0.00  0.00    +0.189 C 
ATOM     15  O   UNL     1      -3.390  -2.937  24.891  0.00  0.00    -0.220 OA
ATOM     16  C   UNL     1      -3.722  -1.609  24.481  0.00  0.00    +0.206 C 
ATOM     17  O   UNL     1      -4.503  -1.845  24.351  0.00  0.00    -0.218 OA
ENDROOT
BRANCH  10   9
ATOM      6  N   UNL     1      -4.735   0.967  24.217  0.00  0.00    -0.161 NA
ATOM      7  C   UNL     1      -4.179   0.420  24.487  0.00  0.00    +0.344 C 
ATOM      8  O   UNL     1      -3.747   0.575  25.172  0.00  0.00    -0.249 OA
ATOM      9  N   UNL     1      -4.055  -0.281  24.071  0.00  0.00    -0.181 NA
BRANCH   6   5
ATOM      1  C   UNL     1      -5.226   3.775  25.880  0.00  0.00    +0.031 C 
ATOM      2  C   UNL     1      -5.103   3.073  25.464  0.00  0.00    -0.022 A 
ATOM      3  C   UNL     1      -4.553   3.047  24.852  0.00  0.00    -0.003 A 
ATOM      4  C   UNL     1      -4.430   2.346  24.436  0.00  0.00    +0.016 A 
ATOM      5  C   UNL     1      -4.859   1.669  24.633  0.00  0.00    +0.075 A 
ATOM     25  C   UNL     1      -5.409   1.694  25.246  0.00  0.00    +0.016 A 
ATOM     26  C   UNL     1      -5.532   2.396  25.662  0.00  0.00    -0.003 A 
ENDBRANCH   6   5
ENDBRANCH  10   9
BRANCH  12  18
ATOM     18  C   UNL     1      -1.383  -0.903  24.870  0.00  0.00    +0.261 C 
ATOM     19  O   UNL     1      -1.051  -0.968  25.622  0.00  0.00    -0.269 OA
ATOM     20  N   UNL     1      -0.935  -0.602  24.246  0.00  0.00    -0.192 NA
BRANCH  20  21
ATOM     21  C   UNL     1      -0.155  -0.366  24.375  0.00  0.00    +0.203 C 
BRANCH  21  22
ATOM     22  C   UNL     1       0.260   0.030  23.780  0.00  0.00    +0.283 C 
ATOM     23  N   UNL     1       0.664  -0.399  23.204  0.00  0.00    -0.086 NA
ATOM     24  O   UNL     1       0.270   0.854  23.764  0.00  0.00    -0.270 OA
ENDBRANCH  21  22
ENDBRANCH  20  21
ENDBRANCH  12  18
TORSDOF 5
ENDMDL
