MODEL 1
REMARK VINA RESULT:     -12.2      0.000      0.000
REMARK  Name = 
REMARK  5 active torsions:
REMARK  status: ('A' for Active; 'I' for Inactive)
REMARK    1  A    between atoms: N_7  and  C_10
REMARK    2  A    between atoms: C_12  and  C_16
REMARK    3  A    between atoms: C_19  and  C_21
REMARK    4  A    between atoms: N_25  and  C_26
REMARK    5  A    between atoms: C_26  and  C_27
REMARK                            x       y       z     vdW  Elec       q    Type
REMARK                         _______ _______ _______ _____ _____    ______ ____
ROOT
ATOM     10  C   UNL     1      -4.675   1.050  24.905  0.00  0.00    +0.132 A 
ATOM     11  C   UNL     1      -4.148   1.644  25.129  0.00  0.00    +0.037 A 
ATOM     12  C   UNL     1      -4.411   2.422  25.204  0.00  0.00    +0.043 A 
ATOM     13  C   UNL     1      -5.202   2.607  25.055  0.00  0.00    +0.024 A 
ATOM     14  C   UNL     1      -5.729   2.012  24.831  0.00  0.00    +0.100 A 
ATOM     15  N   UNL     1      -5.465   1.235  24.756  0.00  0.00    -0.229 NA
ENDROOT
BRANCH  10   7
ATOM      1  C   UNL     1      -3.325  -2.463  25.263  0.00  0.00    +0.095 C 
ATOM      2  C   UNL     1      -3.621  -2.063  24.605  0.00  0.00    +0.226 C 
ATOM      3  O   UNL     1      -3.654  -2.441  23.873  0.00  0.00    -0.275 OA
ATOM      4  N   UNL     1      -3.885  -1.284  24.680  0.00  0.00    -0.276 N 
ATOM      5  C   UNL     1      -4.181  -0.885  24.022  0.00  0.00    +0.115 C 
ATOM      6  C   UNL     1      -4.445  -0.106  24.097  0.00  0.00    +0.114 C 
ATOM      7  N   UNL     1      -4.412   0.272  24.830  0.00  0.00    -0.290 N 
ATOM      8  C   UNL     1      -4.116  -0.129  25.487  0.00  0.00    +0.114 C 
ATOM      9  C   UNL     1      -3.852  -0.907  25.412  0.00  0.00    +0.115 C 
ENDBRANCH  10   7
BRANCH  12  16
ATOM     16  C   UNL     1      -3.884   3.016  25.428  0.00  0.00    +0.203 A 
ATOM     17  N   UNL     1      -4.006   3.574  26.022  0.00  0.00    -0.056 NA
ATOM     18  O   UNL     1      -3.339   4.059  26.059  0.00  0.00    -0.336 OA
ATOM     19  C   UNL     1      -2.805   3.799  25.486  0.00  0.00    +0.251 A 
ATOM     20  N   UNL     1      -3.142   3.155  25.096  0.00  0.00    -0.190 NA
BRANCH  19  21
ATOM     21  C   UNL     1      -2.064   4.127  25.330  0.00  0.00    +0.138 C 
ATOM     22  C   UNL     1      -1.922   4.870  24.997  0.00  0.00    +0.027 C 
ATOM     23  C   UNL     1      -1.106   4.972  24.941  0.00  0.00    +0.019 C 
ATOM     24  C   UNL     1      -0.743   4.293  25.238  0.00  0.00    +0.073 C 
ATOM     25  N   UNL     1      -1.335   3.772  25.478  0.00  0.00    -0.266 NA
BRANCH  25  26
ATOM     26  C   UNL     1      -1.219   3.025  25.810  0.00  0.00    +0.072 C 
BRANCH  26  27
ATOM     27  C   UNL     1      -0.455   2.723  25.890  0.00  0.00    +0.016 C 
ATOM     28  C   UNL     1       0.231   2.625  26.336  0.00  0.00    +0.001 C 
ATOM     29  C   UNL     1       0.181   2.298  25.581  0.00  0.00    +0.001 C 
ENDBRANCH  26  27
ENDBRANCH  25  26
ENDBRANCH  19  21
ENDBRANCH  12  16
TORSDOF 5
ENDMDL
MODEL 2
REMARK VINA RESULT:     -11.7      1.357      4.941
REMARK  Name = 
REMARK  5 active torsions:
REMARK  status: ('A' for Active; 'I' for Inactive)
REMARK    1  A    between atoms: N_7  and  C_10
REMARK    2  A    between atoms: C_12  and  C_16
REMARK    3  A    between atoms: C_19  and  C_21
REMARK    4  A    between atoms: N_25  and  C_26
REMARK    5  A    between atoms: C_26  and  C_27
REMARK                            x       y       z     vdW  Elec       q    Type
REMARK                         _______ _______ _______ _____ _____    ______ ____
ROOT
ATOM     10  C   UNL     1      -3.857   2.539  24.830  0.00  0.00    +0.132 A 
ATOM     11  C   UNL     1      -3.708   1.745  25.000  0.00  0.00    +0.037 A 
ATOM     12  C   UNL     1      -4.316   1.190  24.942  0.00  0.00    +0.043 A 
ATOM     13  C   UNL     1      -5.073   1.429  24.714  0.00  0.00    +0.024 A 
ATOM     14  C   UNL     1      -5.220   2.222  24.543  0.00  0.00    +0.100 A 
ATOM     15  N   UNL     1      -4.613   2.777  24.602  0.00  0.00    -0.229 NA
ENDROOT
BRANCH  10   7
ATOM      1  C   UNL     1      -0.677   4.581  24.761  0.00  0.00    +0.095 C 
ATOM      2  C   UNL     1      -1.424   4.757  25.062  0.00  0.00    +0.226 C 
ATOM      3  O   UNL     1      -1.564   5.486  25.420  0.00  0.00    -0.275 OA
ATOM      4  N   UNL     1      -2.033   4.202  25.004  0.00  0.00    -0.276 N 
ATOM      5  C   UNL     1      -2.780   4.378  25.305  0.00  0.00    +0.115 C 
ATOM      6  C   UNL     1      -3.389   3.823  25.247  0.00  0.00    +0.114 C 
ATOM      7  N   UNL     1      -3.249   3.093  24.888  0.00  0.00    -0.290 N 
ATOM      8  C   UNL     1      -2.501   2.919  24.587  0.00  0.00    +0.114 C 
ATOM      9  C   UNL     1      -1.894   3.473  24.645  0.00  0.00    +0.115 C 
ENDBRANCH  10   7
BRANCH  12  16
ATOM     16  C   UNL     1      -4.167   0.396  25.112  0.00  0.00    +0.203 A 
ATOM     17  N   UNL     1      -4.384   0.000  25.802  0.00  0.00    -0.056 NA
ATOM     18  O   UNL     1      -4.126  -0.782  25.739  0.00  0.00    -0.336 OA
ATOM     19  C   UNL     1      -3.751  -0.867  25.009  0.00  0.00    +0.251 A 
ATOM     20  N   UNL     1      -3.776  -0.139  24.622  0.00  0.00    -0.190 NA
BRANCH  19  21
ATOM     21  C   UNL     1      -3.410  -1.559  24.717  0.00  0.00    +0.138 C 
ATOM     22  C   UNL     1      -3.803  -2.156  24.302  0.00  0.00    +0.027 C 
ATOM     23  C   UNL     1      -3.252  -2.742  24.118  0.00  0.00    +0.019 C 
ATOM     24  C   UNL     1      -2.520  -2.508  24.418  0.00  0.00    +0.073 C 
ATOM     25  N   UNL     1      -2.618  -1.778  24.787  0.00  0.00    -0.266 NA
BRANCH  25  26
ATOM     26  C   UNL     1      -2.026  -1.341  25.163  0.00  0.00    +0.072 C 
BRANCH  26  27
ATOM     27  C   UNL     1      -1.232  -1.505  25.011  0.00  0.00    +0.016 C 
ATOM     28  C   UNL     1      -0.548  -1.375  24.569  0.00  0.00    +0.001 C 
ATOM     29  C   UNL     1      -0.542  -1.920  25.189  0.00  0.00    +0.001 C 
ENDBRANCH  26  27
ENDBRANCH  25  26
ENDBRANCH  19  21
ENDBRANCH  12  16
TORSDOF 5
ENDMDL
MODEL 3
REMARK VINA RESULT:     -11.2      1.816      3.231
REMARK  Name = 
REMARK  5 active torsions:
REMARK  status: ('A' for Active; 'I' for Inactive)
REMARK    1  A    between atoms: N_7  and  C_10
REMARK    2  A    between atoms: C_12  and  C_16
REMARK    3  A    between atoms: C_19  and  C_21
REMARK    4  A    between atoms: N_25  and  C_26
REMARK    5  A    between atoms: C_26  and  C_27
REMARK                            x       y       z     vdW  Elec       q    Type
REMARK                         _______ _______ _______ _____ _____    ______ ____
ROOT
ATOM     10  C   UNL     1      -0.857  -0.144  24.281  0.00  0.00    +0.132 A 
ATOM     11  C   UNL     1      -0.899   0.588  24.661  0.00  0.00    +0.037 A 
ATOM     12  C   UNL     1      -0.293   1.139  24.563  0.00  0.00    +0.043 A 
ATOM     13  C   UNL     1       0.355   0.959  24.084  0.00  0.00    +0.024 A 
ATOM     14  C   UNL     1       0.397   0.228  23.705  0.00  0.00    +0.100 A 
ATOM     15  N   UNL     1      -0.209  -0.323  23.803  0.00  0.00    -0.229 NA
ENDROOT
BRANCH  10   7
ATOM      1  C   UNL     1      -4.055  -2.151  24.468  0.00  0.00    +0.095 C 
ATOM      2  C   UNL     1      -3.281  -2.348  24.675  0.00  0.00    +0.226 C 
ATOM      3  O   UNL     1      -3.114  -3.095  24.981  0.00  0.00    -0.275 OA
ATOM      4  N   UNL     1      -2.675  -1.797  24.577  0.00  0.00    -0.276 N 
ATOM      5  C   UNL     1      -1.901  -1.994  24.784  0.00  0.00    +0.115 C 
ATOM      6  C   UNL     1      -1.295  -1.443  24.686  0.00  0.00    +0.114 C 
ATOM      7  N   UNL     1      -1.462  -0.694  24.380  0.00  0.00    -0.290 N 
ATOM      8  C   UNL     1      -2.236  -0.498  24.172  0.00  0.00    +0.114 C 
ATOM      9  C   UNL     1      -2.842  -1.049  24.271  0.00  0.00    +0.115 C 
ENDBRANCH  10   7
BRANCH  12  16
ATOM     16  C   UNL     1      -0.336   1.871  24.943  0.00  0.00    +0.203 A 
ATOM     17  N   UNL     1       0.040   2.073  25.647  0.00  0.00    -0.056 NA
ATOM     18  O   UNL     1      -0.153   2.856  25.825  0.00  0.00    -0.336 OA
ATOM     19  C   UNL     1      -0.650   3.136  25.228  0.00  0.00    +0.251 A 
ATOM     20  N   UNL     1      -0.763   2.527  24.683  0.00  0.00    -0.190 NA
BRANCH  19  21
ATOM     21  C   UNL     1      -0.976   3.892  25.184  0.00  0.00    +0.138 C 
ATOM     22  C   UNL     1      -0.626   4.552  24.832  0.00  0.00    +0.027 C 
ATOM     23  C   UNL     1      -1.143   5.189  24.915  0.00  0.00    +0.019 C 
ATOM     24  C   UNL     1      -1.812   4.924  25.318  0.00  0.00    +0.073 C 
ATOM     25  N   UNL     1      -1.709   4.123  25.484  0.00  0.00    -0.266 NA
BRANCH  25  26
ATOM     26  C   UNL     1      -2.245   3.636  25.881  0.00  0.00    +0.072 C 
BRANCH  26  27
ATOM     27  C   UNL     1      -3.033   3.868  25.958  0.00  0.00    +0.016 C 
ATOM     28  C   UNL     1      -3.624   4.261  26.378  0.00  0.00    +0.001 C 
ATOM     29  C   UNL     1      -3.807   3.875  25.672  0.00  0.00    +0.001 C 
ENDBRANCH  26  27
ENDBRANCH  25  26
ENDBRANCH  19  21
ENDBRANCH  12  16
TORSDOF 5
ENDMDL
MODEL 4
REMARK VINA RESULT:     -10.9      2.147      4.354
REMARK  Name = 
REMARK  5 active torsions:
REMARK  status: ('A' for Active; 'I' for Inactive)
REMARK    1  A    between atoms: N_7  and  C_10
REMARK    2  A    between atoms: C_12  and  C_16
REMARK    3  A    between atoms: C_19  and  C_21
REMARK    4  A    between atoms: N_25  and  C_26
REMARK    5  A    between atoms: C_26  and  C_27
REMARK                            x       y       z     vdW  Elec       q    Type
REMARK                         _______ _______ _______ _____ _____    ______ ____
ROOT
ATOM     10  C   UNL     1      -2.488   3.583  25.200  0.00  0.00    +0.132 A 
ATOM     11  C   UNL     1      -1.926   2.987  25.098  0.00  0.00    +0.037 A 
ATOM     12  C   UNL     1      -1.130   3.183  25.009  0.00  0.00    +0.043 A 
ATOM     13  C   UNL     1      -0.895   3.974  25.023  0.00  0.00    +0.024 A 
ATOM     14  C   UNL     1      -1.457   4.569  25.125  0.00  0.00    +0.100 A 
ATOM     15  N   UNL     1      -2.253   4.373  25.213  0.00  0.00    -0.229 NA
ENDROOT
BRANCH  10   7
ATOM      1  C   UNL     1      -6.024   2.255  25.040  0.00  0.00    +0.095 C 
ATOM      2  C   UNL     1      -5.674   2.798  25.552  0.00  0.00    +0.226 C 
ATOM      3  O   UNL     1      -6.121   3.146  26.152  0.00  0.00    -0.275 OA
ATOM      4  N   UNL     1      -4.878   2.995  25.464  0.00  0.00    -0.276 N 
ATOM      5  C   UNL     1      -4.528   3.538  25.976  0.00  0.00    +0.115 C 
ATOM      6  C   UNL     1      -3.731   3.735  25.889  0.00  0.00    +0.114 C 
ATOM      7  N   UNL     1      -3.284   3.387  25.288  0.00  0.00    -0.290 N 
ATOM      8  C   UNL     1      -3.635   2.843  24.776  0.00  0.00    +0.114 C 
ATOM      9  C   UNL     1      -4.431   2.647  24.864  0.00  0.00    +0.115 C 
ENDBRANCH  10   7
BRANCH  12  16
ATOM     16  C   UNL     1      -0.568   2.587  24.907  0.00  0.00    +0.203 A 
ATOM     17  N   UNL     1       0.135   2.507  25.330  0.00  0.00    -0.056 NA
ATOM     18  O   UNL     1       0.528   1.837  25.048  0.00  0.00    -0.336 OA
ATOM     19  C   UNL     1       0.065   1.504  24.451  0.00  0.00    +0.251 A 
ATOM     20  N   UNL     1      -0.612   1.968  24.364  0.00  0.00    -0.190 NA
BRANCH  19  21
ATOM     21  C   UNL     1       0.248   0.827  24.018  0.00  0.00    +0.138 C 
ATOM     22  C   UNL     1       0.749   0.791  23.361  0.00  0.00    +0.027 C 
ATOM     23  C   UNL     1       0.772   0.008  23.102  0.00  0.00    +0.019 C 
ATOM     24  C   UNL     1       0.287  -0.439  23.597  0.00  0.00    +0.073 C 
ATOM     25  N   UNL     1      -0.037   0.066  24.162  0.00  0.00    -0.266 NA
BRANCH  25  26
ATOM     26  C   UNL     1      -0.555  -0.150  24.767  0.00  0.00    +0.072 C 
BRANCH  26  27
ATOM     27  C   UNL     1      -0.771  -0.941  24.862  0.00  0.00    +0.016 C 
ATOM     28  C   UNL     1      -0.643  -1.680  25.205  0.00  0.00    +0.001 C 
ATOM     29  C   UNL     1      -1.272  -1.571  24.684  0.00  0.00    +0.001 C 
ENDBRANCH  26  27
ENDBRANCH  25  26
ENDBRANCH  19  21
ENDBRANCH  12  16
TORSDOF 5
ENDMDL
MODEL 5
REMARK VINA RESULT:     -10.0      2.411      4.363
REMARK  Name = 
REMARK  5 active torsions:
REMARK  status: ('A' for Active; 'I' for Inactive)
REMARK    1  A    between atoms: N_7  and  C_10
REMARK    2  A    between atoms: C_12  and  C_16
REMARK    3  A    between atoms: C_19  and  C_21
REMARK    4  A    between atoms: N_25  and  C_26
REMARK    5  A    between atoms: C_26  and  C_27
REMARK                            x       y       z     vdW  Elec       q    Type
REMARK                         _______ _______ _______ _____ _____    ______ ____
ROOT
ATOM     10  C   UNL     1      -1.620  -0.628  24.750  0.00  0.00    +0.132 A 
ATOM     11  C   UNL     1      -2.322  -0.209  24.638  0.00  0.00    +0.037 A 
ATOM     12  C   UNL     1      -3.015  -0.459  25.008  0.00  0.00    +0.043 A 
ATOM     13  C   UNL     1      -3.006  -1.128  25.492  0.00  0.00    +0.024 A 
ATOM     14  C   UNL     1      -2.304  -1.547  25.604  0.00  0.00    +0.100 A 
ATOM     15  N   UNL     1      -1.611  -1.296  25.233  0.00  0.00    -0.229 NA
ENDROOT
BRANCH  10   7
ATOM      1  C   UNL     1       1.545  -0.130  22.744  0.00  0.00    +0.095 C 
ATOM      2  C   UNL     1       1.153   0.373  23.266  0.00  0.00    +0.226 C 
ATOM      3  O   UNL     1       1.453   1.126  23.417  0.00  0.00    -0.275 OA
ATOM      4  N   UNL     1       0.460   0.123  23.637  0.00  0.00    -0.276 N 
ATOM      5  C   UNL     1       0.067   0.626  24.159  0.00  0.00    +0.115 C 
ATOM      6  C   UNL     1      -0.626   0.376  24.531  0.00  0.00    +0.114 C 
ATOM      7  N   UNL     1      -0.927  -0.378  24.379  0.00  0.00    -0.290 N 
ATOM      8  C   UNL     1      -0.533  -0.880  23.857  0.00  0.00    +0.114 C 
ATOM      9  C   UNL     1       0.160  -0.630  23.486  0.00  0.00    +0.115 C 
ENDBRANCH  10   7
BRANCH  12  16
ATOM     16  C   UNL     1      -3.717  -0.040  24.896  0.00  0.00    +0.203 A 
ATOM     17  N   UNL     1      -4.344  -0.267  24.411  0.00  0.00    -0.056 NA
ATOM     18  O   UNL     1      -4.930   0.312  24.464  0.00  0.00    -0.336 OA
ATOM     19  C   UNL     1      -4.663   0.896  24.982  0.00  0.00    +0.251 A 
ATOM     20  N   UNL     1      -3.914   0.679  25.249  0.00  0.00    -0.190 NA
BRANCH  19  21
ATOM     21  C   UNL     1      -5.074   1.579  25.196  0.00  0.00    +0.138 C 
ATOM     22  C   UNL     1      -5.719   1.616  25.711  0.00  0.00    +0.027 C 
ATOM     23  C   UNL     1      -5.956   2.404  25.766  0.00  0.00    +0.019 C 
ATOM     24  C   UNL     1      -5.459   2.854  25.285  0.00  0.00    +0.073 C 
ATOM     25  N   UNL     1      -4.915   2.344  24.934  0.00  0.00    -0.266 NA
BRANCH  25  26
ATOM     26  C   UNL     1      -4.314   2.562  24.410  0.00  0.00    +0.072 C 
BRANCH  26  27
ATOM     27  C   UNL     1      -4.048   3.342  24.389  0.00  0.00    +0.016 C 
ATOM     28  C   UNL     1      -3.607   3.956  24.719  0.00  0.00    +0.001 C 
ATOM     29  C   UNL     1      -4.028   4.080  24.021  0.00  0.00    +0.001 C 
ENDBRANCH  26  27
ENDBRANCH  25  26
ENDBRANCH  19  21
ENDBRANCH  12  16
TORSDOF 5
ENDMDL
MODEL 6
REMARK VINA RESULT:      -9.8      3.079      4.897
REMARK  Name = 
REMARK  5 active torsions:
REMARK  status: ('A' for Active; 'I' for Inactive)
REMARK    1  A    between atoms: N_7  and  C_10
REMARK    2  A    between atoms: C_12  and  C_16
REMARK    3  A    between atoms: C_19  and  C_21
REMARK    4  A    between atoms: N_25  and  C_26
REMARK    5  A    between atoms: C_26  and  C_27
REMARK                            x       y       z     vdW  Elec       q    Type
REMARK                         _______ _______ _______ _____ _____    ______ ____
ROOT
ATOM     10  C   UNL     1      -0.131   0.161  23.877  0.00  0.00    +0.132 A 
ATOM     11  C   UNL     1      -0.683   0.770  23.806  0.00  0.00    +0.037 A 
ATOM     12  C   UNL     1      -1.421   0.701  24.167  0.00  0.00    +0.043 A 
ATOM     13  C   UNL     1      -1.608   0.023  24.599  0.00  0.00    +0.024 A 
ATOM     14  C   UNL     1      -1.055  -0.586  24.670  0.00  0.00    +0.100 A 
ATOM     15  N   UNL     1      -0.317  -0.516  24.309  0.00  0.00    -0.229 NA
ENDROOT
BRANCH  10   7
ATOM      1  C   UNL     1       3.373   0.982  22.721  0.00  0.00    +0.095 C 
ATOM      2  C   UNL     1       2.824   0.439  22.432  0.00  0.00    +0.226 C 
ATOM      3  O   UNL     1       3.012  -0.034  21.784  0.00  0.00    -0.275 OA
ATOM      4  N   UNL     1       2.085   0.369  22.793  0.00  0.00    -0.276 N 
ATOM      5  C   UNL     1       1.535  -0.174  22.505  0.00  0.00    +0.115 C 
ATOM      6  C   UNL     1       0.796  -0.243  22.866  0.00  0.00    +0.114 C 
ATOM      7  N   UNL     1       0.607   0.230  23.516  0.00  0.00    -0.290 N 
ATOM      8  C   UNL     1       1.158   0.773  23.803  0.00  0.00    +0.114 C 
ATOM      9  C   UNL     1       1.897   0.842  23.442  0.00  0.00    +0.115 C 
ENDBRANCH  10   7
BRANCH  12  16
ATOM     16  C   UNL     1      -1.974   1.310  24.095  0.00  0.00    +0.203 A 
ATOM     17  N   UNL     1      -2.278   1.607  23.390  0.00  0.00    -0.056 NA
ATOM     18  O   UNL     1      -2.812   2.210  23.576  0.00  0.00    -0.336 OA
ATOM     19  C   UNL     1      -2.836   2.282  24.397  0.00  0.00    +0.251 A 
ATOM     20  N   UNL     1      -2.318   1.726  24.718  0.00  0.00    -0.190 NA
BRANCH  19  21
ATOM     21  C   UNL     1      -3.297   2.818  24.823  0.00  0.00    +0.138 C 
ATOM     22  C   UNL     1      -3.034   3.526  25.158  0.00  0.00    +0.027 C 
ATOM     23  C   UNL     1      -3.676   3.885  25.531  0.00  0.00    +0.019 C 
ATOM     24  C   UNL     1      -4.336   3.400  25.426  0.00  0.00    +0.073 C 
ATOM     25  N   UNL     1      -4.101   2.741  24.989  0.00  0.00    -0.266 NA
BRANCH  25  26
ATOM     26  C   UNL     1      -4.587   2.115  24.757  0.00  0.00    +0.072 C 
BRANCH  26  27
ATOM     27  C   UNL     1      -5.342   2.038  25.079  0.00  0.00    +0.016 C 
ATOM     28  C   UNL     1      -5.833   1.937  25.734  0.00  0.00    +0.001 C 
ATOM     29  C   UNL     1      -6.161   2.005  24.979  0.00  0.00    +0.001 C 
ENDBRANCH  26  27
ENDBRANCH  25  26
ENDBRANCH  19  21
ENDBRANCH  12  16
TORSDOF 5
ENDMDL
MODEL 7
REMARK VINA RESULT:      -9.6      1.743      5.828
REMARK  Name = 
REMARK  5 active torsions:
REMARK  status: ('A' for Active; 'I' for Inactive)
REMARK    1  A    between atoms: N_7  and  C_10
REMARK    2  A    between atoms: C_12  and  C_16
REMARK    3  A    between atoms: C_19  and  C_21
REMARK    4  A    between atoms: N_25  and  C_26
REMARK    5  A    between atoms: C_26  and  C_27
REMARK                            x       y       z     vdW  Elec       q    Type
REMARK                         _______ _______ _______ _____ _____    ______ ____
ROOT
ATOM     10  C   UNL     1      -0.318   1.705  24.436  0.00  0.00    +0.132 A 
ATOM     11  C   UNL     1      -0.711   1.019  24.673  0.00  0.00    +0.037 A 
ATOM     12  C   UNL     1      -0.412   0.280  24.462  0.00  0.00    +0.043 A 
ATOM     13  C   UNL     1       0.280   0.226  24.014  0.00  0.00    +0.024 A 
ATOM     14  C   UNL     1       0.672   0.912  23.778  0.00  0.00    +0.100 A 
ATOM     15  N   UNL     1       0.373   1.651  23.989  0.00  0.00    -0.229 NA
ENDROOT
BRANCH  10   7
ATOM      1  C   UNL     1      -1.206   5.346  24.931  0.00  0.00    +0.095 C 
ATOM      2  C   UNL     1      -1.512   4.664  25.278  0.00  0.00    +0.226 C 
ATOM      3  O   UNL     1      -2.117   4.721  25.836  0.00  0.00    -0.275 OA
ATOM      4  N   UNL     1      -1.214   3.924  25.068  0.00  0.00    -0.276 N 
ATOM      5  C   UNL     1      -1.520   3.242  25.415  0.00  0.00    +0.115 C 
ATOM      6  C   UNL     1      -1.222   2.502  25.205  0.00  0.00    +0.114 C 
ATOM      7  N   UNL     1      -0.616   2.444  24.646  0.00  0.00    -0.290 N 
ATOM      8  C   UNL     1      -0.310   3.127  24.299  0.00  0.00    +0.114 C 
ATOM      9  C   UNL     1      -0.609   3.867  24.510  0.00  0.00    +0.115 C 
ENDBRANCH  10   7
BRANCH  12  16
ATOM     16  C   UNL     1      -0.805  -0.407  24.699  0.00  0.00    +0.203 A 
ATOM     17  N   UNL     1      -0.524  -0.964  25.237  0.00  0.00    -0.056 NA
ATOM     18  O   UNL     1      -1.093  -1.558  25.310  0.00  0.00    -0.336 OA
ATOM     19  C   UNL     1      -1.726  -1.365  24.817  0.00  0.00    +0.251 A 
ATOM     20  N   UNL     1      -1.548  -0.653  24.439  0.00  0.00    -0.190 NA
BRANCH  19  21
ATOM     21  C   UNL     1      -2.416  -1.806  24.718  0.00  0.00    +0.138 C 
ATOM     22  C   UNL     1      -2.467  -2.556  24.375  0.00  0.00    +0.027 C 
ATOM     23  C   UNL     1      -3.259  -2.789  24.390  0.00  0.00    +0.019 C 
ATOM     24  C   UNL     1      -3.696  -2.184  24.743  0.00  0.00    +0.073 C 
ATOM     25  N   UNL     1      -3.175  -1.578  24.945  0.00  0.00    -0.266 NA
BRANCH  25  26
ATOM     26  C   UNL     1      -3.378  -0.866  25.312  0.00  0.00    +0.072 C 
BRANCH  26  27
ATOM     27  C   UNL     1      -4.069  -0.473  25.094  0.00  0.00    +0.016 C 
ATOM     28  C   UNL     1      -4.650   0.091  25.252  0.00  0.00    +0.001 C 
ATOM     29  C   UNL     1      -4.686  -0.355  24.559  0.00  0.00    +0.001 C 
ENDBRANCH  26  27
ENDBRANCH  25  26
ENDBRANCH  19  21
ENDBRANCH  12  16
TORSDOF 5
ENDMDL
MODEL 8
REMARK VINA RESULT:      -9.5      1.707      3.516
REMARK  Name = 
REMARK  5 active torsions:
REMARK  status: ('A' for Active; 'I' for Inactive)
REMARK    1  A    between atoms: N_7  and  C_10
REMARK    2  A    between atoms: C_12  and  C_16
REMARK    3  A    between atoms: C_19  and  C_21
REMARK    4  A    between atoms: N_25  and  C_26
REMARK    5  A    between atoms: C_26  and  C_27
REMARK                            x       y       z     vdW  Elec       q    Type
REMARK                         _______ _______ _______ _____ _____    ______ ____
ROOT
ATOM     10  C   UNL     1      -1.248   0.697  25.086  0.00  0.00    +0.132 A 
ATOM     11  C   UNL     1      -1.830   1.263  24.935  0.00  0.00    +0.037 A 
ATOM     12  C   UNL     1      -1.684   2.058  25.097  0.00  0.00    +0.043 A 
ATOM     13  C   UNL     1      -0.956   2.289  25.409  0.00  0.00    +0.024 A 
ATOM     14  C   UNL     1      -0.374   1.723  25.560  0.00  0.00    +0.100 A 
ATOM     15  N   UNL     1      -0.521   0.928  25.398  0.00  0.00    -0.229 NA
ENDROOT
BRANCH  10   7
ATOM      1  C   UNL     1      -2.540  -2.833  24.691  0.00  0.00    +0.095 C 
ATOM      2  C   UNL     1      -1.835  -2.485  24.441  0.00  0.00    +0.226 C 
ATOM      3  O   UNL     1      -1.278  -2.932  24.029  0.00  0.00    -0.275 OA
ATOM      4  N   UNL     1      -1.688  -1.689  24.602  0.00  0.00    -0.276 N 
ATOM      5  C   UNL     1      -0.984  -1.342  24.352  0.00  0.00    +0.115 C 
ATOM      6  C   UNL     1      -0.837  -0.546  24.513  0.00  0.00    +0.114 C 
ATOM      7  N   UNL     1      -1.395  -0.098  24.925  0.00  0.00    -0.290 N 
ATOM      8  C   UNL     1      -2.099  -0.447  25.175  0.00  0.00    +0.114 C 
ATOM      9  C   UNL     1      -2.246  -1.242  25.014  0.00  0.00    +0.115 C 
ENDBRANCH  10   7
BRANCH  12  16
ATOM     16  C   UNL     1      -2.266   2.623  24.946  0.00  0.00    +0.203 A 
ATOM     17  N   UNL     1      -2.237   3.205  24.362  0.00  0.00    -0.056 NA
ATOM     18  O   UNL     1      -2.933   3.647  24.408  0.00  0.00    -0.336 OA
ATOM     19  C   UNL     1      -3.391   3.338  25.020  0.00  0.00    +0.251 A 
ATOM     20  N   UNL     1      -2.979   2.705  25.353  0.00  0.00    -0.190 NA
BRANCH  19  21
ATOM     21  C   UNL     1      -4.131   3.613  25.258  0.00  0.00    +0.138 C 
ATOM     22  C   UNL     1      -4.287   4.343  25.613  0.00  0.00    +0.027 C 
ATOM     23  C   UNL     1      -5.098   4.387  25.757  0.00  0.00    +0.019 C 
ATOM     24  C   UNL     1      -5.443   3.686  25.493  0.00  0.00    +0.073 C 
ATOM     25  N   UNL     1      -4.846   3.208  25.185  0.00  0.00    -0.266 NA
BRANCH  25  26
ATOM     26  C   UNL     1      -4.946   2.456  24.860  0.00  0.00    +0.072 C 
BRANCH  26  27
ATOM     27  C   UNL     1      -5.639   2.032  25.006  0.00  0.00    +0.016 C 
ATOM     28  C   UNL     1      -6.091   1.552  25.501  0.00  0.00    +0.001 C 
ATOM     29  C   UNL     1      -6.385   1.778  24.763  0.00  0.00    +0.001 C 
ENDBRANCH  26  27
ENDBRANCH  25  26
ENDBRANCH  19  21
ENDBRANCH  12  16
TORSDOF 5
ENDMDL
