MODEL 1
REMARK VINA RESULT:     -11.5      0.000      0.000
REMARK  Name = 
REMARK  8 active torsions:
REMARK  status: ('A' for Active; 'I' for Inactive)
REMARK    1  A    between atoms: N_2  and  C_4
REMARK    2  A    between atoms: C_7  and  C_10
REMARK    3  A    between atoms: N_12  and  C_13
REMARK    4  A    between atoms: C_18  and  C_19
REMARK    5  A    between atoms: C_19  and  C_20
REMARK    6  A    between atoms: C_20  and  C_21
REMARK    7  A    between atoms: N_23  and  C_24
REMARK    8  A    between atoms: C_24  and  C_25
REMARK                            x       y       z     vdW  Elec       q    Type
REMARK                         _______ _______ _______ _____ _____    ______ ____
ROOT
ATOM     13  C   UNL     1      -1.223   0.864  25.069  0.00  0.00    +0.113 C 
ATOM     14  C   UNL     1      -0.478   1.031  24.758  0.00  0.00    +0.048 C 
ATOM     15  C   UNL     1      -0.309   1.824  24.911  0.00  0.00    +0.138 C 
ATOM     16  N   UNL     1      -0.951   2.147  25.318  0.00  0.00    -0.265 NA
ATOM     17  C   UNL     1      -1.516   1.553  25.415  0.00  0.00    +0.094 C 
ATOM     18  C   UNL     1      -0.937   2.939  25.546  0.00  0.00    +0.080 C 
ATOM     32  C   UNL     1      -0.283   3.409  25.369  0.00  0.00    +0.131 C 
ATOM     33  N   UNL     1       0.358   3.086  24.963  0.00  0.00    -0.203 NA
ATOM     34  C   UNL     1       0.346   2.293  24.734  0.00  0.00    +0.256 C 
ATOM     35  O   UNL     1       0.986   1.970  24.328  0.00  0.00    -0.272 OA
ENDROOT
BRANCH  13  12
ATOM     10  C   UNL     1      -2.205   0.005  24.485  0.00  0.00    +0.265 C 
ATOM     11  O   UNL     1      -2.416   0.604  23.959  0.00  0.00    -0.268 OA
ATOM     12  N   UNL     1      -1.608   0.135  25.040  0.00  0.00    -0.202 NA
BRANCH  10   7
ATOM      4  C   UNL     1      -3.359  -2.183  24.398  0.00  0.00    +0.048 A 
ATOM      5  C   UNL     1      -2.539  -2.152  24.482  0.00  0.00    +0.015 A 
ATOM      6  C   UNL     1      -2.154  -1.423  24.511  0.00  0.00    +0.006 A 
ATOM      7  C   UNL     1      -2.589  -0.725  24.456  0.00  0.00    +0.055 A 
ATOM      8  C   UNL     1      -3.409  -0.755  24.372  0.00  0.00    +0.006 A 
ATOM      9  C   UNL     1      -3.795  -1.484  24.343  0.00  0.00    +0.015 A 
BRANCH   4   2
ATOM      1  C   UNL     1      -3.536  -3.510  24.898  0.00  0.00    +0.112 C 
ATOM      2  N   UNL     1      -3.744  -2.912  24.369  0.00  0.00    -0.304 N 
ATOM      3  C   UNL     1      -4.339  -3.042  23.811  0.00  0.00    +0.112 C 
ENDBRANCH   4   2
ENDBRANCH  10   7
ENDBRANCH  13  12
BRANCH  18  19
ATOM     19  C   UNL     1      -1.579   3.261  25.952  0.00  0.00    +0.027 C 
BRANCH  19  20
ATOM     20  C   UNL     1      -2.020   3.870  25.610  0.00  0.00    +0.088 C 
BRANCH  20  21
ATOM     21  C   UNL     1      -2.805   3.987  25.836  0.00  0.00    +0.242 C 
ATOM     22  O   UNL     1      -2.983   4.495  26.459  0.00  0.00    -0.273 OA
ATOM     23  N   UNL     1      -3.411   3.595  25.436  0.00  0.00    -0.201 NA
BRANCH  23  24
ATOM     24  C   UNL     1      -4.196   3.713  25.662  0.00  0.00    +0.141 C 
BRANCH  24  25
ATOM     25  C   UNL     1      -4.773   3.162  25.450  0.00  0.00    -0.000 A 
ATOM     26  C   UNL     1      -4.799   2.868  24.680  0.00  0.00    -0.000 A 
ATOM     27  C   UNL     1      -5.376   2.317  24.468  0.00  0.00    +0.029 A 
ATOM     28  C   UNL     1      -5.926   2.059  25.027  0.00  0.00    +0.140 A 
ATOM     29  F   UNL     1      -6.502   1.509  24.816  0.00  0.00    -0.204 F 
ATOM     30  C   UNL     1      -5.898   2.353  25.798  0.00  0.00    +0.029 A 
ATOM     31  C   UNL     1      -5.322   2.904  26.009  0.00  0.00    -0.000 A 
ENDBRANCH  24  25
ENDBRANCH  23  24
ENDBRANCH  20  21
ENDBRANCH  19  20
ENDBRANCH  18  19
TORSDOF 8
ENDMDL
MODEL 2
REMARK VINA RESULT:     -11.3      2.041      4.166
REMARK  Name = 
REMARK  8 active torsions:
REMARK  status: ('A' for Active; 'I' for Inactive)
REMARK    1  A    between atoms: N_2  and  C_4
REMARK    2  A    between atoms: C_7  and  C_10
REMARK    3  A    between atoms: N_12  and  C_13
REMARK    4  A    between atoms: C_18  and  C_19
REMARK    5  A    between atoms: C_19  and  C_20
REMARK    6  A    between atoms: C_20  and  C_21
REMARK    7  A    between atoms: N_23  and  C_24
REMARK    8  A    between atoms: C_24  and  C_25
REMARK                            x       y       z     vdW  Elec       q    Type
REMARK                         _______ _______ _______ _____ _____    ______ ____
ROOT
ATOM     13  C   UNL     1      -1.402   2.641  24.327  0.00  0.00    +0.113 C 
ATOM     14  C   UNL     1      -1.332   3.324  24.785  0.00  0.00    +0.048 C 
ATOM     15  C   UNL     1      -2.082   3.520  25.068  0.00  0.00    +0.138 C 
ATOM     16  N   UNL     1      -2.616   2.957  24.785  0.00  0.00    -0.265 NA
ATOM     17  C   UNL     1      -2.195   2.414  24.328  0.00  0.00    +0.094 C 
ATOM     18  C   UNL     1      -3.415   3.012  24.982  0.00  0.00    +0.080 C 
ATOM     32  C   UNL     1      -3.680   3.629  25.460  0.00  0.00    +0.131 C 
ATOM     33  N   UNL     1      -3.147   4.191  25.742  0.00  0.00    -0.203 NA
ATOM     34  C   UNL     1      -2.347   4.137  25.546  0.00  0.00    +0.256 C 
ATOM     35  O   UNL     1      -1.814   4.699  25.828  0.00  0.00    -0.272 OA
ENDROOT
BRANCH  13  12
ATOM     10  C   UNL     1      -0.470   1.560  24.254  0.00  0.00    +0.265 C 
ATOM     11  O   UNL     1      -0.768   1.255  24.959  0.00  0.00    -0.268 OA
ATOM     12  N   UNL     1      -0.787   2.253  23.938  0.00  0.00    -0.202 NA
BRANCH  10   7
ATOM      4  C   UNL     1       1.376   0.399  23.083  0.00  0.00    +0.048 A 
ATOM      5  C   UNL     1       1.508   1.133  23.435  0.00  0.00    +0.015 A 
ATOM      6  C   UNL     1       0.893   1.520  23.825  0.00  0.00    +0.006 A 
ATOM      7  C   UNL     1       0.146   1.173  23.864  0.00  0.00    +0.055 A 
ATOM      8  C   UNL     1       0.013   0.439  23.512  0.00  0.00    +0.006 A 
ATOM      9  C   UNL     1       0.628   0.052  23.121  0.00  0.00    +0.015 A 
BRANCH   4   2
ATOM      1  C   UNL     1       2.751   0.015  23.012  0.00  0.00    +0.112 C 
ATOM      2  N   UNL     1       1.990   0.011  22.692  0.00  0.00    -0.304 N 
ATOM      3  C   UNL     1       1.844  -0.381  21.981  0.00  0.00    +0.112 C 
ENDBRANCH   4   2
ENDBRANCH  10   7
ENDBRANCH  13  12
BRANCH  18  19
ATOM     19  C   UNL     1      -3.948   2.450  24.699  0.00  0.00    +0.027 C 
BRANCH  19  20
ATOM     20  C   UNL     1      -4.409   2.016  25.230  0.00  0.00    +0.088 C 
BRANCH  20  21
ATOM     21  C   UNL     1      -4.757   1.307  24.990  0.00  0.00    +0.242 C 
ATOM     22  O   UNL     1      -5.525   1.304  24.693  0.00  0.00    -0.273 OA
ATOM     23  N   UNL     1      -4.334   0.601  25.047  0.00  0.00    -0.201 NA
BRANCH  23  24
ATOM     24  C   UNL     1      -4.681  -0.108  24.808  0.00  0.00    +0.141 C 
BRANCH  24  25
ATOM     25  C   UNL     1      -4.231  -0.800  24.783  0.00  0.00    -0.000 A 
ATOM     26  C   UNL     1      -3.759  -1.007  25.426  0.00  0.00    -0.000 A 
ATOM     27  C   UNL     1      -3.309  -1.699  25.401  0.00  0.00    +0.029 A 
ATOM     28  C   UNL     1      -3.332  -2.182  24.733  0.00  0.00    +0.140 A 
ATOM     29  F   UNL     1      -2.883  -2.873  24.709  0.00  0.00    -0.204 F 
ATOM     30  C   UNL     1      -3.806  -1.974  24.090  0.00  0.00    +0.029 A 
ATOM     31  C   UNL     1      -4.255  -1.283  24.115  0.00  0.00    -0.000 A 
ENDBRANCH  24  25
ENDBRANCH  23  24
ENDBRANCH  20  21
ENDBRANCH  19  20
ENDBRANCH  18  19
TORSDOF 8
ENDMDL
MODEL 3
REMARK VINA RESULT:     -11.1      1.822      3.872
REMARK  Name = 
REMARK  8 active torsions:
REMARK  status: ('A' for Active; 'I' for Inactive)
REMARK    1  A    between atoms: N_2  and  C_4
REMARK    2  A    between atoms: C_7  and  C_10
REMARK    3  A    between atoms: N_12  and  C_13
REMARK    4  A    between atoms: C_18  and  C_19
REMARK    5  A    between atoms: C_19  and  C_20
REMARK    6  A    between atoms: C_20  and  C_21
REMARK    7  A    between atoms: N_23  and  C_24
REMARK    8  A    between atoms: C_24  and  C_25
REMARK                            x       y       z     vdW  Elec       q    Type
REMARK                         _______ _______ _______ _____ _____    ______ ____
ROOT
ATOM     13  C   UNL     1      -4.743   1.532  24.932  0.00  0.00    +0.113 C 
ATOM     14  C   UNL     1      -5.439   1.822  25.267  0.00  0.00    +0.048 C 
ATOM     15  C   UNL     1      -5.336   2.627  25.412  0.00  0.00    +0.138 C 
ATOM     16  N   UNL     1      -4.576   2.836  25.166  0.00  0.00    -0.265 NA
ATOM     17  C   UNL     1      -4.210   2.159  24.869  0.00  0.00    +0.094 C 
ATOM     18  C   UNL     1      -4.317   3.615  25.245  0.00  0.00    +0.080 C 
ATOM     32  C   UNL     1      -4.817   4.186  25.569  0.00  0.00    +0.131 C 
ATOM     33  N   UNL     1      -5.576   3.977  25.815  0.00  0.00    -0.203 NA
ATOM     34  C   UNL     1      -5.836   3.198  25.737  0.00  0.00    +0.256 C 
ATOM     35  O   UNL     1      -6.595   2.990  25.983  0.00  0.00    -0.272 OA
ENDROOT
BRANCH  13  12
ATOM     10  C   UNL     1      -4.056   0.291  25.108  0.00  0.00    +0.265 C 
ATOM     11  O   UNL     1      -3.646   0.609  25.749  0.00  0.00    -0.268 OA
ATOM     12  N   UNL     1      -4.605   0.753  24.699  0.00  0.00    -0.202 NA
BRANCH  10   7
ATOM      4  C   UNL     1      -3.645  -2.048  24.409  0.00  0.00    +0.048 A 
ATOM      5  C   UNL     1      -3.970  -1.509  23.876  0.00  0.00    +0.015 A 
ATOM      6  C   UNL     1      -4.107  -0.729  24.109  0.00  0.00    +0.006 A 
ATOM      7  C   UNL     1      -3.919  -0.488  24.875  0.00  0.00    +0.055 A 
ATOM      8  C   UNL     1      -3.595  -1.027  25.408  0.00  0.00    +0.006 A 
ATOM      9  C   UNL     1      -3.457  -1.807  25.177  0.00  0.00    +0.015 A 
BRANCH   4   2
ATOM      1  C   UNL     1      -2.752  -3.152  24.249  0.00  0.00    +0.112 C 
ATOM      2  N   UNL     1      -3.507  -2.827  24.177  0.00  0.00    -0.304 N 
ATOM      3  C   UNL     1      -4.126  -3.282  23.874  0.00  0.00    +0.112 C 
ENDBRANCH   4   2
ENDBRANCH  10   7
ENDBRANCH  13  12
BRANCH  18  19
ATOM     19  C   UNL     1      -3.558   3.823  24.998  0.00  0.00    +0.027 C 
BRANCH  19  20
ATOM     20  C   UNL     1      -3.051   4.219  25.516  0.00  0.00    +0.088 C 
BRANCH  20  21
ATOM     21  C   UNL     1      -2.238   4.224  25.373  0.00  0.00    +0.242 C 
ATOM     22  O   UNL     1      -1.850   4.935  25.221  0.00  0.00    -0.273 OA
ATOM     23  N   UNL     1      -1.813   3.517  25.384  0.00  0.00    -0.201 NA
BRANCH  23  24
ATOM     24  C   UNL     1      -1.001   3.522  25.242  0.00  0.00    +0.141 C 
BRANCH  24  25
ATOM     25  C   UNL     1      -0.613   2.822  25.039  0.00  0.00    -0.000 A 
ATOM     26  C   UNL     1      -0.234   2.759  24.310  0.00  0.00    -0.000 A 
ATOM     27  C   UNL     1       0.154   2.059  24.106  0.00  0.00    +0.029 A 
ATOM     28  C   UNL     1       0.161   1.423  24.632  0.00  0.00    +0.140 A 
ATOM     29  F   UNL     1       0.548   0.724  24.429  0.00  0.00    -0.204 F 
ATOM     30  C   UNL     1      -0.220   1.488  25.362  0.00  0.00    +0.029 A 
ATOM     31  C   UNL     1      -0.607   2.187  25.565  0.00  0.00    -0.000 A 
ENDBRANCH  24  25
ENDBRANCH  23  24
ENDBRANCH  20  21
ENDBRANCH  19  20
ENDBRANCH  18  19
TORSDOF 8
ENDMDL
MODEL 4
REMARK VINA RESULT:     -10.6      1.810      5.130
REMARK  Name = 
REMARK  8 active torsions:
REMARK  status: ('A' for Active; 'I' for Inactive)
REMARK    1  A    between atoms: N_2  and  C_4
REMARK    2  A    between atoms: C_7  and  C_10
REMARK    3  A    between atoms: N_12  and  C_13
REMARK    4  A    between atoms: C_18  and  C_19
REMARK    5  A    between atoms: C_19  and  C_20
REMARK    6  A    between atoms: C_20  and  C_21
REMARK    7  A    between atoms: N_23  and  C_24
REMARK    8  A    between atoms: C_24  and  C_25
REMARK                            x       y       z     vdW  Elec       q    Type
REMARK                         _______ _______ _______ _____ _____    ______ ____
ROOT
ATOM     13  C   UNL     1      -3.576  -0.483  25.006  0.00  0.00    +0.113 C 
ATOM     14  C   UNL     1      -3.898  -1.211  24.787  0.00  0.00    +0.048 C 
ATOM     15  C   UNL     1      -3.274  -1.725  24.620  0.00  0.00    +0.138 C 
ATOM     16  N   UNL     1      -2.567  -1.314  24.736  0.00  0.00    -0.265 NA
ATOM     17  C   UNL     1      -2.755  -0.547  24.975  0.00  0.00    +0.094 C 
ATOM     18  C   UNL     1      -1.846  -1.693  24.609  0.00  0.00    +0.080 C 
ATOM     32  C   UNL     1      -1.830  -2.481  24.366  0.00  0.00    +0.131 C 
ATOM     33  N   UNL     1      -2.536  -2.891  24.251  0.00  0.00    -0.203 NA
ATOM     34  C   UNL     1      -3.258  -2.513  24.377  0.00  0.00    +0.256 C 
ATOM     35  O   UNL     1      -3.964  -2.923  24.262  0.00  0.00    -0.272 OA
ENDROOT
BRANCH  13  12
ATOM     10  C   UNL     1      -4.039   0.835  24.707  0.00  0.00    +0.265 C 
ATOM     11  O   UNL     1      -3.649   0.808  23.982  0.00  0.00    -0.268 OA
ATOM     12  N   UNL     1      -4.003   0.190  25.220  0.00  0.00    -0.202 NA
BRANCH  10   7
ATOM      4  C   UNL     1      -5.319   2.854  25.351  0.00  0.00    +0.048 A 
ATOM      5  C   UNL     1      -5.717   2.158  25.156  0.00  0.00    +0.015 A 
ATOM      6  C   UNL     1      -5.290   1.485  24.941  0.00  0.00    +0.006 A 
ATOM      7  C   UNL     1      -4.466   1.508  24.922  0.00  0.00    +0.055 A 
ATOM      8  C   UNL     1      -4.068   2.204  25.118  0.00  0.00    +0.006 A 
ATOM      9  C   UNL     1      -4.494   2.877  25.332  0.00  0.00    +0.015 A 
BRANCH   4   2
ATOM      1  C   UNL     1      -6.474   3.451  25.944  0.00  0.00    +0.112 C 
ATOM      2  N   UNL     1      -5.745   3.527  25.566  0.00  0.00    -0.304 N 
ATOM      3  C   UNL     1      -5.441   4.277  25.402  0.00  0.00    +0.112 C 
ENDBRANCH   4   2
ENDBRANCH  10   7
ENDBRANCH  13  12
BRANCH  18  19
ATOM     19  C   UNL     1      -1.140  -1.282  24.725  0.00  0.00    +0.027 C 
BRANCH  19  20
ATOM     20  C   UNL     1      -0.708  -1.013  24.075  0.00  0.00    +0.088 C 
BRANCH  20  21
ATOM     21  C   UNL     1      -0.146  -0.416  24.172  0.00  0.00    +0.242 C 
ATOM     22  O   UNL     1       0.657  -0.600  24.157  0.00  0.00    -0.273 OA
ATOM     23  N   UNL     1      -0.389   0.365  24.283  0.00  0.00    -0.201 NA
BRANCH  23  24
ATOM     24  C   UNL     1       0.173   0.960  24.380  0.00  0.00    +0.141 C 
BRANCH  24  25
ATOM     25  C   UNL     1      -0.063   1.716  24.615  0.00  0.00    -0.000 A 
ATOM     26  C   UNL     1      -0.372   2.241  24.059  0.00  0.00    -0.000 A 
ATOM     27  C   UNL     1      -0.609   2.997  24.294  0.00  0.00    +0.029 A 
ATOM     28  C   UNL     1      -0.536   3.226  25.083  0.00  0.00    +0.140 A 
ATOM     29  F   UNL     1      -0.772   3.980  25.317  0.00  0.00    -0.204 F 
ATOM     30  C   UNL     1      -0.226   2.699  25.638  0.00  0.00    +0.029 A 
ATOM     31  C   UNL     1       0.010   1.945  25.404  0.00  0.00    -0.000 A 
ENDBRANCH  24  25
ENDBRANCH  23  24
ENDBRANCH  20  21
ENDBRANCH  19  20
ENDBRANCH  18  19
TORSDOF 8
ENDMDL
MODEL 5
REMARK VINA RESULT:     -10.0      3.227      6.356
REMARK  Name = 
REMARK  8 active torsions:
REMARK  status: ('A' for Active; 'I' for Inactive)
REMARK    1  A    between atoms: N_2  and  C_4
REMARK    2  A    between atoms: C_7  and  C_10
REMARK    3  A    between atoms: N_12  and  C_13
REMARK    4  A    between atoms: C_18  and  C_19
REMARK    5  A    between atoms: C_19  and  C_20
REMARK    6  A    between atoms: C_20  and  C_21
REMARK    7  A    between atoms: N_23  and  C_24
REMARK    8  A    between atoms: C_24  and  C_25
REMARK                            x       y       z     vdW  Elec       q    Type
REMARK                         _______ _______ _______ _____ _____    ______ ____
ROOT
ATOM     13  C   UNL     1      -2.460   0.024  24.979  0.00  0.00    +0.113 C 
ATOM     14  C   UNL     1      -2.614  -0.780  25.085  0.00  0.00    +0.048 C 
ATOM     15  C   UNL     1      -1.966  -1.203  24.799  0.00  0.00    +0.138 C 
ATOM     16  N   UNL     1      -1.412  -0.661  24.516  0.00  0.00    -0.265 NA
ATOM     17  C   UNL     1      -1.717   0.098  24.627  0.00  0.00    +0.094 C 
ATOM     18  C   UNL     1      -0.701  -0.928  24.194  0.00  0.00    +0.080 C 
ATOM     32  C   UNL     1      -0.544  -1.737  24.155  0.00  0.00    +0.131 C 
ATOM     33  N   UNL     1      -1.098  -2.279  24.437  0.00  0.00    -0.203 NA
ATOM     34  C   UNL     1      -1.809  -2.012  24.759  0.00  0.00    +0.256 C 
ATOM     35  O   UNL     1      -2.363  -2.553  25.042  0.00  0.00    -0.272 OA
ENDROOT
BRANCH  13  12
ATOM     10  C   UNL     1      -3.505   0.938  24.641  0.00  0.00    +0.265 C 
ATOM     11  O   UNL     1      -3.548   0.611  23.886  0.00  0.00    -0.268 OA
ATOM     12  N   UNL     1      -2.961   0.645  25.188  0.00  0.00    -0.202 NA
BRANCH  10   7
ATOM      4  C   UNL     1      -5.008   2.802  25.272  0.00  0.00    +0.048 A 
ATOM      5  C   UNL     1      -5.291   2.027  25.268  0.00  0.00    +0.015 A 
ATOM      6  C   UNL     1      -4.790   1.406  25.058  0.00  0.00    +0.006 A 
ATOM      7  C   UNL     1      -4.007   1.559  24.852  0.00  0.00    +0.055 A 
ATOM      8  C   UNL     1      -3.723   2.334  24.856  0.00  0.00    +0.006 A 
ATOM      9  C   UNL     1      -4.223   2.955  25.066  0.00  0.00    +0.015 A 
BRANCH   4   2
ATOM      1  C   UNL     1      -6.252   3.265  25.800  0.00  0.00    +0.112 C 
ATOM      2  N   UNL     1      -5.507   3.423  25.482  0.00  0.00    -0.304 N 
ATOM      3  C   UNL     1      -5.262   4.204  25.374  0.00  0.00    +0.112 C 
ENDBRANCH   4   2
ENDBRANCH  10   7
ENDBRANCH  13  12
BRANCH  18  19
ATOM     19  C   UNL     1      -0.147  -0.386  23.912  0.00  0.00    +0.027 C 
BRANCH  19  20
ATOM     20  C   UNL     1       0.519  -0.652  23.503  0.00  0.00    +0.088 C 
BRANCH  20  21
ATOM     21  C   UNL     1       1.004  -0.112  23.109  0.00  0.00    +0.242 C 
ATOM     22  O   UNL     1       0.671   0.529  22.713  0.00  0.00    -0.273 OA
ATOM     23  N   UNL     1       1.822  -0.216  23.111  0.00  0.00    -0.201 NA
BRANCH  23  24
ATOM     24  C   UNL     1       2.306   0.323  22.717  0.00  0.00    +0.141 C 
BRANCH  24  25
ATOM     25  C   UNL     1       3.122   0.316  22.847  0.00  0.00    -0.000 A 
ATOM     26  C   UNL     1       3.568   0.995  22.700  0.00  0.00    -0.000 A 
ATOM     27  C   UNL     1       4.383   0.988  22.830  0.00  0.00    +0.029 A 
ATOM     28  C   UNL     1       4.751   0.303  23.106  0.00  0.00    +0.140 A 
ATOM     29  F   UNL     1       5.565   0.297  23.235  0.00  0.00    -0.204 F 
ATOM     30  C   UNL     1       4.304  -0.375  23.252  0.00  0.00    +0.029 A 
ATOM     31  C   UNL     1       3.490  -0.368  23.123  0.00  0.00    -0.000 A 
ENDBRANCH  24  25
ENDBRANCH  23  24
ENDBRANCH  20  21
ENDBRANCH  19  20
ENDBRANCH  18  19
TORSDOF 8
ENDMDL
MODEL 6
REMARK VINA RESULT:     -10.0      2.314      4.377
REMARK  Name = 
REMARK  8 active torsions:
REMARK  status: ('A' for Active; 'I' for Inactive)
REMARK    1  A    between atoms: N_2  and  C_4
REMARK    2  A    between atoms: C_7  and  C_10
REMARK    3  A    between atoms: N_12  and  C_13
REMARK    4  A    between atoms: C_18  and  C_19
REMARK    5  A    between atoms: C_19  and  C_20
REMARK    6  A    between atoms: C_20  and  C_21
REMARK    7  A    between atoms: N_23  and  C_24
REMARK    8  A    between atoms: C_24  and  C_25
REMARK                            x       y       z     vdW  Elec       q    Type
REMARK                         _______ _______ _______ _____ _____    ______ ____
ROOT
ATOM     13  C   UNL     1      -1.945  -0.219  24.206  0.00  0.00    +0.113 C 
ATOM     14  C   UNL     1      -2.234  -0.849  24.653  0.00  0.00    +0.048 C 
ATOM     15  C   UNL     1      -2.975  -0.636  24.947  0.00  0.00    +0.138 C 
ATOM     16  N   UNL     1      -3.144   0.127  24.680  0.00  0.00    -0.265 NA
ATOM     17  C   UNL     1      -2.508   0.384  24.222  0.00  0.00    +0.094 C 
ATOM     18  C   UNL     1      -3.856   0.488  24.889  0.00  0.00    +0.080 C 
ATOM     32  C   UNL     1      -4.398   0.086  25.364  0.00  0.00    +0.131 C 
ATOM     33  N   UNL     1      -4.229  -0.675  25.630  0.00  0.00    -0.203 NA
ATOM     34  C   UNL     1      -3.517  -1.037  25.422  0.00  0.00    +0.256 C 
ATOM     35  O   UNL     1      -3.347  -1.799  25.688  0.00  0.00    -0.272 OA
ENDROOT
BRANCH  13  12
ATOM     10  C   UNL     1      -0.570   0.169  24.163  0.00  0.00    +0.265 C 
ATOM     11  O   UNL     1      -0.643   0.511  24.909  0.00  0.00    -0.268 OA
ATOM     12  N   UNL     1      -1.221  -0.196  23.811  0.00  0.00    -0.202 NA
BRANCH  10   7
ATOM      4  C   UNL     1       1.601   0.235  22.977  0.00  0.00    +0.048 A 
ATOM      5  C   UNL     1       1.148  -0.454  22.968  0.00  0.00    +0.015 A 
ATOM      6  C   UNL     1       0.424  -0.476  23.364  0.00  0.00    +0.006 A 
ATOM      7  C   UNL     1       0.153   0.190  23.767  0.00  0.00    +0.055 A 
ATOM      8  C   UNL     1       0.607   0.880  23.776  0.00  0.00    +0.006 A 
ATOM      9  C   UNL     1       1.330   0.903  23.380  0.00  0.00    +0.015 A 
BRANCH   4   2
ATOM      1  C   UNL     1       2.973   0.633  22.928  0.00  0.00    +0.112 C 
ATOM      2  N   UNL     1       2.325   0.258  22.581  0.00  0.00    -0.304 N 
ATOM      3  C   UNL     1       2.400  -0.095  21.839  0.00  0.00    +0.112 C 
ENDBRANCH   4   2
ENDBRANCH  10   7
ENDBRANCH  13  12
BRANCH  18  19
ATOM     19  C   UNL     1      -4.025   1.250  24.622  0.00  0.00    +0.027 C 
BRANCH  19  20
ATOM     20  C   UNL     1      -4.228   1.840  25.163  0.00  0.00    +0.088 C 
BRANCH  20  21
ATOM     21  C   UNL     1      -4.122   2.635  24.965  0.00  0.00    +0.242 C 
ATOM     22  O   UNL     1      -4.731   3.052  24.600  0.00  0.00    -0.273 OA
ATOM     23  N   UNL     1      -3.407   3.010  25.133  0.00  0.00    -0.201 NA
BRANCH  23  24
ATOM     24  C   UNL     1      -3.303   3.803  24.935  0.00  0.00    +0.141 C 
BRANCH  24  25
ATOM     25  C   UNL     1      -2.550   4.141  24.971  0.00  0.00    -0.000 A 
ATOM     26  C   UNL     1      -1.896   3.720  24.697  0.00  0.00    -0.000 A 
ATOM     27  C   UNL     1      -1.144   4.058  24.732  0.00  0.00    +0.029 A 
ATOM     28  C   UNL     1      -1.046   4.816  25.042  0.00  0.00    +0.140 A 
ATOM     29  F   UNL     1      -0.294   5.153  25.077  0.00  0.00    -0.204 F 
ATOM     30  C   UNL     1      -1.701   5.237  25.316  0.00  0.00    +0.029 A 
ATOM     31  C   UNL     1      -2.452   4.900  25.280  0.00  0.00    -0.000 A 
ENDBRANCH  24  25
ENDBRANCH  23  24
ENDBRANCH  20  21
ENDBRANCH  19  20
ENDBRANCH  18  19
TORSDOF 8
ENDMDL
MODEL 7
REMARK VINA RESULT:     -10.0      1.527      4.601
REMARK  Name = 
REMARK  8 active torsions:
REMARK  status: ('A' for Active; 'I' for Inactive)
REMARK    1  A    between atoms: N_2  and  C_4
REMARK    2  A    between atoms: C_7  and  C_10
REMARK    3  A    between atoms: N_12  and  C_13
REMARK    4  A    between atoms: C_18  and  C_19
REMARK    5  A    between atoms: C_19  and  C_20
REMARK    6  A    between atoms: C_20  and  C_21
REMARK    7  A    between atoms: N_23  and  C_24
REMARK    8  A    between atoms: C_24  and  C_25
REMARK                            x       y       z     vdW  Elec       q    Type
REMARK                         _______ _______ _______ _____ _____    ______ ____
ROOT
ATOM     13  C   UNL     1      -1.185   0.497  24.649  0.00  0.00    +0.113 C 
ATOM     14  C   UNL     1      -0.635  -0.057  24.919  0.00  0.00    +0.048 C 
ATOM     15  C   UNL     1      -0.991  -0.801  24.897  0.00  0.00    +0.138 C 
ATOM     16  N   UNL     1      -1.761  -0.707  24.613  0.00  0.00    -0.265 NA
ATOM     17  C   UNL     1      -1.880   0.095  24.460  0.00  0.00    +0.094 C 
ATOM     18  C   UNL     1      -2.253  -1.364  24.530  0.00  0.00    +0.080 C 
ATOM     32  C   UNL     1      -1.976  -2.115  24.732  0.00  0.00    +0.131 C 
ATOM     33  N   UNL     1      -1.207  -2.208  25.015  0.00  0.00    -0.203 NA
ATOM     34  C   UNL     1      -0.715  -1.551  25.098  0.00  0.00    +0.256 C 
ATOM     35  O   UNL     1       0.054  -1.645  25.381  0.00  0.00    -0.272 OA
ENDROOT
BRANCH  13  12
ATOM     10  C   UNL     1      -1.360   1.823  25.152  0.00  0.00    +0.265 C 
ATOM     11  O   UNL     1      -1.786   1.524  25.792  0.00  0.00    -0.268 OA
ATOM     12  N   UNL     1      -1.060   1.309  24.581  0.00  0.00    -0.202 NA
BRANCH  10   7
ATOM      4  C   UNL     1      -0.984   4.261  24.945  0.00  0.00    +0.048 A 
ATOM      5  C   UNL     1      -0.548   3.735  24.482  0.00  0.00    +0.015 A 
ATOM      6  C   UNL     1      -0.674   2.923  24.551  0.00  0.00    +0.006 A 
ATOM      7  C   UNL     1      -1.235   2.636  25.083  0.00  0.00    +0.055 A 
ATOM      8  C   UNL     1      -1.671   3.161  25.546  0.00  0.00    +0.006 A 
ATOM      9  C   UNL     1      -1.546   3.973  25.478  0.00  0.00    +0.015 A 
BRANCH   4   2
ATOM      1  C   UNL     1      -1.453   5.602  25.097  0.00  0.00    +0.112 C 
ATOM      2  N   UNL     1      -0.859   5.073  24.877  0.00  0.00    -0.304 N 
ATOM      3  C   UNL     1      -0.140   5.357  24.587  0.00  0.00    +0.112 C 
ENDBRANCH   4   2
ENDBRANCH  10   7
ENDBRANCH  13  12
BRANCH  18  19
ATOM     19  C   UNL     1      -3.021  -1.269  24.247  0.00  0.00    +0.027 C 
BRANCH  19  20
ATOM     20  C   UNL     1      -3.655  -1.237  24.775  0.00  0.00    +0.088 C 
BRANCH  20  21
ATOM     21  C   UNL     1      -4.339  -0.821  24.574  0.00  0.00    +0.242 C 
ATOM     22  O   UNL     1      -4.874  -1.143  24.037  0.00  0.00    -0.273 OA
ATOM     23  N   UNL     1      -4.486  -0.082  24.911  0.00  0.00    -0.201 NA
BRANCH  23  24
ATOM     24  C   UNL     1      -5.170   0.333  24.710  0.00  0.00    +0.141 C 
BRANCH  24  25
ATOM     25  C   UNL     1      -5.251   1.124  24.931  0.00  0.00    -0.000 A 
ATOM     26  C   UNL     1      -4.967   1.721  24.437  0.00  0.00    -0.000 A 
ATOM     27  C   UNL     1      -5.048   2.512  24.658  0.00  0.00    +0.029 A 
ATOM     28  C   UNL     1      -5.414   2.706  25.371  0.00  0.00    +0.140 A 
ATOM     29  F   UNL     1      -5.495   3.496  25.592  0.00  0.00    -0.204 F 
ATOM     30  C   UNL     1      -5.698   2.108  25.864  0.00  0.00    +0.029 A 
ATOM     31  C   UNL     1      -5.617   1.318  25.644  0.00  0.00    -0.000 A 
ENDBRANCH  24  25
ENDBRANCH  23  24
ENDBRANCH  20  21
ENDBRANCH  19  20
ENDBRANCH  18  19
TORSDOF 8
ENDMDL
MODEL 8
REMARK VINA RESULT:      -9.9      1.435      4.585
REMARK  Name = 
REMARK  8 active torsions:
REMARK  status: ('A' for Active; 'I' for Inactive)
REMARK    1  A    between atoms: N_2  and  C_4
REMARK    2  A    between atoms: C_7  and  C_10
REMARK    3  A    between atoms: N_12  and  C_13
REMARK    4  A    between atoms: C_18  and  C_19
REMARK    5  A    between atoms: C_19  and  C_20
REMARK    6  A    between atoms: C_20  and  C_21
REMARK    7  A    between atoms: N_23  and  C_24
REMARK    8  A    between atoms: C_24  and  C_25
REMARK                            x       y       z     vdW  Elec       q    Type
REMARK                         _______ _______ _______ _____ _____    ______ ____
ROOT
ATOM     13  C   UNL     1      -1.608   2.271  24.968  0.00  0.00    +0.113 C 
ATOM     14  C   UNL     1      -1.000   2.682  24.591  0.00  0.00    +0.048 C 
ATOM     15  C   UNL     1      -0.377   2.156  24.465  0.00  0.00    +0.138 C 
ATOM     16  N   UNL     1      -0.600   1.420  24.766  0.00  0.00    -0.265 NA
ATOM     17  C   UNL     1      -1.361   1.492  25.076  0.00  0.00    +0.094 C 
ATOM     18  C   UNL     1      -0.081   0.780  24.717  0.00  0.00    +0.080 C 
ATOM     32  C   UNL     1       0.660   0.876  24.369  0.00  0.00    +0.131 C 
ATOM     33  N   UNL     1       0.883   1.611  24.069  0.00  0.00    -0.203 NA
ATOM     34  C   UNL     1       0.365   2.251  24.117  0.00  0.00    +0.256 C 
ATOM     35  O   UNL     1       0.588   2.986  23.817  0.00  0.00    -0.272 OA
ENDROOT
BRANCH  13  12
ATOM     10  C   UNL     1      -2.994   2.502  24.708  0.00  0.00    +0.265 C 
ATOM     11  O   UNL     1      -2.926   2.103  23.990  0.00  0.00    -0.268 OA
ATOM     12  N   UNL     1      -2.335   2.586  25.197  0.00  0.00    -0.202 NA
BRANCH  10   7
ATOM      4  C   UNL     1      -5.174   3.449  25.398  0.00  0.00    +0.048 A 
ATOM      5  C   UNL     1      -5.109   2.644  25.230  0.00  0.00    +0.015 A 
ATOM      6  C   UNL     1      -4.382   2.329  25.000  0.00  0.00    +0.006 A 
ATOM      7  C   UNL     1      -3.721   2.817  24.938  0.00  0.00    +0.055 A 
ATOM      8  C   UNL     1      -3.786   3.622  25.106  0.00  0.00    +0.006 A 
ATOM      9  C   UNL     1      -4.512   3.939  25.336  0.00  0.00    +0.015 A 
BRANCH   4   2
ATOM      1  C   UNL     1      -6.492   3.272  25.922  0.00  0.00    +0.112 C 
ATOM      2  N   UNL     1      -5.900   3.766  25.628  0.00  0.00    -0.304 N 
ATOM      3  C   UNL     1      -6.034   4.578  25.564  0.00  0.00    +0.112 C 
ENDBRANCH   4   2
ENDBRANCH  10   7
ENDBRANCH  13  12
BRANCH  18  19
ATOM     19  C   UNL     1      -0.305   0.045  25.017  0.00  0.00    +0.027 C 
BRANCH  19  20
ATOM     20  C   UNL     1      -0.346  -0.610  24.516  0.00  0.00    +0.088 C 
BRANCH  20  21
ATOM     21  C   UNL     1      -0.783  -1.274  24.739  0.00  0.00    +0.242 C 
ATOM     22  O   UNL     1      -0.452  -1.833  25.246  0.00  0.00    -0.273 OA
ATOM     23  N   UNL     1      -1.550  -1.376  24.455  0.00  0.00    -0.201 NA
BRANCH  23  24
ATOM     24  C   UNL     1      -1.987  -2.039  24.679  0.00  0.00    +0.141 C 
BRANCH  24  25
ATOM     25  C   UNL     1      -2.774  -2.114  24.441  0.00  0.00    -0.000 A 
ATOM     26  C   UNL     1      -3.251  -1.443  24.380  0.00  0.00    -0.000 A 
ATOM     27  C   UNL     1      -4.038  -1.518  24.143  0.00  0.00    +0.029 A 
ATOM     28  C   UNL     1      -4.347  -2.262  23.967  0.00  0.00    +0.140 A 
ATOM     29  F   UNL     1      -5.134  -2.336  23.730  0.00  0.00    -0.204 F 
ATOM     30  C   UNL     1      -3.869  -2.932  24.029  0.00  0.00    +0.029 A 
ATOM     31  C   UNL     1      -3.083  -2.858  24.265  0.00  0.00    -0.000 A 
ENDBRANCH  24  25
ENDBRANCH  23  24
ENDBRANCH  20  21
ENDBRANCH  19  20
ENDBRANCH  18  19
TORSDOF 8
ENDMDL
MODEL 9
REMARK VINA RESULT:      -7.7     16.509     18.669
REMARK  Name = 
REMARK  8 active torsions:
REMARK  status: ('A' for Active; 'I' for Inactive)
REMARK    1  A    between atoms: N_2  and  C_4
REMARK    2  A    between atoms: C_7  and  C_10
REMARK    3  A    between atoms: N_12  and  C_13
REMARK    4  A    between atoms: C_18  and  C_19
REMARK    5  A    between atoms: C_19  and  C_20
REMARK    6  A    between atoms: C_20  and  C_21
REMARK    7  A    between atoms: N_23  and  C_24
REMARK    8  A    between atoms: C_24  and  C_25
REMARK                            x       y       z     vdW  Elec       q    Type
REMARK                         _______ _______ _______ _____ _____    ______ ____
ROOT
ATOM     13  C   UNL     1      14.757   7.617  18.674  0.00  0.00    +0.113 C 
ATOM     14  C   UNL     1      15.288   7.001  18.533  0.00  0.00    +0.048 C 
ATOM     15  C   UNL     1      15.739   6.892  19.215  0.00  0.00    +0.138 C 
ATOM     16  N   UNL     1      15.487   7.440  19.778  0.00  0.00    -0.265 NA
ATOM     17  C   UNL     1      14.880   7.888  19.444  0.00  0.00    +0.094 C 
ATOM     18  C   UNL     1      15.843   7.459  20.522  0.00  0.00    +0.080 C 
ATOM     32  C   UNL     1      16.450   6.931  20.703  0.00  0.00    +0.131 C 
ATOM     33  N   UNL     1      16.702   6.384  20.140  0.00  0.00    -0.203 NA
ATOM     34  C   UNL     1      16.347   6.364  19.396  0.00  0.00    +0.256 C 
ATOM     35  O   UNL     1      16.598   5.816  18.833  0.00  0.00    -0.272 OA
ENDROOT
BRANCH  13  12
ATOM     10  C   UNL     1      13.404   7.721  18.228  0.00  0.00    +0.265 C 
ATOM     11  O   UNL     1      13.161   7.239  18.851  0.00  0.00    -0.268 OA
ATOM     12  N   UNL     1      14.202   7.910  18.140  0.00  0.00    -0.202 NA
BRANCH  10   7
ATOM      4  C   UNL     1      11.740   8.602  16.621  0.00  0.00    +0.048 A 
ATOM      5  C   UNL     1      11.504   8.382  17.380  0.00  0.00    +0.015 A 
ATOM      6  C   UNL     1      12.059   8.088  17.916  0.00  0.00    +0.006 A 
ATOM      7  C   UNL     1      12.849   8.015  17.693  0.00  0.00    +0.055 A 
ATOM      8  C   UNL     1      13.085   8.235  16.934  0.00  0.00    +0.006 A 
ATOM      9  C   UNL     1      12.532   8.529  16.398  0.00  0.00    +0.015 A 
BRANCH   4   2
ATOM      1  C   UNL     1      11.418   9.092  15.318  0.00  0.00    +0.112 C 
ATOM      2  N   UNL     1      11.187   8.896  16.085  0.00  0.00    -0.304 N 
ATOM      3  C   UNL     1      10.400   8.993  16.316  0.00  0.00    +0.112 C 
ENDBRANCH   4   2
ENDBRANCH  10   7
ENDBRANCH  13  12
BRANCH  18  19
ATOM     19  C   UNL     1      15.590   8.007  21.085  0.00  0.00    +0.027 C 
BRANCH  19  20
ATOM     20  C   UNL     1      15.234   7.747  21.782  0.00  0.00    +0.088 C 
BRANCH  20  21
ATOM     21  C   UNL     1      14.636   8.196  22.133  0.00  0.00    +0.242 C 
ATOM     22  O   UNL     1      14.829   8.796  22.664  0.00  0.00    -0.273 OA
ATOM     23  N   UNL     1      13.846   8.044  21.951  0.00  0.00    -0.201 NA
BRANCH  23  24
ATOM     24  C   UNL     1      13.250   8.493  22.301  0.00  0.00    +0.141 C 
BRANCH  24  25
ATOM     25  C   UNL     1      12.473   8.431  22.028  0.00  0.00    -0.000 A 
ATOM     26  C   UNL     1      12.094   9.093  21.713  0.00  0.00    -0.000 A 
ATOM     27  C   UNL     1      11.317   9.031  21.440  0.00  0.00    +0.029 A 
ATOM     28  C   UNL     1      10.921   8.308  21.482  0.00  0.00    +0.140 A 
ATOM     29  F   UNL     1      10.145   8.247  21.209  0.00  0.00    -0.204 F 
ATOM     30  C   UNL     1      11.301   7.648  21.797  0.00  0.00    +0.029 A 
ATOM     31  C   UNL     1      12.077   7.709  22.070  0.00  0.00    -0.000 A 
ENDBRANCH  24  25
ENDBRANCH  23  24
ENDBRANCH  20  21
ENDBRANCH  19  20
ENDBRANCH  18  19
TORSDOF 8
ENDMDL
