REMARK  Name = 
REMARK  6 active torsions:
REMARK  status: ('A' for Active; 'I' for Inactive)
REMARK    1  A    between atoms: C_2  and  C_7
REMARK    2  A    between atoms: N_9  and  C_10
REMARK    3  A    between atoms: C_10  and  C_11
REMARK    4  A    between atoms: C_18  and  C_19
REMARK    5  A    between atoms: N_21  and  C_22
REMARK    6  A    between atoms: C_22  and  C_23
REMARK                            x       y       z     vdW  Elec       q    Type
REMARK                         _______ _______ _______ _____ _____    ______ ____
ROOT
ATOM     11  C   UNL     1       1.814  -2.106   0.000  0.00  0.00    +0.082 C 
ATOM     12  C   UNL     1       1.661  -1.343   0.000  0.00  0.00    +0.019 C 
ATOM     13  C   UNL     1       0.923  -1.010   0.000  0.00  0.00    +0.013 C 
ATOM     14  C   UNL     1       0.961  -0.114   0.000  0.00  0.00    +0.018 C 
ATOM     15  C   UNL     1       1.205  -0.720   0.000  0.00  0.00    +0.072 C 
ATOM     16  N   UNL     1       1.065  -1.759   0.000  0.00  0.00    -0.272 NA
ATOM     17  C   UNL     1       0.226  -2.118   0.000  0.00  0.00    +0.081 C 
ATOM     18  C   UNL     1       0.119  -1.362   0.000  0.00  0.00    +0.094 C 
ENDROOT
BRANCH  18  19
ATOM     19  C   UNL     1      -0.602  -0.960   0.000  0.00  0.00    +0.243 C 
ATOM     20  O   UNL     1      -1.310  -1.384   0.000  0.00  0.00    -0.273 OA
ATOM     21  N   UNL     1      -0.614  -0.136   0.000  0.00  0.00    -0.201 NA
BRANCH  21  22
ATOM     22  C   UNL     1      -1.335   0.266   0.000  0.00  0.00    +0.141 C 
BRANCH  22  23
ATOM     23  C   UNL     1      -1.347   1.091   0.000  0.00  0.00    -0.000 A 
ATOM     24  C   UNL     1      -2.067   1.493   0.000  0.00  0.00    -0.000 A 
ATOM     25  C   UNL     1      -2.080   2.318   0.000  0.00  0.00    +0.029 A 
ATOM     26  C   UNL     1      -1.372   2.741   0.000  0.00  0.00    +0.140 A 
ATOM     27  F   UNL     1      -1.384   3.566   0.000  0.00  0.00    -0.204 F 
ATOM     28  C   UNL     1      -0.651   2.339   0.000  0.00  0.00    +0.029 A 
ATOM     29  C   UNL     1      -0.639   1.514   0.000  0.00  0.00    -0.000 A 
ENDBRANCH  22  23
ENDBRANCH  21  22
ENDBRANCH  18  19
BRANCH  11  10
ATOM     10  C   UNL     1       2.324  -2.754   0.000  0.00  0.00    +0.145 C 
BRANCH  10   9
ATOM      7  C   UNL     1       1.164  -4.546   0.000  0.00  0.00    +0.128 A 
ATOM      8  C   UNL     1       1.219  -3.722   0.000  0.00  0.00    +0.116 A 
ATOM      9  N   UNL     1       2.018  -3.520   0.000  0.00  0.00    -0.229 N 
ATOM     30  N   UNL     1       2.458  -4.218   0.000  0.00  0.00    -0.064 NA
ATOM     31  N   UNL     1       1.930  -4.852   0.000  0.00  0.00    -0.131 NA
BRANCH   7   2
ATOM      1  O   UNL     1       0.102  -4.245   0.000  0.00  0.00    -0.220 OA
ATOM      2  C   UNL     1       0.466  -4.986   0.000  0.00  0.00    +0.165 C 
ATOM      3  C   UNL     1       0.977  -5.634   0.000  0.00  0.00    +0.036 C 
ATOM      4  C   UNL     1       0.518  -6.319   0.000  0.00  0.00    +0.003 C 
ATOM      5  C   UNL     1      -0.276  -6.095   0.000  0.00  0.00    +0.003 C 
ATOM      6  C   UNL     1      -0.308  -5.271   0.000  0.00  0.00    +0.036 C 
ENDBRANCH   7   2
ENDBRANCH  10   9
ENDBRANCH  11  10
TORSDOF 6
