MODEL 1
REMARK VINA RESULT:     -11.0      0.000      0.000
REMARK  Name = 
REMARK  6 active torsions:
REMARK  status: ('A' for Active; 'I' for Inactive)
REMARK    1  A    between atoms: C_2  and  C_5
REMARK    2  A    between atoms: C_7  and  C_8
REMARK    3  A    between atoms: C_8  and  C_9
REMARK    4  A    between atoms: C_9  and  N_13
REMARK    5  A    between atoms: N_13  and  C_14
REMARK    6  A    between atoms: C_14  and  C_15
REMARK                            x       y       z     vdW  Elec       q    Type
REMARK                         _______ _______ _______ _____ _____    ______ ____
ROOT
ATOM      9  C   UNL     1      -4.528   1.627  24.735  0.00  0.00    +0.120 C 
ATOM     10  C   UNL     1      -5.246   1.347  25.032  0.00  0.00    +0.161 C 
ATOM     11  O   UNL     1      -5.617   2.044  24.793  0.00  0.00    -0.351 OA
ATOM     12  C   UNL     1      -4.900   2.324  24.496  0.00  0.00    +0.161 C 
ENDROOT
BRANCH   9   8
ATOM      8  C   UNL     1      -3.812   1.907  24.438  0.00  0.00    +0.070 C 
BRANCH   8   7
ATOM      5  C   UNL     1      -2.420   3.316  25.236  0.00  0.00    +0.153 A 
ATOM      6  C   UNL     1      -2.621   2.733  24.687  0.00  0.00    +0.054 A 
ATOM      7  C   UNL     1      -3.390   2.484  24.851  0.00  0.00    +0.102 A 
ATOM     22  N   UNL     1      -3.664   2.911  25.501  0.00  0.00    -0.082 NA
ATOM     23  O   UNL     1      -3.065   3.425  25.739  0.00  0.00    -0.358 OA
BRANCH   5   2
ATOM      1  C   UNL     1      -0.982   4.120  25.314  0.00  0.00    +0.008 C 
ATOM      2  C   UNL     1      -1.701   3.718  25.275  0.00  0.00    +0.054 C 
ATOM      3  C   UNL     1      -1.327   3.027  25.527  0.00  0.00    +0.008 C 
ATOM      4  C   UNL     1      -2.075   4.408  25.023  0.00  0.00    +0.008 C 
ENDBRANCH   5   2
ENDBRANCH   8   7
ENDBRANCH   9   8
BRANCH   9  13
ATOM     13  N   UNL     1      -4.157   0.930  24.974  0.00  0.00    -0.211 NA
BRANCH  13  14
ATOM     14  C   UNL     1      -4.377   0.210  24.636  0.00  0.00    +0.116 C 
BRANCH  14  15
ATOM     15  C   UNL     1      -4.019  -0.489  24.889  0.00  0.00    +0.006 A 
ATOM     16  C   UNL     1      -3.704  -0.539  25.650  0.00  0.00    -0.002 A 
ATOM     17  C   UNL     1      -3.346  -1.238  25.904  0.00  0.00    -0.000 A 
ATOM     18  C   UNL     1      -3.303  -1.887  25.395  0.00  0.00    +0.001 A 
ATOM     19  C   UNL     1      -3.619  -1.837  24.634  0.00  0.00    +0.011 A 
ATOM     20  C   UNL     1      -3.976  -1.137  24.382  0.00  0.00    +0.055 A 
ATOM     21 CL   UNL     1      -4.292  -1.088  23.621  0.00  0.00    -0.083 Cl
ENDBRANCH  14  15
ENDBRANCH  13  14
ENDBRANCH   9  13
TORSDOF 6
ENDMDL
MODEL 2
REMARK VINA RESULT:     -10.8      1.511      4.309
REMARK  Name = 
REMARK  6 active torsions:
REMARK  status: ('A' for Active; 'I' for Inactive)
REMARK    1  A    between atoms: C_2  and  C_5
REMARK    2  A    between atoms: C_7  and  C_8
REMARK    3  A    between atoms: C_8  and  C_9
REMARK    4  A    between atoms: C_9  and  N_13
REMARK    5  A    between atoms: N_13  and  C_14
REMARK    6  A    between atoms: C_14  and  C_15
REMARK                            x       y       z     vdW  Elec       q    Type
REMARK                         _______ _______ _______ _____ _____    ______ ____
ROOT
ATOM      9  C   UNL     1      -4.434   1.834  24.856  0.00  0.00    +0.120 C 
ATOM     10  C   UNL     1      -4.748   2.494  24.472  0.00  0.00    +0.161 C 
ATOM     11  O   UNL     1      -5.499   2.153  24.501  0.00  0.00    -0.351 OA
ATOM     12  C   UNL     1      -5.185   1.494  24.884  0.00  0.00    +0.161 C 
ENDROOT
BRANCH   9   8
ATOM      8  C   UNL     1      -4.120   1.175  25.239  0.00  0.00    +0.070 C 
BRANCH   8   7
ATOM      5  C   UNL     1      -3.836  -0.823  24.541  0.00  0.00    +0.153 A 
ATOM      6  C   UNL     1      -3.941  -0.282  25.155  0.00  0.00    +0.054 A 
ATOM      7  C   UNL     1      -4.009   0.470  24.824  0.00  0.00    +0.102 A 
ATOM     22  N   UNL     1      -3.945   0.395  24.006  0.00  0.00    -0.082 NA
ATOM     23  O   UNL     1      -3.838  -0.404  23.830  0.00  0.00    -0.358 OA
BRANCH   5   2
ATOM      1  C   UNL     1      -3.653  -2.454  24.704  0.00  0.00    +0.008 C 
ATOM      2  C   UNL     1      -3.744  -1.638  24.623  0.00  0.00    +0.054 C 
ATOM      3  C   UNL     1      -3.298  -1.521  25.306  0.00  0.00    +0.008 C 
ATOM      4  C   UNL     1      -4.191  -1.756  23.939  0.00  0.00    +0.008 C 
ENDBRANCH   5   2
ENDBRANCH   8   7
ENDBRANCH   9   8
BRANCH   9  13
ATOM     13  N   UNL     1      -3.683   2.175  24.827  0.00  0.00    -0.211 NA
BRANCH  13  14
ATOM     14  C   UNL     1      -3.548   2.903  25.192  0.00  0.00    +0.116 C 
BRANCH  14  15
ATOM     15  C   UNL     1      -2.792   3.233  25.183  0.00  0.00    +0.006 A 
ATOM     16  C   UNL     1      -2.234   2.969  24.635  0.00  0.00    -0.002 A 
ATOM     17  C   UNL     1      -1.477   3.299  24.625  0.00  0.00    -0.000 A 
ATOM     18  C   UNL     1      -1.279   3.892  25.163  0.00  0.00    +0.001 A 
ATOM     19  C   UNL     1      -1.837   4.156  25.711  0.00  0.00    +0.011 A 
ATOM     20  C   UNL     1      -2.594   3.826  25.720  0.00  0.00    +0.055 A 
ATOM     21 CL   UNL     1      -3.152   4.089  26.268  0.00  0.00    -0.083 Cl
ENDBRANCH  14  15
ENDBRANCH  13  14
ENDBRANCH   9  13
TORSDOF 6
ENDMDL
MODEL 3
REMARK VINA RESULT:     -10.2      2.078      4.436
REMARK  Name = 
REMARK  6 active torsions:
REMARK  status: ('A' for Active; 'I' for Inactive)
REMARK    1  A    between atoms: C_2  and  C_5
REMARK    2  A    between atoms: C_7  and  C_8
REMARK    3  A    between atoms: C_8  and  C_9
REMARK    4  A    between atoms: C_9  and  N_13
REMARK    5  A    between atoms: N_13  and  C_14
REMARK    6  A    between atoms: C_14  and  C_15
REMARK                            x       y       z     vdW  Elec       q    Type
REMARK                         _______ _______ _______ _____ _____    ______ ____
ROOT
ATOM      9  C   UNL     1      -3.086   1.306  23.883  0.00  0.00    +0.120 C 
ATOM     10  C   UNL     1      -3.134   1.888  23.300  0.00  0.00    +0.161 C 
ATOM     11  O   UNL     1      -2.462   1.577  22.935  0.00  0.00    -0.351 OA
ATOM     12  C   UNL     1      -2.415   0.995  23.518  0.00  0.00    +0.161 C 
ENDROOT
BRANCH   9   8
ATOM      8  C   UNL     1      -3.039   0.724  24.466  0.00  0.00    +0.070 C 
BRANCH   8   7
ATOM      5  C   UNL     1      -3.560  -1.345  24.416  0.00  0.00    +0.153 A 
ATOM      6  C   UNL     1      -3.173  -0.708  24.769  0.00  0.00    +0.054 A 
ATOM      7  C   UNL     1      -3.321  -0.036  24.314  0.00  0.00    +0.102 A 
ATOM     22  N   UNL     1      -3.800  -0.257  23.680  0.00  0.00    -0.082 NA
ATOM     23  O   UNL     1      -3.948  -1.066  23.743  0.00  0.00    -0.358 OA
BRANCH   5   2
ATOM      1  C   UNL     1      -3.561  -2.902  24.961  0.00  0.00    +0.008 C 
ATOM      2  C   UNL     1      -3.561  -2.124  24.688  0.00  0.00    +0.054 C 
ATOM      3  C   UNL     1      -3.863  -2.378  23.964  0.00  0.00    +0.008 C 
ATOM      4  C   UNL     1      -3.258  -1.870  25.412  0.00  0.00    +0.008 C 
ENDBRANCH   5   2
ENDBRANCH   8   7
ENDBRANCH   9   8
BRANCH   9  13
ATOM     13  N   UNL     1      -3.758   1.617  24.248  0.00  0.00    -0.211 NA
BRANCH  13  14
ATOM     14  C   UNL     1      -3.749   2.391  24.535  0.00  0.00    +0.116 C 
BRANCH  14  15
ATOM     15  C   UNL     1      -4.408   2.691  24.931  0.00  0.00    +0.006 A 
ATOM     16  C   UNL     1      -5.138   2.313  24.859  0.00  0.00    -0.002 A 
ATOM     17  C   UNL     1      -5.799   2.612  25.253  0.00  0.00    -0.000 A 
ATOM     18  C   UNL     1      -5.728   3.289  25.720  0.00  0.00    +0.001 A 
ATOM     19  C   UNL     1      -4.997   3.667  25.792  0.00  0.00    +0.011 A 
ATOM     20  C   UNL     1      -4.338   3.367  25.396  0.00  0.00    +0.055 A 
ATOM     21 CL   UNL     1      -3.608   3.745  25.468  0.00  0.00    -0.083 Cl
ENDBRANCH  14  15
ENDBRANCH  13  14
ENDBRANCH   9  13
TORSDOF 6
ENDMDL
MODEL 4
REMARK VINA RESULT:     -10.1      1.679      2.630
REMARK  Name = 
REMARK  6 active torsions:
REMARK  status: ('A' for Active; 'I' for Inactive)
REMARK    1  A    between atoms: C_2  and  C_5
REMARK    2  A    between atoms: C_7  and  C_8
REMARK    3  A    between atoms: C_8  and  C_9
REMARK    4  A    between atoms: C_9  and  N_13
REMARK    5  A    between atoms: N_13  and  C_14
REMARK    6  A    between atoms: C_14  and  C_15
REMARK                            x       y       z     vdW  Elec       q    Type
REMARK                         _______ _______ _______ _____ _____    ______ ____
ROOT
ATOM      9  C   UNL     1      -2.508   0.894  24.287  0.00  0.00    +0.120 C 
ATOM     10  C   UNL     1      -2.036   0.628  23.663  0.00  0.00    +0.161 C 
ATOM     11  O   UNL     1      -1.575   1.309  23.722  0.00  0.00    -0.351 OA
ATOM     12  C   UNL     1      -2.045   1.575  24.344  0.00  0.00    +0.161 C 
ENDROOT
BRANCH   9   8
ATOM      8  C   UNL     1      -2.978   1.160  24.909  0.00  0.00    +0.070 C 
BRANCH   8   7
ATOM      5  C   UNL     1      -4.600   2.548  24.947  0.00  0.00    +0.153 A 
ATOM      6  C   UNL     1      -4.132   1.977  25.314  0.00  0.00    +0.054 A 
ATOM      7  C   UNL     1      -3.562   1.727  24.773  0.00  0.00    +0.102 A 
ATOM     22  N   UNL     1      -3.677   2.143  24.070  0.00  0.00    -0.082 NA
ATOM     23  O   UNL     1      -4.319   2.651  24.178  0.00  0.00    -0.358 OA
BRANCH   5   2
ATOM      1  C   UNL     1      -5.875   3.343  25.628  0.00  0.00    +0.008 C 
ATOM      2  C   UNL     1      -5.237   2.946  25.287  0.00  0.00    +0.054 C 
ATOM      3  C   UNL     1      -4.771   3.621  25.371  0.00  0.00    +0.008 C 
ATOM      4  C   UNL     1      -5.703   2.270  25.203  0.00  0.00    +0.008 C 
ENDBRANCH   5   2
ENDBRANCH   8   7
ENDBRANCH   9   8
BRANCH   9  13
ATOM     13  N   UNL     1      -2.969   0.213  24.228  0.00  0.00    -0.211 NA
BRANCH  13  14
ATOM     14  C   UNL     1      -2.644  -0.522  24.414  0.00  0.00    +0.116 C 
BRANCH  14  15
ATOM     15  C   UNL     1      -3.104  -1.204  24.351  0.00  0.00    +0.006 A 
ATOM     16  C   UNL     1      -3.812  -1.186  23.928  0.00  0.00    -0.002 A 
ATOM     17  C   UNL     1      -4.274  -1.867  23.865  0.00  0.00    -0.000 A 
ATOM     18  C   UNL     1      -4.026  -2.567  24.225  0.00  0.00    +0.001 A 
ATOM     19  C   UNL     1      -3.318  -2.585  24.649  0.00  0.00    +0.011 A 
ATOM     20  C   UNL     1      -2.857  -1.903  24.711  0.00  0.00    +0.055 A 
ATOM     21 CL   UNL     1      -2.149  -1.922  25.134  0.00  0.00    -0.083 Cl
ENDBRANCH  14  15
ENDBRANCH  13  14
ENDBRANCH   9  13
TORSDOF 6
ENDMDL
