MODEL 1
REMARK VINA RESULT:      -9.4      0.000      0.000
REMARK  Name = 
REMARK  8 active torsions:
REMARK  status: ('A' for Active; 'I' for Inactive)
REMARK    1  A    between atoms: N_2  and  C_3
REMARK    2  A    between atoms: N_2  and  C_25
REMARK    3  A    between atoms: C_3  and  C_4
REMARK    4  A    between atoms: N_6  and  C_9
REMARK    5  A    between atoms: C_13  and  N_17
REMARK    6  A    between atoms: N_17  and  C_18
REMARK    7  A    between atoms: C_18  and  C_19
REMARK    8  A    between atoms: C_25  and  C_26
REMARK                            x       y       z     vdW  Elec       q    Type
REMARK                         _______ _______ _______ _____ _____    ______ ____
ROOT
ATOM      9  C   UNL     1      -0.149   0.944  23.959  0.00  0.00    +0.166 C 
ATOM     10  C   UNL     1       0.258   1.567  24.316  0.00  0.00    +0.169 C 
ATOM     11  O   UNL     1       1.048   1.520  24.086  0.00  0.00    -0.350 OA
ATOM     12  C   UNL     1       1.131   0.870  23.586  0.00  0.00    +0.163 C 
ATOM     13  C   UNL     1       1.669   0.439  23.134  0.00  0.00    +0.132 C 
ATOM     14  C   UNL     1       1.263  -0.184  22.776  0.00  0.00    +0.162 C 
ATOM     15  O   UNL     1       0.473  -0.137  23.007  0.00  0.00    -0.350 OA
ATOM     16  C   UNL     1       0.391   0.514  23.508  0.00  0.00    +0.168 C 
ENDROOT
BRANCH   9   6
ATOM      4  C   UNL     1      -2.283   0.882  23.966  0.00  0.00    +0.117 A 
ATOM      5  C   UNL     1      -1.574   1.254  23.769  0.00  0.00    +0.115 A 
ATOM      6  N   UNL     1      -0.954   0.781  24.039  0.00  0.00    -0.227 N 
ATOM      7  N   UNL     1      -1.279   0.117  24.403  0.00  0.00    -0.064 NA
ATOM      8  N   UNL     1      -2.101   0.178  24.358  0.00  0.00    -0.132 NA
BRANCH   4   3
ATOM      3  C   UNL     1      -3.041   1.163  23.800  0.00  0.00    +0.122 C 
BRANCH   3   2
ATOM      1  C   UNL     1      -3.264   2.571  23.896  0.00  0.00    +0.090 C 
ATOM      2  N   UNL     1      -3.339   1.813  24.212  0.00  0.00    -0.263 NA
BRANCH   2  25
ATOM     25  C   UNL     1      -3.711   1.704  24.941  0.00  0.00    +0.099 C 
BRANCH  25  26
ATOM     26  C   UNL     1      -4.470   2.003  25.065  0.00  0.00    -0.006 A 
ATOM     27  C   UNL     1      -5.129   1.548  24.871  0.00  0.00    -0.003 A 
ATOM     28  C   UNL     1      -5.889   1.848  24.995  0.00  0.00    -0.000 A 
ATOM     29  C   UNL     1      -5.987   2.604  25.312  0.00  0.00    -0.000 A 
ATOM     30  C   UNL     1      -5.326   3.058  25.506  0.00  0.00    -0.000 A 
ATOM     31  C   UNL     1      -4.568   2.759  25.382  0.00  0.00    -0.003 A 
ENDBRANCH  25  26
ENDBRANCH   2  25
ENDBRANCH   3   2
ENDBRANCH   4   3
ENDBRANCH   9   6
BRANCH  13  17
ATOM     17  N   UNL     1       2.474   0.602  23.054  0.00  0.00    -0.214 NA
BRANCH  17  18
ATOM     18  C   UNL     1       2.999   0.000  22.845  0.00  0.00    +0.089 C 
BRANCH  18  19
ATOM     19  C   UNL     1       3.790   0.045  23.073  0.00  0.00    +0.017 C 
ATOM     20  C   UNL     1       4.149  -0.598  23.445  0.00  0.00    +0.001 C 
ATOM     21  C   UNL     1       4.941  -0.555  23.673  0.00  0.00    +0.000 C 
ATOM     22  C   UNL     1       5.374   0.133  23.530  0.00  0.00    +0.000 C 
ATOM     23  C   UNL     1       5.014   0.777  23.158  0.00  0.00    +0.000 C 
ATOM     24  C   UNL     1       4.223   0.733  22.930  0.00  0.00    +0.001 C 
ENDBRANCH  18  19
ENDBRANCH  17  18
ENDBRANCH  13  17
TORSDOF 8
ENDMDL
MODEL 2
REMARK VINA RESULT:      -9.3      1.689      2.357
REMARK  Name = 
REMARK  8 active torsions:
REMARK  status: ('A' for Active; 'I' for Inactive)
REMARK    1  A    between atoms: N_2  and  C_3
REMARK    2  A    between atoms: N_2  and  C_25
REMARK    3  A    between atoms: C_3  and  C_4
REMARK    4  A    between atoms: N_6  and  C_9
REMARK    5  A    between atoms: C_13  and  N_17
REMARK    6  A    between atoms: N_17  and  C_18
REMARK    7  A    between atoms: C_18  and  C_19
REMARK    8  A    between atoms: C_25  and  C_26
REMARK                            x       y       z     vdW  Elec       q    Type
REMARK                         _______ _______ _______ _____ _____    ______ ____
ROOT
ATOM      9  C   UNL     1      -0.361   1.523  24.246  0.00  0.00    +0.166 C 
ATOM     10  C   UNL     1       0.116   2.097  24.596  0.00  0.00    +0.169 C 
ATOM     11  O   UNL     1       0.894   1.960  24.357  0.00  0.00    -0.350 OA
ATOM     12  C   UNL     1       0.897   1.303  23.860  0.00  0.00    +0.163 C 
ATOM     13  C   UNL     1       1.379   0.811  23.405  0.00  0.00    +0.132 C 
ATOM     14  C   UNL     1       0.901   0.237  23.055  0.00  0.00    +0.162 C 
ATOM     15  O   UNL     1       0.124   0.374  23.294  0.00  0.00    -0.350 OA
ATOM     16  C   UNL     1       0.121   1.032  23.791  0.00  0.00    +0.168 C 
ENDROOT
BRANCH   9   6
ATOM      4  C   UNL     1      -2.382   1.010  24.709  0.00  0.00    +0.117 A 
ATOM      5  C   UNL     1      -1.571   0.871  24.770  0.00  0.00    +0.115 A 
ATOM      6  N   UNL     1      -1.179   1.452  24.335  0.00  0.00    -0.227 N 
ATOM      7  N   UNL     1      -1.747   1.950  24.005  0.00  0.00    -0.064 NA
ATOM      8  N   UNL     1      -2.491   1.677  24.236  0.00  0.00    -0.132 NA
BRANCH   4   3
ATOM      3  C   UNL     1      -2.979   0.560  25.059  0.00  0.00    +0.122 C 
BRANCH   3   2
ATOM      1  C   UNL     1      -3.504   0.230  23.772  0.00  0.00    +0.090 C 
ATOM      2  N   UNL     1      -3.489   0.115  24.589  0.00  0.00    -0.263 NA
BRANCH   2  25
ATOM     25  C   UNL     1      -3.986  -0.446  24.935  0.00  0.00    +0.099 C 
BRANCH  25  26
ATOM     26  C   UNL     1      -3.912  -1.243  24.732  0.00  0.00    -0.006 A 
ATOM     27  C   UNL     1      -4.247  -1.523  24.033  0.00  0.00    -0.003 A 
ATOM     28  C   UNL     1      -4.174  -2.320  23.829  0.00  0.00    -0.000 A 
ATOM     29  C   UNL     1      -3.764  -2.836  24.327  0.00  0.00    -0.000 A 
ATOM     30  C   UNL     1      -3.429  -2.555  25.026  0.00  0.00    -0.000 A 
ATOM     31  C   UNL     1      -3.503  -1.759  25.229  0.00  0.00    -0.003 A 
ENDBRANCH  25  26
ENDBRANCH   2  25
ENDBRANCH   3   2
ENDBRANCH   4   3
ENDBRANCH   9   6
BRANCH  13  17
ATOM     17  N   UNL     1       2.196   0.882  23.316  0.00  0.00    -0.214 NA
BRANCH  17  18
ATOM     18  C   UNL     1       2.627   0.274  22.961  0.00  0.00    +0.089 C 
BRANCH  18  19
ATOM     19  C   UNL     1       3.447   0.248  23.041  0.00  0.00    +0.017 C 
ATOM     20  C   UNL     1       3.906   0.889  22.797  0.00  0.00    +0.001 C 
ATOM     21  C   UNL     1       4.727   0.864  22.876  0.00  0.00    +0.000 C 
ATOM     22  C   UNL     1       5.089   0.197  23.200  0.00  0.00    +0.000 C 
ATOM     23  C   UNL     1       4.630  -0.445  23.445  0.00  0.00    +0.000 C 
ATOM     24  C   UNL     1       3.810  -0.418  23.365  0.00  0.00    +0.001 C 
ENDBRANCH  18  19
ENDBRANCH  17  18
ENDBRANCH  13  17
TORSDOF 8
ENDMDL
MODEL 3
REMARK VINA RESULT:      -9.1      0.999      7.280
REMARK  Name = 
REMARK  8 active torsions:
REMARK  status: ('A' for Active; 'I' for Inactive)
REMARK    1  A    between atoms: N_2  and  C_3
REMARK    2  A    between atoms: N_2  and  C_25
REMARK    3  A    between atoms: C_3  and  C_4
REMARK    4  A    between atoms: N_6  and  C_9
REMARK    5  A    between atoms: C_13  and  N_17
REMARK    6  A    between atoms: N_17  and  C_18
REMARK    7  A    between atoms: C_18  and  C_19
REMARK    8  A    between atoms: C_25  and  C_26
REMARK                            x       y       z     vdW  Elec       q    Type
REMARK                         _______ _______ _______ _____ _____    ______ ____
ROOT
ATOM      9  C   UNL     1      -0.571   0.477  24.097  0.00  0.00    +0.166 C 
ATOM     10  C   UNL     1      -0.785   0.147  24.822  0.00  0.00    +0.169 C 
ATOM     11  O   UNL     1      -1.519   0.457  25.035  0.00  0.00    -0.350 OA
ATOM     12  C   UNL     1      -1.759   0.978  24.443  0.00  0.00    +0.163 C 
ATOM     13  C   UNL     1      -2.360   1.491  24.208  0.00  0.00    +0.132 C 
ATOM     14  C   UNL     1      -2.146   1.822  23.483  0.00  0.00    +0.162 C 
ATOM     15  O   UNL     1      -1.412   1.512  23.270  0.00  0.00    -0.350 OA
ATOM     16  C   UNL     1      -1.172   0.990  23.863  0.00  0.00    +0.168 C 
ENDROOT
BRANCH   9   6
ATOM      4  C   UNL     1       1.386   0.380  23.248  0.00  0.00    +0.117 A 
ATOM      5  C   UNL     1       0.844   0.713  23.774  0.00  0.00    +0.115 A 
ATOM      6  N   UNL     1       0.124   0.321  23.680  0.00  0.00    -0.227 N 
ATOM      7  N   UNL     1       0.219  -0.252  23.095  0.00  0.00    -0.064 NA
ATOM      8  N   UNL     1       1.000  -0.217  22.828  0.00  0.00    -0.132 NA
BRANCH   4   3
ATOM      3  C   UNL     1       2.175   0.605  23.157  0.00  0.00    +0.122 C 
BRANCH   3   2
ATOM      1  C   UNL     1       2.750   0.139  21.935  0.00  0.00    +0.090 C 
ATOM      2  N   UNL     1       2.701   0.111  22.757  0.00  0.00    -0.263 NA
BRANCH   2  25
ATOM     25  C   UNL     1       3.178  -0.412  23.182  0.00  0.00    +0.099 C 
BRANCH  25  26
ATOM     26  C   UNL     1       3.971  -0.229  23.317  0.00  0.00    -0.006 A 
ATOM     27  C   UNL     1       4.278   0.491  23.058  0.00  0.00    -0.003 A 
ATOM     28  C   UNL     1       5.072   0.675  23.193  0.00  0.00    -0.000 A 
ATOM     29  C   UNL     1       5.557   0.137  23.588  0.00  0.00    -0.000 A 
ATOM     30  C   UNL     1       5.250  -0.583  23.847  0.00  0.00    -0.000 A 
ATOM     31  C   UNL     1       4.457  -0.767  23.712  0.00  0.00    -0.003 A 
ENDBRANCH  25  26
ENDBRANCH   2  25
ENDBRANCH   3   2
ENDBRANCH   4   3
ENDBRANCH   9   6
BRANCH  13  17
ATOM     17  N   UNL     1      -3.055   1.647  24.625  0.00  0.00    -0.214 NA
BRANCH  17  18
ATOM     18  C   UNL     1      -3.640   2.123  24.290  0.00  0.00    +0.089 C 
BRANCH  18  19
ATOM     19  C   UNL     1      -4.330   2.286  24.710  0.00  0.00    +0.017 C 
ATOM     20  C   UNL     1      -4.416   3.009  25.098  0.00  0.00    +0.001 C 
ATOM     21  C   UNL     1      -5.106   3.173  25.519  0.00  0.00    +0.000 C 
ATOM     22  C   UNL     1      -5.712   2.614  25.552  0.00  0.00    +0.000 C 
ATOM     23  C   UNL     1      -5.626   1.890  25.163  0.00  0.00    +0.000 C 
ATOM     24  C   UNL     1      -4.936   1.727  24.743  0.00  0.00    +0.001 C 
ENDBRANCH  18  19
ENDBRANCH  17  18
ENDBRANCH  13  17
TORSDOF 8
ENDMDL
MODEL 4
REMARK VINA RESULT:      -8.6      4.116      6.006
REMARK  Name = 
REMARK  8 active torsions:
REMARK  status: ('A' for Active; 'I' for Inactive)
REMARK    1  A    between atoms: N_2  and  C_3
REMARK    2  A    between atoms: N_2  and  C_25
REMARK    3  A    between atoms: C_3  and  C_4
REMARK    4  A    between atoms: N_6  and  C_9
REMARK    5  A    between atoms: C_13  and  N_17
REMARK    6  A    between atoms: N_17  and  C_18
REMARK    7  A    between atoms: C_18  and  C_19
REMARK    8  A    between atoms: C_25  and  C_26
REMARK                            x       y       z     vdW  Elec       q    Type
REMARK                         _______ _______ _______ _____ _____    ______ ____
ROOT
ATOM      9  C   UNL     1      -4.970   1.846  25.287  0.00  0.00    +0.166 C 
ATOM     10  C   UNL     1      -5.548   1.364  25.625  0.00  0.00    +0.169 C 
ATOM     11  O   UNL     1      -5.421   0.593  25.361  0.00  0.00    -0.350 OA
ATOM     12  C   UNL     1      -4.765   0.598  24.861  0.00  0.00    +0.163 C 
ATOM     13  C   UNL     1      -4.281   0.126  24.388  0.00  0.00    +0.132 C 
ATOM     14  C   UNL     1      -3.704   0.609  24.051  0.00  0.00    +0.162 C 
ATOM     15  O   UNL     1      -3.831   1.380  24.315  0.00  0.00    -0.350 OA
ATOM     16  C   UNL     1      -4.487   1.373  24.816  0.00  0.00    +0.168 C 
ENDROOT
BRANCH   9   6
ATOM      4  C   UNL     1      -4.371   3.857  25.684  0.00  0.00    +0.117 A 
ATOM      5  C   UNL     1      -4.203   3.051  25.639  0.00  0.00    +0.115 A 
ATOM      6  N   UNL     1      -4.890   2.660  25.402  0.00  0.00    -0.227 N 
ATOM      7  N   UNL     1      -5.483   3.224  25.301  0.00  0.00    -0.064 NA
ATOM      8  N   UNL     1      -5.162   3.964  25.474  0.00  0.00    -0.132 NA
BRANCH   4   3
ATOM      3  C   UNL     1      -3.841   4.452  25.900  0.00  0.00    +0.122 C 
BRANCH   3   2
ATOM      1  C   UNL     1      -3.146   4.684  24.674  0.00  0.00    +0.090 C 
ATOM      2  N   UNL     1      -3.134   4.543  25.486  0.00  0.00    -0.263 NA
BRANCH   2  25
ATOM     25  C   UNL     1      -2.413   4.494  25.886  0.00  0.00    +0.099 C 
BRANCH  25  26
ATOM     26  C   UNL     1      -1.706   4.484  25.461  0.00  0.00    -0.006 A 
ATOM     27  C   UNL     1      -1.395   5.185  25.160  0.00  0.00    -0.003 A 
ATOM     28  C   UNL     1      -0.687   5.175  24.735  0.00  0.00    -0.000 A 
ATOM     29  C   UNL     1      -0.292   4.461  24.610  0.00  0.00    -0.000 A 
ATOM     30  C   UNL     1      -0.604   3.759  24.911  0.00  0.00    -0.000 A 
ATOM     31  C   UNL     1      -1.311   3.770  25.336  0.00  0.00    -0.003 A 
ENDBRANCH  25  26
ENDBRANCH   2  25
ENDBRANCH   3   2
ENDBRANCH   4   3
ENDBRANCH   9   6
BRANCH  13  17
ATOM     17  N   UNL     1      -4.361  -0.687  24.273  0.00  0.00    -0.214 NA
BRANCH  17  18
ATOM     18  C   UNL     1      -3.714  -1.135  24.024  0.00  0.00    +0.089 C 
BRANCH  18  19
ATOM     19  C   UNL     1      -3.688  -1.944  24.177  0.00  0.00    +0.017 C 
ATOM     20  C   UNL     1      -4.151  -2.463  23.733  0.00  0.00    +0.001 C 
ATOM     21  C   UNL     1      -4.125  -3.274  23.886  0.00  0.00    +0.000 C 
ATOM     22  C   UNL     1      -3.637  -3.565  24.484  0.00  0.00    +0.000 C 
ATOM     23  C   UNL     1      -3.174  -3.045  24.929  0.00  0.00    +0.000 C 
ATOM     24  C   UNL     1      -3.200  -2.236  24.775  0.00  0.00    +0.001 C 
ENDBRANCH  18  19
ENDBRANCH  17  18
ENDBRANCH  13  17
TORSDOF 8
ENDMDL
