MODEL 1
REMARK VINA RESULT:      -9.0      0.000      0.000
REMARK  Name = 
REMARK  6 active torsions:
REMARK  status: ('A' for Active; 'I' for Inactive)
REMARK    1  A    between atoms: O_2  and  C_3
REMARK    2  A    between atoms: C_3  and  C_4
REMARK    3  A    between atoms: C_4  and  N_5
REMARK    4  A    between atoms: N_5  and  C_6
REMARK    5  A    between atoms: C_7  and  C_12
REMARK    6  A    between atoms: C_15  and  C_17
REMARK                            x       y       z     vdW  Elec       q    Type
REMARK                         _______ _______ _______ _____ _____    ______ ____
ROOT
ATOM      6  C   UNL     1      -4.166   2.463  25.121  0.00  0.00    +0.151 A 
ATOM      7  C   UNL     1      -4.612   1.816  24.869  0.00  0.00    +0.072 A 
ATOM      8  C   UNL     1      -5.430   1.811  24.979  0.00  0.00    +0.008 A 
ATOM      9  C   UNL     1      -5.801   2.452  25.340  0.00  0.00    +0.021 A 
ATOM     10  C   UNL     1      -5.356   3.099  25.592  0.00  0.00    +0.100 A 
ATOM     11  N   UNL     1      -4.538   3.104  25.482  0.00  0.00    -0.228 NA
ENDROOT
BRANCH   7  12
ATOM     12  C   UNL     1      -4.240   1.174  24.507  0.00  0.00    +0.206 A 
ATOM     13  N   UNL     1      -3.842   1.189  23.784  0.00  0.00    -0.056 NA
ATOM     14  O   UNL     1      -3.557   0.430  23.635  0.00  0.00    -0.336 OA
ATOM     15  C   UNL     1      -3.780  -0.054  24.265  0.00  0.00    +0.251 A 
ATOM     16  N   UNL     1      -4.202   0.406  24.803  0.00  0.00    -0.190 NA
BRANCH  15  17
ATOM     17  C   UNL     1      -3.610  -0.858  24.342  0.00  0.00    +0.138 C 
ATOM     18  C   UNL     1      -4.112  -1.482  24.142  0.00  0.00    +0.027 C 
ATOM     19  C   UNL     1      -3.719  -2.188  24.310  0.00  0.00    +0.019 C 
ATOM     20  C   UNL     1      -2.975  -2.002  24.613  0.00  0.00    +0.073 C 
ATOM     21  N   UNL     1      -2.907  -1.179  24.633  0.00  0.00    -0.265 NA
ATOM     22  C   UNL     1      -2.252  -0.753  24.897  0.00  0.00    +0.090 C 
ENDBRANCH  15  17
ENDBRANCH   7  12
BRANCH   6   5
ATOM      5  N   UNL     1      -3.349   2.468  25.011  0.00  0.00    -0.218 NA
BRANCH   5   4
ATOM      4  C   UNL     1      -2.901   3.108  25.278  0.00  0.00    +0.146 C 
BRANCH   4   3
ATOM      3  C   UNL     1      -2.090   3.133  25.129  0.00  0.00    +0.166 C 
BRANCH   3   2
ATOM      1  C   UNL     1      -0.882   3.897  25.164  0.00  0.00    +0.174 C 
ATOM      2  O   UNL     1      -1.626   3.721  25.476  0.00  0.00    -0.349 OA
ENDBRANCH   3   2
ENDBRANCH   4   3
ENDBRANCH   5   4
ENDBRANCH   6   5
TORSDOF 6
ENDMDL
MODEL 2
REMARK VINA RESULT:      -8.9      1.160      3.618
REMARK  Name = 
REMARK  6 active torsions:
REMARK  status: ('A' for Active; 'I' for Inactive)
REMARK    1  A    between atoms: O_2  and  C_3
REMARK    2  A    between atoms: C_3  and  C_4
REMARK    3  A    between atoms: C_4  and  N_5
REMARK    4  A    between atoms: N_5  and  C_6
REMARK    5  A    between atoms: C_7  and  C_12
REMARK    6  A    between atoms: C_15  and  C_17
REMARK                            x       y       z     vdW  Elec       q    Type
REMARK                         _______ _______ _______ _____ _____    ______ ____
ROOT
ATOM      6  C   UNL     1      -2.602  -0.596  24.625  0.00  0.00    +0.151 A 
ATOM      7  C   UNL     1      -3.403  -0.487  24.457  0.00  0.00    +0.072 A 
ATOM      8  C   UNL     1      -3.899  -1.141  24.372  0.00  0.00    +0.008 A 
ATOM      9  C   UNL     1      -3.596  -1.902  24.455  0.00  0.00    +0.021 A 
ATOM     10  C   UNL     1      -2.796  -2.012  24.623  0.00  0.00    +0.100 A 
ATOM     11  N   UNL     1      -2.299  -1.358  24.708  0.00  0.00    -0.228 NA
ENDROOT
BRANCH   7  12
ATOM     12  C   UNL     1      -3.707   0.276  24.373  0.00  0.00    +0.206 A 
ATOM     13  N   UNL     1      -3.624   0.761  23.710  0.00  0.00    -0.056 NA
ATOM     14  O   UNL     1      -4.013   1.471  23.865  0.00  0.00    -0.336 OA
ATOM     15  C   UNL     1      -4.335   1.426  24.623  0.00  0.00    +0.251 A 
ATOM     16  N   UNL     1      -4.147   0.687  24.937  0.00  0.00    -0.190 NA
BRANCH  15  17
ATOM     17  C   UNL     1      -4.771   2.016  25.001  0.00  0.00    +0.138 C 
ATOM     18  C   UNL     1      -5.565   1.968  25.221  0.00  0.00    +0.027 C 
ATOM     19  C   UNL     1      -5.773   2.681  25.581  0.00  0.00    +0.019 C 
ATOM     20  C   UNL     1      -5.109   3.169  25.584  0.00  0.00    +0.073 C 
ATOM     21  N   UNL     1      -4.489   2.758  25.226  0.00  0.00    -0.265 NA
ATOM     22  C   UNL     1      -3.722   3.040  25.111  0.00  0.00    +0.090 C 
ENDBRANCH  15  17
ENDBRANCH   7  12
BRANCH   6   5
ATOM      5  N   UNL     1      -2.106   0.057  24.709  0.00  0.00    -0.218 NA
BRANCH   5   4
ATOM      4  C   UNL     1      -1.290  -0.050  24.771  0.00  0.00    +0.146 C 
BRANCH   4   3
ATOM      3  C   UNL     1      -0.808   0.581  24.994  0.00  0.00    +0.166 C 
BRANCH   3   2
ATOM      1  C   UNL     1       0.153   1.573  24.625  0.00  0.00    +0.174 C 
ATOM      2  O   UNL     1      -0.218   0.849  24.483  0.00  0.00    -0.349 OA
ENDBRANCH   3   2
ENDBRANCH   4   3
ENDBRANCH   5   4
ENDBRANCH   6   5
TORSDOF 6
ENDMDL
MODEL 3
REMARK VINA RESULT:      -8.7      1.290      3.596
REMARK  Name = 
REMARK  6 active torsions:
REMARK  status: ('A' for Active; 'I' for Inactive)
REMARK    1  A    between atoms: O_2  and  C_3
REMARK    2  A    between atoms: C_3  and  C_4
REMARK    3  A    between atoms: C_4  and  N_5
REMARK    4  A    between atoms: N_5  and  C_6
REMARK    5  A    between atoms: C_7  and  C_12
REMARK    6  A    between atoms: C_15  and  C_17
REMARK                            x       y       z     vdW  Elec       q    Type
REMARK                         _______ _______ _______ _____ _____    ______ ____
ROOT
ATOM      6  C   UNL     1      -4.531   1.485  24.825  0.00  0.00    +0.151 A 
ATOM      7  C   UNL     1      -4.173   2.227  24.874  0.00  0.00    +0.072 A 
ATOM      8  C   UNL     1      -4.620   2.885  25.094  0.00  0.00    +0.008 A 
ATOM      9  C   UNL     1      -5.421   2.802  25.265  0.00  0.00    +0.021 A 
ATOM     10  C   UNL     1      -5.779   2.060  25.216  0.00  0.00    +0.100 A 
ATOM     11  N   UNL     1      -5.333   1.401  24.996  0.00  0.00    -0.228 NA
ENDROOT
BRANCH   7  12
ATOM     12  C   UNL     1      -3.371   2.311  24.703  0.00  0.00    +0.206 A 
ATOM     13  N   UNL     1      -3.042   2.404  23.952  0.00  0.00    -0.056 NA
ATOM     14  O   UNL     1      -2.224   2.467  24.038  0.00  0.00    -0.336 OA
ATOM     15  C   UNL     1      -2.048   2.412  24.842  0.00  0.00    +0.251 A 
ATOM     16  N   UNL     1      -2.756   2.315  25.253  0.00  0.00    -0.190 NA
BRANCH  15  17
ATOM     17  C   UNL     1      -1.294   2.447  25.176  0.00  0.00    +0.138 C 
ATOM     18  C   UNL     1      -1.017   3.030  25.691  0.00  0.00    +0.027 C 
ATOM     19  C   UNL     1      -0.237   2.847  25.886  0.00  0.00    +0.019 C 
ATOM     20  C   UNL     1      -0.030   2.153  25.493  0.00  0.00    +0.073 C 
ATOM     21  N   UNL     1      -0.684   1.905  25.054  0.00  0.00    -0.265 NA
ATOM     22  C   UNL     1      -0.720   1.232  24.577  0.00  0.00    +0.090 C 
ENDBRANCH  15  17
ENDBRANCH   7  12
BRANCH   6   5
ATOM      5  N   UNL     1      -4.085   0.827  24.606  0.00  0.00    -0.218 NA
BRANCH   5   4
ATOM      4  C   UNL     1      -4.441   0.083  24.564  0.00  0.00    +0.146 C 
BRANCH   4   3
ATOM      3  C   UNL     1      -3.996  -0.575  24.342  0.00  0.00    +0.166 C 
BRANCH   3   2
ATOM      1  C   UNL     1      -3.961  -1.981  24.086  0.00  0.00    +0.174 C 
ATOM      2  O   UNL     1      -4.375  -1.266  24.100  0.00  0.00    -0.349 OA
ENDBRANCH   3   2
ENDBRANCH   4   3
ENDBRANCH   5   4
ENDBRANCH   6   5
TORSDOF 6
ENDMDL
MODEL 4
REMARK VINA RESULT:      -8.5      1.881      3.568
REMARK  Name = 
REMARK  6 active torsions:
REMARK  status: ('A' for Active; 'I' for Inactive)
REMARK    1  A    between atoms: O_2  and  C_3
REMARK    2  A    between atoms: C_3  and  C_4
REMARK    3  A    between atoms: C_4  and  N_5
REMARK    4  A    between atoms: N_5  and  C_6
REMARK    5  A    between atoms: C_7  and  C_12
REMARK    6  A    between atoms: C_15  and  C_17
REMARK                            x       y       z     vdW  Elec       q    Type
REMARK                         _______ _______ _______ _____ _____    ______ ____
ROOT
ATOM      6  C   UNL     1      -1.541   3.171  24.788  0.00  0.00    +0.151 A 
ATOM      7  C   UNL     1      -2.222   3.635  24.832  0.00  0.00    +0.072 A 
ATOM      8  C   UNL     1      -2.165   4.431  25.040  0.00  0.00    +0.008 A 
ATOM      9  C   UNL     1      -1.429   4.763  25.204  0.00  0.00    +0.021 A 
ATOM     10  C   UNL     1      -0.748   4.300  25.160  0.00  0.00    +0.100 A 
ATOM     11  N   UNL     1      -0.804   3.503  24.952  0.00  0.00    -0.228 NA
ENDROOT
BRANCH   7  12
ATOM     12  C   UNL     1      -2.959   3.302  24.668  0.00  0.00    +0.206 A 
ATOM     13  N   UNL     1      -3.278   3.175  23.917  0.00  0.00    -0.056 NA
ATOM     14  O   UNL     1      -4.022   2.833  24.012  0.00  0.00    -0.336 OA
ATOM     15  C   UNL     1      -4.164   2.749  24.820  0.00  0.00    +0.251 A 
ATOM     16  N   UNL     1      -3.507   3.039  25.226  0.00  0.00    -0.190 NA
BRANCH  15  17
ATOM     17  C   UNL     1      -4.844   2.430  25.163  0.00  0.00    +0.138 C 
ATOM     18  C   UNL     1      -5.424   2.851  25.572  0.00  0.00    +0.027 C 
ATOM     19  C   UNL     1      -6.001   2.315  25.817  0.00  0.00    +0.019 C 
ATOM     20  C   UNL     1      -5.778   1.564  25.561  0.00  0.00    +0.073 C 
ATOM     21  N   UNL     1      -5.063   1.635  25.156  0.00  0.00    -0.265 NA
ATOM     22  C   UNL     1      -4.640   1.019  24.806  0.00  0.00    +0.090 C 
ENDBRANCH  15  17
ENDBRANCH   7  12
BRANCH   6   5
ATOM      5  N   UNL     1      -1.598   2.374  24.580  0.00  0.00    -0.218 NA
BRANCH   5   4
ATOM      4  C   UNL     1      -0.924   1.897  24.590  0.00  0.00    +0.146 C 
BRANCH   4   3
ATOM      3  C   UNL     1      -0.948   1.144  24.252  0.00  0.00    +0.166 C 
BRANCH   3   2
ATOM      1  C   UNL     1      -0.396  -0.168  24.130  0.00  0.00    +0.174 C 
ATOM      2  O   UNL     1      -0.444   0.553  24.529  0.00  0.00    -0.349 OA
ENDBRANCH   3   2
ENDBRANCH   4   3
ENDBRANCH   5   4
ENDBRANCH   6   5
TORSDOF 6
ENDMDL
MODEL 5
REMARK VINA RESULT:      -8.4      1.971      3.164
REMARK  Name = 
REMARK  6 active torsions:
REMARK  status: ('A' for Active; 'I' for Inactive)
REMARK    1  A    between atoms: O_2  and  C_3
REMARK    2  A    between atoms: C_3  and  C_4
REMARK    3  A    between atoms: C_4  and  N_5
REMARK    4  A    between atoms: N_5  and  C_6
REMARK    5  A    between atoms: C_7  and  C_12
REMARK    6  A    between atoms: C_15  and  C_17
REMARK                            x       y       z     vdW  Elec       q    Type
REMARK                         _______ _______ _______ _____ _____    ______ ____
ROOT
ATOM      6  C   UNL     1      -2.239   3.568  25.052  0.00  0.00    +0.151 A 
ATOM      7  C   UNL     1      -1.533   3.219  24.802  0.00  0.00    +0.072 A 
ATOM      8  C   UNL     1      -0.838   3.663  24.784  0.00  0.00    +0.008 A 
ATOM      9  C   UNL     1      -0.848   4.454  25.014  0.00  0.00    +0.021 A 
ATOM     10  C   UNL     1      -1.552   4.803  25.264  0.00  0.00    +0.100 A 
ATOM     11  N   UNL     1      -2.248   4.359  25.282  0.00  0.00    -0.228 NA
ENDROOT
BRANCH   7  12
ATOM     12  C   UNL     1      -1.524   2.427  24.572  0.00  0.00    +0.206 A 
ATOM     13  N   UNL     1      -1.759   2.133  23.837  0.00  0.00    -0.056 NA
ATOM     14  O   UNL     1      -1.658   1.315  23.847  0.00  0.00    -0.336 OA
ATOM     15  C   UNL     1      -1.360   1.103  24.587  0.00  0.00    +0.251 A 
ATOM     16  N   UNL     1      -1.277   1.790  25.034  0.00  0.00    -0.190 NA
BRANCH  15  17
ATOM     17  C   UNL     1      -1.177   0.337  24.835  0.00  0.00    +0.138 C 
ATOM     18  C   UNL     1      -1.557  -0.082  25.436  0.00  0.00    +0.027 C 
ATOM     19  C   UNL     1      -1.196  -0.821  25.497  0.00  0.00    +0.019 C 
ATOM     20  C   UNL     1      -0.595  -0.860  24.935  0.00  0.00    +0.073 C 
ATOM     21  N   UNL     1      -0.583  -0.144  24.525  0.00  0.00    -0.265 NA
ATOM     22  C   UNL     1      -0.067   0.056  23.912  0.00  0.00    +0.090 C 
ENDBRANCH  15  17
ENDBRANCH   7  12
BRANCH   6   5
ATOM      5  N   UNL     1      -2.934   3.124  25.070  0.00  0.00    -0.218 NA
BRANCH   5   4
ATOM      4  C   UNL     1      -3.634   3.466  25.344  0.00  0.00    +0.146 C 
BRANCH   4   3
ATOM      3  C   UNL     1      -4.333   3.029  25.341  0.00  0.00    +0.166 C 
BRANCH   3   2
ATOM      1  C   UNL     1      -5.690   2.869  25.761  0.00  0.00    +0.174 C 
ATOM      2  O   UNL     1      -5.010   3.334  25.702  0.00  0.00    -0.349 OA
ENDBRANCH   3   2
ENDBRANCH   4   3
ENDBRANCH   5   4
ENDBRANCH   6   5
TORSDOF 6
ENDMDL
MODEL 6
REMARK VINA RESULT:      -8.3      1.732      3.902
REMARK  Name = 
REMARK  6 active torsions:
REMARK  status: ('A' for Active; 'I' for Inactive)
REMARK    1  A    between atoms: O_2  and  C_3
REMARK    2  A    between atoms: C_3  and  C_4
REMARK    3  A    between atoms: C_4  and  N_5
REMARK    4  A    between atoms: N_5  and  C_6
REMARK    5  A    between atoms: C_7  and  C_12
REMARK    6  A    between atoms: C_15  and  C_17
REMARK                            x       y       z     vdW  Elec       q    Type
REMARK                         _______ _______ _______ _____ _____    ______ ____
ROOT
ATOM      6  C   UNL     1      -3.691  -0.681  24.618  0.00  0.00    +0.151 A 
ATOM      7  C   UNL     1      -2.941  -1.022  24.672  0.00  0.00    +0.072 A 
ATOM      8  C   UNL     1      -2.831  -1.812  24.462  0.00  0.00    +0.008 A 
ATOM      9  C   UNL     1      -3.470  -2.261  24.198  0.00  0.00    +0.021 A 
ATOM     10  C   UNL     1      -4.219  -1.921  24.144  0.00  0.00    +0.100 A 
ATOM     11  N   UNL     1      -4.329  -1.130  24.354  0.00  0.00    -0.228 NA
ENDROOT
BRANCH   7  12
ATOM     12  C   UNL     1      -2.301  -0.573  24.937  0.00  0.00    +0.206 A 
ATOM     13  N   UNL     1      -2.019  -0.540  25.712  0.00  0.00    -0.056 NA
ATOM     14  O   UNL     1      -1.376  -0.024  25.726  0.00  0.00    -0.336 OA
ATOM     15  C   UNL     1      -1.260   0.261  24.961  0.00  0.00    +0.251 A 
ATOM     16  N   UNL     1      -1.832  -0.078  24.473  0.00  0.00    -0.190 NA
BRANCH  15  17
ATOM     17  C   UNL     1      -0.674   0.793  24.725  0.00  0.00    +0.138 C 
ATOM     18  C   UNL     1      -0.125   0.674  24.120  0.00  0.00    +0.027 C 
ATOM     19  C   UNL     1       0.353   1.344  24.075  0.00  0.00    +0.019 C 
ATOM     20  C   UNL     1       0.100   1.878  24.650  0.00  0.00    +0.073 C 
ATOM     21  N   UNL     1      -0.535   1.537  25.053  0.00  0.00    -0.265 NA
ATOM     22  C   UNL     1      -0.956   1.880  25.674  0.00  0.00    +0.090 C 
ENDBRANCH  15  17
ENDBRANCH   7  12
BRANCH   6   5
ATOM      5  N   UNL     1      -3.800   0.109  24.828  0.00  0.00    -0.218 NA
BRANCH   5   4
ATOM      4  C   UNL     1      -4.556   0.440  24.808  0.00  0.00    +0.146 C 
BRANCH   4   3
ATOM      3  C   UNL     1      -4.662   1.237  24.994  0.00  0.00    +0.166 C 
BRANCH   3   2
ATOM      1  C   UNL     1      -5.532   2.332  25.288  0.00  0.00    +0.174 C 
ATOM      2  O   UNL     1      -5.424   1.548  25.053  0.00  0.00    -0.349 OA
ENDBRANCH   3   2
ENDBRANCH   4   3
ENDBRANCH   5   4
ENDBRANCH   6   5
TORSDOF 6
ENDMDL
