MODEL 1
REMARK VINA RESULT:     -12.2      0.000      0.000
REMARK  Name = 
REMARK  5 active torsions:
REMARK  status: ('A' for Active; 'I' for Inactive)
REMARK    1  A    between atoms: C_4  and  C_17
REMARK    2  A    between atoms: N_5  and  C_6
REMARK    3  A    between atoms: C_6  and  C_7
REMARK    4  A    between atoms: C_10  and  C_13
REMARK    5  A    between atoms: C_19  and  C_22
REMARK                            x       y       z     vdW  Elec       q    Type
REMARK                         _______ _______ _______ _____ _____    ______ ____
ROOT
ATOM      1  O   UNL     1      -6.257   1.446  25.858  0.00  0.00    -0.222 OA
ATOM      2  C   UNL     1      -5.533   1.518  25.470  0.00  0.00    +0.170 C 
ATOM      3  C   UNL     1      -5.149   2.225  25.288  0.00  0.00    +0.060 C 
ATOM      4  C   UNL     1      -4.444   2.039  24.902  0.00  0.00    +0.140 C 
ATOM      5  N   UNL     1      -4.393   1.217  24.846  0.00  0.00    -0.260 NA
ATOM     16  C   UNL     1      -5.067   0.895  25.197  0.00  0.00    +0.106 C 
ENDROOT
BRANCH   4  17
ATOM     17  C   UNL     1      -3.888   2.580  24.621  0.00  0.00    +0.251 A 
ATOM     18  N   UNL     1      -3.232   2.860  25.035  0.00  0.00    -0.190 NA
ATOM     19  C   UNL     1      -2.829   3.389  24.547  0.00  0.00    +0.205 A 
ATOM     20  N   UNL     1      -3.236   3.436  23.831  0.00  0.00    -0.056 NA
ATOM     21  O   UNL     1      -3.891   2.936  23.877  0.00  0.00    -0.336 OA
BRANCH  19  22
ATOM     22  C   UNL     1      -2.139   3.799  24.740  0.00  0.00    +0.058 A 
ATOM     23  C   UNL     1      -2.187   4.558  25.060  0.00  0.00    +0.006 A 
ATOM     24  C   UNL     1      -1.498   4.968  25.253  0.00  0.00    +0.021 A 
ATOM     25  C   UNL     1      -0.761   4.619  25.127  0.00  0.00    +0.099 A 
ATOM     26  N   UNL     1      -0.713   3.860  24.808  0.00  0.00    -0.242 NA
ATOM     27  C   UNL     1      -1.403   3.450  24.614  0.00  0.00    +0.102 A 
ENDBRANCH  19  22
ENDBRANCH   4  17
BRANCH   5   6
ATOM      6  C   UNL     1      -3.777   0.792  24.499  0.00  0.00    +0.100 C 
BRANCH   6   7
ATOM      7  C   UNL     1      -3.766  -0.031  24.546  0.00  0.00    -0.006 A 
ATOM      8  C   UNL     1      -4.108  -0.483  23.945  0.00  0.00    -0.003 A 
ATOM      9  C   UNL     1      -4.097  -1.307  23.993  0.00  0.00    +0.006 A 
ATOM     10  C   UNL     1      -3.745  -1.678  24.640  0.00  0.00    +0.080 A 
ATOM     11  C   UNL     1      -3.403  -1.226  25.240  0.00  0.00    +0.006 A 
ATOM     12  C   UNL     1      -3.414  -0.403  25.192  0.00  0.00    -0.003 A 
BRANCH  10  13
ATOM     13  C   UNL     1      -3.734  -2.502  24.686  0.00  0.00    +0.388 C 
ATOM     14  O   UNL     1      -3.442  -2.872  25.363  0.00  0.00    -0.241 OA
ATOM     15  O   UNL     1      -4.015  -2.955  24.057  0.00  0.00    -0.241 OA
ENDBRANCH  10  13
ENDBRANCH   6   7
ENDBRANCH   5   6
TORSDOF 5
ENDMDL
MODEL 2
REMARK VINA RESULT:     -11.6      1.561      5.056
REMARK  Name = 
REMARK  5 active torsions:
REMARK  status: ('A' for Active; 'I' for Inactive)
REMARK    1  A    between atoms: C_4  and  C_17
REMARK    2  A    between atoms: N_5  and  C_6
REMARK    3  A    between atoms: C_6  and  C_7
REMARK    4  A    between atoms: C_10  and  C_13
REMARK    5  A    between atoms: C_19  and  C_22
REMARK                            x       y       z     vdW  Elec       q    Type
REMARK                         _______ _______ _______ _____ _____    ______ ____
ROOT
ATOM      1  O   UNL     1      -5.749   3.013  25.627  0.00  0.00    -0.222 OA
ATOM      2  C   UNL     1      -5.111   2.561  25.363  0.00  0.00    +0.170 C 
ATOM      3  C   UNL     1      -5.156   1.804  25.040  0.00  0.00    +0.060 C 
ATOM      4  C   UNL     1      -4.390   1.562  24.853  0.00  0.00    +0.140 C 
ATOM      5  N   UNL     1      -3.872   2.170  25.060  0.00  0.00    -0.260 NA
ATOM     16  C   UNL     1      -4.319   2.788  25.376  0.00  0.00    +0.106 C 
ENDROOT
BRANCH   4  17
ATOM     17  C   UNL     1      -4.178   0.839  24.517  0.00  0.00    +0.251 A 
ATOM     18  N   UNL     1      -4.144   0.113  24.908  0.00  0.00    -0.190 NA
ATOM     19  C   UNL     1      -3.908  -0.460  24.363  0.00  0.00    +0.205 A 
ATOM     20  N   UNL     1      -3.797  -0.089  23.635  0.00  0.00    -0.056 NA
ATOM     21  O   UNL     1      -3.964   0.714  23.730  0.00  0.00    -0.336 OA
BRANCH  19  22
ATOM     22  C   UNL     1      -3.803  -1.264  24.520  0.00  0.00    +0.058 A 
ATOM     23  C   UNL     1      -4.071  -1.827  23.981  0.00  0.00    +0.006 A 
ATOM     24  C   UNL     1      -3.966  -2.630  24.137  0.00  0.00    +0.021 A 
ATOM     25  C   UNL     1      -3.591  -2.870  24.832  0.00  0.00    +0.099 A 
ATOM     26  N   UNL     1      -3.323  -2.306  25.371  0.00  0.00    -0.242 NA
ATOM     27  C   UNL     1      -3.428  -1.502  25.215  0.00  0.00    +0.102 A 
ENDBRANCH  19  22
ENDBRANCH   4  17
BRANCH   5   6
ATOM      6  C   UNL     1      -3.053   2.162  24.969  0.00  0.00    +0.100 C 
BRANCH   6   7
ATOM      7  C   UNL     1      -2.626   2.866  25.008  0.00  0.00    -0.006 A 
ATOM      8  C   UNL     1      -2.576   3.355  24.344  0.00  0.00    -0.003 A 
ATOM      9  C   UNL     1      -2.149   4.061  24.384  0.00  0.00    +0.006 A 
ATOM     10  C   UNL     1      -1.773   4.277  25.086  0.00  0.00    +0.080 A 
ATOM     11  C   UNL     1      -1.824   3.788  25.749  0.00  0.00    +0.006 A 
ATOM     12  C   UNL     1      -2.251   3.083  25.709  0.00  0.00    -0.003 A 
BRANCH  10  13
ATOM     13  C   UNL     1      -1.346   4.982  25.124  0.00  0.00    +0.388 C 
ATOM     14  O   UNL     1      -1.718   5.675  25.374  0.00  0.00    -0.241 OA
ATOM     15  O   UNL     1      -0.549   4.994  24.914  0.00  0.00    -0.241 OA
ENDBRANCH  10  13
ENDBRANCH   6   7
ENDBRANCH   5   6
TORSDOF 5
ENDMDL
MODEL 3
REMARK VINA RESULT:     -11.5      2.149      3.121
REMARK  Name = 
REMARK  5 active torsions:
REMARK  status: ('A' for Active; 'I' for Inactive)
REMARK    1  A    between atoms: C_4  and  C_17
REMARK    2  A    between atoms: N_5  and  C_6
REMARK    3  A    between atoms: C_6  and  C_7
REMARK    4  A    between atoms: C_10  and  C_13
REMARK    5  A    between atoms: C_19  and  C_22
REMARK                            x       y       z     vdW  Elec       q    Type
REMARK                         _______ _______ _______ _____ _____    ______ ____
ROOT
ATOM      1  O   UNL     1       0.519  -0.314  23.216  0.00  0.00    -0.222 OA
ATOM      2  C   UNL     1       0.033   0.047  23.776  0.00  0.00    +0.170 C 
ATOM      3  C   UNL     1       0.128   0.808  24.081  0.00  0.00    +0.060 C 
ATOM      4  C   UNL     1      -0.480   0.943  24.622  0.00  0.00    +0.140 C 
ATOM      5  N   UNL     1      -0.950   0.265  24.652  0.00  0.00    -0.260 NA
ATOM     16  C   UNL     1      -0.632  -0.288  24.128  0.00  0.00    +0.106 C 
ENDROOT
BRANCH   4  17
ATOM     17  C   UNL     1      -0.597   1.633  25.058  0.00  0.00    +0.251 A 
ATOM     18  N   UNL     1      -0.948   2.327  24.782  0.00  0.00    -0.190 NA
ATOM     19  C   UNL     1      -0.951   2.874  25.400  0.00  0.00    +0.205 A 
ATOM     20  N   UNL     1      -0.602   2.519  26.057  0.00  0.00    -0.056 NA
ATOM     21  O   UNL     1      -0.383   1.752  25.846  0.00  0.00    -0.336 OA
BRANCH  19  22
ATOM     22  C   UNL     1      -1.251   3.643  25.366  0.00  0.00    +0.058 A 
ATOM     23  C   UNL     1      -0.795   4.249  25.043  0.00  0.00    +0.006 A 
ATOM     24  C   UNL     1      -1.095   5.017  25.009  0.00  0.00    +0.021 A 
ATOM     25  C   UNL     1      -1.851   5.178  25.298  0.00  0.00    +0.099 A 
ATOM     26  N   UNL     1      -2.307   4.571  25.621  0.00  0.00    -0.242 NA
ATOM     27  C   UNL     1      -2.007   3.803  25.655  0.00  0.00    +0.102 A 
ENDBRANCH  19  22
ENDBRANCH   4  17
BRANCH   5   6
ATOM      6  C   UNL     1      -1.619   0.159  25.122  0.00  0.00    +0.100 C 
BRANCH   6   7
ATOM      7  C   UNL     1      -2.163  -0.433  24.938  0.00  0.00    -0.006 A 
ATOM      8  C   UNL     1      -2.060  -1.195  25.238  0.00  0.00    -0.003 A 
ATOM      9  C   UNL     1      -2.605  -1.787  25.053  0.00  0.00    +0.006 A 
ATOM     10  C   UNL     1      -3.251  -1.617  24.571  0.00  0.00    +0.080 A 
ATOM     11  C   UNL     1      -3.354  -0.855  24.271  0.00  0.00    +0.006 A 
ATOM     12  C   UNL     1      -2.809  -0.263  24.456  0.00  0.00    -0.003 A 
BRANCH  10  13
ATOM     13  C   UNL     1      -3.796  -2.209  24.387  0.00  0.00    +0.388 C 
ATOM     14  O   UNL     1      -4.415  -2.052  23.865  0.00  0.00    -0.241 OA
ATOM     15  O   UNL     1      -3.721  -2.958  24.724  0.00  0.00    -0.241 OA
ENDBRANCH  10  13
ENDBRANCH   6   7
ENDBRANCH   5   6
TORSDOF 5
ENDMDL
MODEL 4
REMARK VINA RESULT:     -11.1      2.489      5.802
REMARK  Name = 
REMARK  5 active torsions:
REMARK  status: ('A' for Active; 'I' for Inactive)
REMARK    1  A    between atoms: C_4  and  C_17
REMARK    2  A    between atoms: N_5  and  C_6
REMARK    3  A    between atoms: C_6  and  C_7
REMARK    4  A    between atoms: C_10  and  C_13
REMARK    5  A    between atoms: C_19  and  C_22
REMARK                            x       y       z     vdW  Elec       q    Type
REMARK                         _______ _______ _______ _____ _____    ______ ____
ROOT
ATOM      1  O   UNL     1       0.995   0.931  23.496  0.00  0.00    -0.222 OA
ATOM      2  C   UNL     1       0.311   0.826  23.944  0.00  0.00    +0.170 C 
ATOM      3  C   UNL     1      -0.097   0.116  24.045  0.00  0.00    +0.060 C 
ATOM      4  C   UNL     1      -0.746   0.262  24.534  0.00  0.00    +0.140 C 
ATOM      5  N   UNL     1      -0.738   1.062  24.735  0.00  0.00    -0.260 NA
ATOM     16  C   UNL     1      -0.084   1.410  24.370  0.00  0.00    +0.106 C 
ENDROOT
BRANCH   4  17
ATOM     17  C   UNL     1      -1.304  -0.294  24.778  0.00  0.00    +0.251 A 
ATOM     18  N   UNL     1      -1.908  -0.612  24.314  0.00  0.00    -0.190 NA
ATOM     19  C   UNL     1      -2.333  -1.144  24.779  0.00  0.00    +0.205 A 
ATOM     20  N   UNL     1      -1.993  -1.155  25.530  0.00  0.00    -0.056 NA
ATOM     21  O   UNL     1      -1.357  -0.629  25.530  0.00  0.00    -0.336 OA
BRANCH  19  22
ATOM     22  C   UNL     1      -2.985  -1.588  24.535  0.00  0.00    +0.058 A 
ATOM     23  C   UNL     1      -3.654  -1.209  24.236  0.00  0.00    +0.006 A 
ATOM     24  C   UNL     1      -4.305  -1.652  23.993  0.00  0.00    +0.021 A 
ATOM     25  C   UNL     1      -4.288  -2.475  24.048  0.00  0.00    +0.099 A 
ATOM     26  N   UNL     1      -3.619  -2.855  24.347  0.00  0.00    -0.242 NA
ATOM     27  C   UNL     1      -2.967  -2.411  24.591  0.00  0.00    +0.102 A 
ENDBRANCH  19  22
ENDBRANCH   4  17
BRANCH   5   6
ATOM      6  C   UNL     1      -1.287   1.447  25.215  0.00  0.00    +0.100 C 
BRANCH   6   7
ATOM      7  C   UNL     1      -1.326   2.271  25.219  0.00  0.00    -0.006 A 
ATOM      8  C   UNL     1      -0.864   2.703  25.750  0.00  0.00    -0.003 A 
ATOM      9  C   UNL     1      -0.904   3.528  25.753  0.00  0.00    +0.006 A 
ATOM     10  C   UNL     1      -1.404   3.919  25.227  0.00  0.00    +0.080 A 
ATOM     11  C   UNL     1      -1.865   3.486  24.697  0.00  0.00    +0.006 A 
ATOM     12  C   UNL     1      -1.826   2.663  24.694  0.00  0.00    -0.003 A 
BRANCH  10  13
ATOM     13  C   UNL     1      -1.443   4.743  25.232  0.00  0.00    +0.388 C 
ATOM     14  O   UNL     1      -2.111   5.122  25.532  0.00  0.00    -0.241 OA
ATOM     15  O   UNL     1      -0.815   5.188  24.935  0.00  0.00    -0.241 OA
ENDBRANCH  10  13
ENDBRANCH   6   7
ENDBRANCH   5   6
TORSDOF 5
ENDMDL
MODEL 5
REMARK VINA RESULT:     -10.3      2.159      3.531
REMARK  Name = 
REMARK  5 active torsions:
REMARK  status: ('A' for Active; 'I' for Inactive)
REMARK    1  A    between atoms: C_4  and  C_17
REMARK    2  A    between atoms: N_5  and  C_6
REMARK    3  A    between atoms: C_6  and  C_7
REMARK    4  A    between atoms: C_10  and  C_13
REMARK    5  A    between atoms: C_19  and  C_22
REMARK                            x       y       z     vdW  Elec       q    Type
REMARK                         _______ _______ _______ _____ _____    ______ ____
ROOT
ATOM      1  O   UNL     1       0.428   2.666  26.329  0.00  0.00    -0.222 OA
ATOM      2  C   UNL     1      -0.249   2.473  25.898  0.00  0.00    +0.170 C 
ATOM      3  C   UNL     1      -0.908   2.957  25.790  0.00  0.00    +0.060 C 
ATOM      4  C   UNL     1      -1.452   2.545  25.325  0.00  0.00    +0.140 C 
ATOM      5  N   UNL     1      -1.128   1.807  25.147  0.00  0.00    -0.260 NA
ATOM     16  C   UNL     1      -0.384   1.763  25.502  0.00  0.00    +0.106 C 
ENDROOT
BRANCH   4  17
ATOM     17  C   UNL     1      -2.189   2.822  25.082  0.00  0.00    +0.251 A 
ATOM     18  N   UNL     1      -2.907   2.698  25.470  0.00  0.00    -0.190 NA
ATOM     19  C   UNL     1      -3.500   3.072  25.035  0.00  0.00    +0.205 A 
ATOM     20  N   UNL     1      -3.150   3.427  24.378  0.00  0.00    -0.056 NA
ATOM     21  O   UNL     1      -2.339   3.273  24.406  0.00  0.00    -0.336 OA
BRANCH  19  22
ATOM     22  C   UNL     1      -4.303   3.088  25.224  0.00  0.00    +0.058 A 
ATOM     23  C   UNL     1      -4.780   2.437  25.052  0.00  0.00    +0.006 A 
ATOM     24  C   UNL     1      -5.583   2.453  25.241  0.00  0.00    +0.021 A 
ATOM     25  C   UNL     1      -5.909   3.120  25.602  0.00  0.00    +0.099 A 
ATOM     26  N   UNL     1      -5.432   3.770  25.774  0.00  0.00    -0.242 NA
ATOM     27  C   UNL     1      -4.629   3.755  25.585  0.00  0.00    +0.102 A 
ENDBRANCH  19  22
ENDBRANCH   4  17
BRANCH   5   6
ATOM      6  C   UNL     1      -1.484   1.217  24.694  0.00  0.00    +0.100 C 
BRANCH   6   7
ATOM      7  C   UNL     1      -1.278   0.427  24.809  0.00  0.00    -0.006 A 
ATOM      8  C   UNL     1      -0.701   0.078  24.334  0.00  0.00    -0.003 A 
ATOM      9  C   UNL     1      -0.495  -0.713  24.450  0.00  0.00    +0.006 A 
ATOM     10  C   UNL     1      -0.866  -1.153  25.040  0.00  0.00    +0.080 A 
ATOM     11  C   UNL     1      -1.444  -0.804  25.515  0.00  0.00    +0.006 A 
ATOM     12  C   UNL     1      -1.649  -0.014  25.399  0.00  0.00    -0.003 A 
BRANCH  10  13
ATOM     13  C   UNL     1      -0.659  -1.944  25.155  0.00  0.00    +0.388 C 
ATOM     14  O   UNL     1      -1.166  -2.544  24.899  0.00  0.00    -0.241 OA
ATOM     15  O   UNL     1       0.052  -2.136  25.526  0.00  0.00    -0.241 OA
ENDBRANCH  10  13
ENDBRANCH   6   7
ENDBRANCH   5   6
TORSDOF 5
ENDMDL
