MODEL 1
REMARK VINA RESULT:     -11.5      0.000      0.000
REMARK  Name = 
REMARK  6 active torsions:
REMARK  status: ('A' for Active; 'I' for Inactive)
REMARK    1  A    between atoms: N_2  and  C_4
REMARK    2  A    between atoms: C_7  and  C_10
REMARK    3  A    between atoms: N_12  and  C_13
REMARK    4  A    between atoms: C_15  and  C_19
REMARK    5  A    between atoms: C_21  and  C_22
REMARK    6  A    between atoms: C_22  and  C_23
REMARK                            x       y       z     vdW  Elec       q    Type
REMARK                         _______ _______ _______ _____ _____    ______ ____
ROOT
ATOM     13  C   UNL     1      -4.749   1.295  24.973  0.00  0.00    +0.113 C 
ATOM     14  C   UNL     1      -4.164   1.868  24.872  0.00  0.00    +0.049 C 
ATOM     15  C   UNL     1      -4.463   2.588  25.144  0.00  0.00    +0.139 C 
ATOM     16  N   UNL     1      -5.233   2.460  25.411  0.00  0.00    -0.264 NA
ATOM     17  C   UNL     1      -5.737   3.029  25.729  0.00  0.00    +0.090 C 
ATOM     18  C   UNL     1      -5.409   1.660  25.306  0.00  0.00    +0.094 C 
ENDROOT
BRANCH  15  19
ATOM     19  C   UNL     1      -4.063   3.309  25.146  0.00  0.00    +0.251 A 
ATOM     20  N   UNL     1      -3.413   3.502  25.617  0.00  0.00    -0.193 NA
ATOM     21  C   UNL     1      -3.191   4.276  25.439  0.00  0.00    +0.185 A 
ATOM     29  N   UNL     1      -3.703   4.562  24.859  0.00  0.00    -0.060 NA
ATOM     30  O   UNL     1      -4.241   3.965  24.678  0.00  0.00    -0.336 OA
BRANCH  21  22
ATOM     22  C   UNL     1      -2.566   4.692  25.783  0.00  0.00    +0.095 C 
BRANCH  22  23
ATOM     23  C   UNL     1      -1.817   4.671  25.437  0.00  0.00    -0.014 A 
ATOM     24  C   UNL     1      -1.536   5.327  25.025  0.00  0.00    -0.004 A 
ATOM     25  C   UNL     1      -0.787   5.306  24.679  0.00  0.00    -0.000 A 
ATOM     26  C   UNL     1      -0.320   4.629  24.747  0.00  0.00    -0.000 A 
ATOM     27  C   UNL     1      -0.603   3.973  25.160  0.00  0.00    -0.000 A 
ATOM     28  C   UNL     1      -1.351   3.994  25.505  0.00  0.00    -0.004 A 
ENDBRANCH  22  23
ENDBRANCH  21  22
ENDBRANCH  15  19
BRANCH  13  12
ATOM     10  C   UNL     1      -4.006   0.075  24.978  0.00  0.00    +0.265 C 
ATOM     11  O   UNL     1      -3.390   0.451  25.380  0.00  0.00    -0.268 OA
ATOM     12  N   UNL     1      -4.684   0.497  24.775  0.00  0.00    -0.202 NA
BRANCH  10   7
ATOM      4  C   UNL     1      -3.812  -2.321  24.384  0.00  0.00    +0.048 A 
ATOM      5  C   UNL     1      -4.156  -1.790  23.854  0.00  0.00    +0.015 A 
ATOM      6  C   UNL     1      -4.221  -0.992  24.052  0.00  0.00    +0.006 A 
ATOM      7  C   UNL     1      -3.941  -0.724  24.780  0.00  0.00    +0.055 A 
ATOM      8  C   UNL     1      -3.596  -1.254  25.311  0.00  0.00    +0.006 A 
ATOM      9  C   UNL     1      -3.532  -2.052  25.113  0.00  0.00    +0.015 A 
BRANCH   4   2
ATOM      1  C   UNL     1      -3.196  -3.596  24.573  0.00  0.00    +0.112 C 
ATOM      2  N   UNL     1      -3.748  -3.118  24.186  0.00  0.00    -0.304 N 
ATOM      3  C   UNL     1      -4.234  -3.439  23.602  0.00  0.00    +0.112 C 
ENDBRANCH   4   2
ENDBRANCH  10   7
ENDBRANCH  13  12
TORSDOF 6
ENDMDL
MODEL 2
REMARK VINA RESULT:      -9.7      2.887      4.699
REMARK  Name = 
REMARK  6 active torsions:
REMARK  status: ('A' for Active; 'I' for Inactive)
REMARK    1  A    between atoms: N_2  and  C_4
REMARK    2  A    between atoms: C_7  and  C_10
REMARK    3  A    between atoms: N_12  and  C_13
REMARK    4  A    between atoms: C_15  and  C_19
REMARK    5  A    between atoms: C_21  and  C_22
REMARK    6  A    between atoms: C_22  and  C_23
REMARK                            x       y       z     vdW  Elec       q    Type
REMARK                         _______ _______ _______ _____ _____    ______ ____
ROOT
ATOM     13  C   UNL     1      -0.968   3.069  24.376  0.00  0.00    +0.113 C 
ATOM     14  C   UNL     1      -1.742   2.915  24.619  0.00  0.00    +0.049 C 
ATOM     15  C   UNL     1      -2.023   3.583  25.013  0.00  0.00    +0.139 C 
ATOM     16  N   UNL     1      -1.423   4.150  25.015  0.00  0.00    -0.264 NA
ATOM     17  C   UNL     1      -1.467   4.902  25.350  0.00  0.00    +0.090 C 
ATOM     18  C   UNL     1      -0.771   3.832  24.621  0.00  0.00    +0.094 C 
ENDROOT
BRANCH  15  19
ATOM     19  C   UNL     1      -2.772   3.669  25.348  0.00  0.00    +0.251 A 
ATOM     20  N   UNL     1      -3.492   3.578  24.955  0.00  0.00    -0.193 NA
ATOM     21  C   UNL     1      -4.097   3.715  25.499  0.00  0.00    +0.185 A 
ATOM     29  N   UNL     1      -3.752   3.889  26.228  0.00  0.00    -0.060 NA
ATOM     30  O   UNL     1      -2.933   3.861  26.134  0.00  0.00    -0.336 OA
BRANCH  21  22
ATOM     22  C   UNL     1      -4.906   3.682  25.342  0.00  0.00    +0.095 C 
BRANCH  22  23
ATOM     23  C   UNL     1      -5.306   2.961  25.385  0.00  0.00    -0.014 A 
ATOM     24  C   UNL     1      -5.354   2.476  24.721  0.00  0.00    -0.004 A 
ATOM     25  C   UNL     1      -5.754   1.756  24.765  0.00  0.00    -0.000 A 
ATOM     26  C   UNL     1      -6.106   1.522  25.473  0.00  0.00    -0.000 A 
ATOM     27  C   UNL     1      -6.057   2.008  26.138  0.00  0.00    -0.000 A 
ATOM     28  C   UNL     1      -5.658   2.727  26.094  0.00  0.00    -0.004 A 
ENDBRANCH  22  23
ENDBRANCH  21  22
ENDBRANCH  15  19
BRANCH  13  12
ATOM     10  C   UNL     1      -0.113   1.925  24.356  0.00  0.00    +0.265 C 
ATOM     11  O   UNL     1      -0.239   1.816  25.164  0.00  0.00    -0.268 OA
ATOM     12  N   UNL     1      -0.478   2.551  23.962  0.00  0.00    -0.202 NA
BRANCH  10   7
ATOM      4  C   UNL     1       1.358   0.369  23.112  0.00  0.00    +0.048 A 
ATOM      5  C   UNL     1       1.653   1.091  23.381  0.00  0.00    +0.015 A 
ATOM      6  C   UNL     1       1.163   1.609  23.795  0.00  0.00    +0.006 A 
ATOM      7  C   UNL     1       0.377   1.406  23.941  0.00  0.00    +0.055 A 
ATOM      8  C   UNL     1       0.081   0.684  23.672  0.00  0.00    +0.006 A 
ATOM      9  C   UNL     1       0.571   0.166  23.258  0.00  0.00    +0.015 A 
BRANCH   4   2
ATOM      1  C   UNL     1       1.603  -0.457  21.973  0.00  0.00    +0.112 C 
ATOM      2  N   UNL     1       1.847  -0.149  22.698  0.00  0.00    -0.304 N 
ATOM      3  C   UNL     1       2.582  -0.359  23.008  0.00  0.00    +0.112 C 
ENDBRANCH   4   2
ENDBRANCH  10   7
ENDBRANCH  13  12
TORSDOF 6
ENDMDL
MODEL 3
REMARK VINA RESULT:      -9.6      2.284      6.650
REMARK  Name = 
REMARK  6 active torsions:
REMARK  status: ('A' for Active; 'I' for Inactive)
REMARK    1  A    between atoms: N_2  and  C_4
REMARK    2  A    between atoms: C_7  and  C_10
REMARK    3  A    between atoms: N_12  and  C_13
REMARK    4  A    between atoms: C_15  and  C_19
REMARK    5  A    between atoms: C_21  and  C_22
REMARK    6  A    between atoms: C_22  and  C_23
REMARK                            x       y       z     vdW  Elec       q    Type
REMARK                         _______ _______ _______ _____ _____    ______ ____
ROOT
ATOM     13  C   UNL     1      -0.697   1.015  24.279  0.00  0.00    +0.113 C 
ATOM     14  C   UNL     1      -1.195   0.427  24.576  0.00  0.00    +0.049 C 
ATOM     15  C   UNL     1      -0.836  -0.303  24.442  0.00  0.00    +0.139 C 
ATOM     16  N   UNL     1      -0.115  -0.168  24.064  0.00  0.00    -0.264 NA
ATOM     17  C   UNL     1       0.425  -0.744  23.827  0.00  0.00    +0.090 C 
ATOM     18  C   UNL     1      -0.030   0.647  23.963  0.00  0.00    +0.094 C 
ENDROOT
BRANCH  15  19
ATOM     19  C   UNL     1      -1.142  -1.040  24.651  0.00  0.00    +0.251 A 
ATOM     20  N   UNL     1      -1.934  -1.208  24.809  0.00  0.00    -0.193 NA
ATOM     21  C   UNL     1      -1.991  -2.010  24.994  0.00  0.00    +0.185 A 
ATOM     29  N   UNL     1      -1.236  -2.338  24.950  0.00  0.00    -0.060 NA
ATOM     30  O   UNL     1      -0.711  -1.738  24.738  0.00  0.00    -0.336 OA
BRANCH  21  22
ATOM     22  C   UNL     1      -2.684  -2.414  25.189  0.00  0.00    +0.095 C 
BRANCH  22  23
ATOM     23  C   UNL     1      -3.326  -2.407  24.670  0.00  0.00    -0.014 A 
ATOM     24  C   UNL     1      -3.452  -3.044  24.163  0.00  0.00    -0.004 A 
ATOM     25  C   UNL     1      -4.094  -3.037  23.644  0.00  0.00    -0.000 A 
ATOM     26  C   UNL     1      -4.609  -2.393  23.634  0.00  0.00    -0.000 A 
ATOM     27  C   UNL     1      -4.482  -1.755  24.143  0.00  0.00    -0.000 A 
ATOM     28  C   UNL     1      -3.841  -1.763  24.661  0.00  0.00    -0.004 A 
ENDBRANCH  22  23
ENDBRANCH  21  22
ENDBRANCH  15  19
BRANCH  13  12
ATOM     10  C   UNL     1      -0.836   2.231  25.015  0.00  0.00    +0.265 C 
ATOM     11  O   UNL     1      -0.686   1.824  25.717  0.00  0.00    -0.268 OA
ATOM     12  N   UNL     1      -0.841   1.827  24.296  0.00  0.00    -0.202 NA
BRANCH  10   7
ATOM      4  C   UNL     1      -1.269   4.669  25.066  0.00  0.00    +0.048 A 
ATOM      5  C   UNL     1      -1.824   4.144  25.377  0.00  0.00    +0.015 A 
ATOM      6  C   UNL     1      -1.680   3.332  25.360  0.00  0.00    +0.006 A 
ATOM      7  C   UNL     1      -0.980   3.044  25.032  0.00  0.00    +0.055 A 
ATOM      8  C   UNL     1      -0.424   3.568  24.720  0.00  0.00    +0.006 A 
ATOM      9  C   UNL     1      -0.568   4.380  24.738  0.00  0.00    +0.015 A 
BRANCH   4   2
ATOM      1  C   UNL     1      -0.833   6.008  24.824  0.00  0.00    +0.112 C 
ATOM      2  N   UNL     1      -1.413   5.480  25.083  0.00  0.00    -0.304 N 
ATOM      3  C   UNL     1      -2.136   5.765  25.358  0.00  0.00    +0.112 C 
ENDBRANCH   4   2
ENDBRANCH  10   7
ENDBRANCH  13  12
TORSDOF 6
ENDMDL
MODEL 4
REMARK VINA RESULT:      -9.5      3.561      5.857
REMARK  Name = 
REMARK  6 active torsions:
REMARK  status: ('A' for Active; 'I' for Inactive)
REMARK    1  A    between atoms: N_2  and  C_4
REMARK    2  A    between atoms: C_7  and  C_10
REMARK    3  A    between atoms: N_12  and  C_13
REMARK    4  A    between atoms: C_15  and  C_19
REMARK    5  A    between atoms: C_21  and  C_22
REMARK    6  A    between atoms: C_22  and  C_23
REMARK                            x       y       z     vdW  Elec       q    Type
REMARK                         _______ _______ _______ _____ _____    ______ ____
ROOT
ATOM     13  C   UNL     1      -0.750   1.510  23.933  0.00  0.00    +0.113 C 
ATOM     14  C   UNL     1      -1.388   0.996  23.829  0.00  0.00    +0.049 C 
ATOM     15  C   UNL     1      -2.025   1.288  24.266  0.00  0.00    +0.139 C 
ATOM     16  N   UNL     1      -1.780   1.982  24.639  0.00  0.00    -0.264 NA
ATOM     17  C   UNL     1      -2.242   2.456  25.132  0.00  0.00    +0.090 C 
ATOM     18  C   UNL     1      -0.993   2.119  24.434  0.00  0.00    +0.094 C 
ENDROOT
BRANCH  15  19
ATOM     19  C   UNL     1      -2.773   0.946  24.319  0.00  0.00    +0.251 A 
ATOM     20  N   UNL     1      -2.968   0.268  24.746  0.00  0.00    -0.193 NA
ATOM     21  C   UNL     1      -3.774   0.126  24.645  0.00  0.00    +0.185 A 
ATOM     29  N   UNL     1      -4.078   0.716  24.155  0.00  0.00    -0.060 NA
ATOM     30  O   UNL     1      -3.460   1.223  23.953  0.00  0.00    -0.336 OA
BRANCH  21  22
ATOM     22  C   UNL     1      -4.201  -0.497  24.976  0.00  0.00    +0.095 C 
BRANCH  22  23
ATOM     23  C   UNL     1      -4.045  -1.274  24.744  0.00  0.00    -0.014 A 
ATOM     24  C   UNL     1      -4.342  -1.558  24.030  0.00  0.00    -0.004 A 
ATOM     25  C   UNL     1      -4.186  -2.334  23.798  0.00  0.00    -0.000 A 
ATOM     26  C   UNL     1      -3.733  -2.826  24.282  0.00  0.00    -0.000 A 
ATOM     27  C   UNL     1      -3.437  -2.541  24.998  0.00  0.00    -0.000 A 
ATOM     28  C   UNL     1      -3.593  -1.765  25.228  0.00  0.00    -0.004 A 
ENDBRANCH  22  23
ENDBRANCH  21  22
ENDBRANCH  15  19
BRANCH  13  12
ATOM     10  C   UNL     1       0.453   0.761  23.760  0.00  0.00    +0.265 C 
ATOM     11  O   UNL     1       0.161   0.174  24.261  0.00  0.00    -0.268 OA
ATOM     12  N   UNL     1      -0.002   1.429  23.596  0.00  0.00    -0.202 NA
BRANCH  10   7
ATOM      4  C   UNL     1       2.699   0.516  22.747  0.00  0.00    +0.048 A 
ATOM      5  C   UNL     1       2.106  -0.030  22.573  0.00  0.00    +0.015 A 
ATOM      6  C   UNL     1       1.358   0.051  22.911  0.00  0.00    +0.006 A 
ATOM      7  C   UNL     1       1.203   0.680  23.422  0.00  0.00    +0.055 A 
ATOM      8  C   UNL     1       1.795   1.227  23.596  0.00  0.00    +0.006 A 
ATOM      9  C   UNL     1       2.543   1.145  23.258  0.00  0.00    +0.015 A 
BRANCH   4   2
ATOM      1  C   UNL     1       3.521   0.233  21.612  0.00  0.00    +0.112 C 
ATOM      2  N   UNL     1       3.447   0.435  22.410  0.00  0.00    -0.304 N 
ATOM      3  C   UNL     1       4.122   0.555  22.868  0.00  0.00    +0.112 C 
ENDBRANCH   4   2
ENDBRANCH  10   7
ENDBRANCH  13  12
TORSDOF 6
ENDMDL
MODEL 5
REMARK VINA RESULT:      -9.4      3.820      5.432
REMARK  Name = 
REMARK  6 active torsions:
REMARK  status: ('A' for Active; 'I' for Inactive)
REMARK    1  A    between atoms: N_2  and  C_4
REMARK    2  A    between atoms: C_7  and  C_10
REMARK    3  A    between atoms: N_12  and  C_13
REMARK    4  A    between atoms: C_15  and  C_19
REMARK    5  A    between atoms: C_21  and  C_22
REMARK    6  A    between atoms: C_22  and  C_23
REMARK                            x       y       z     vdW  Elec       q    Type
REMARK                         _______ _______ _______ _____ _____    ______ ____
ROOT
ATOM     13  C   UNL     1      -0.532   0.534  24.227  0.00  0.00    +0.113 C 
ATOM     14  C   UNL     1      -1.202   0.882  23.894  0.00  0.00    +0.049 C 
ATOM     15  C   UNL     1      -1.862   0.618  24.312  0.00  0.00    +0.139 C 
ATOM     16  N   UNL     1      -1.600   0.106  24.904  0.00  0.00    -0.264 NA
ATOM     17  C   UNL     1      -2.076  -0.285  25.452  0.00  0.00    +0.090 C 
ATOM     18  C   UNL     1      -0.778   0.054  24.851  0.00  0.00    +0.094 C 
ENDROOT
BRANCH  15  19
ATOM     19  C   UNL     1      -2.645   0.829  24.165  0.00  0.00    +0.251 A 
ATOM     20  N   UNL     1      -2.959   1.590  24.207  0.00  0.00    -0.193 NA
ATOM     21  C   UNL     1      -3.761   1.546  24.017  0.00  0.00    +0.185 A 
ATOM     29  N   UNL     1      -3.943   0.757  23.858  0.00  0.00    -0.060 NA
ATOM     30  O   UNL     1      -3.254   0.314  23.949  0.00  0.00    -0.336 OA
BRANCH  21  22
ATOM     22  C   UNL     1      -4.289   2.180  23.991  0.00  0.00    +0.095 C 
BRANCH  22  23
ATOM     23  C   UNL     1      -4.744   2.366  24.654  0.00  0.00    -0.014 A 
ATOM     24  C   UNL     1      -5.424   1.931  24.821  0.00  0.00    -0.004 A 
ATOM     25  C   UNL     1      -5.879   2.117  25.484  0.00  0.00    -0.000 A 
ATOM     26  C   UNL     1      -5.653   2.738  25.978  0.00  0.00    -0.000 A 
ATOM     27  C   UNL     1      -4.972   3.172  25.810  0.00  0.00    -0.000 A 
ATOM     28  C   UNL     1      -4.518   2.986  25.148  0.00  0.00    -0.004 A 
ENDBRANCH  22  23
ENDBRANCH  21  22
ENDBRANCH  15  19
BRANCH  13  12
ATOM     10  C   UNL     1       0.585   0.125  23.437  0.00  0.00    +0.265 C 
ATOM     11  O   UNL     1       0.146  -0.507  23.141  0.00  0.00    -0.268 OA
ATOM     12  N   UNL     1       0.247   0.645  23.979  0.00  0.00    -0.202 NA
BRANCH  10   7
ATOM      4  C   UNL     1       2.923   0.461  22.693  0.00  0.00    +0.048 A 
ATOM      5  C   UNL     1       2.588   0.973  23.246  0.00  0.00    +0.015 A 
ATOM      6  C   UNL     1       1.809   0.861  23.493  0.00  0.00    +0.006 A 
ATOM      7  C   UNL     1       1.365   0.237  23.189  0.00  0.00    +0.055 A 
ATOM      8  C   UNL     1       1.699  -0.276  22.636  0.00  0.00    +0.006 A 
ATOM      9  C   UNL     1       2.478  -0.164  22.388  0.00  0.00    +0.015 A 
BRANCH   4   2
ATOM      1  C   UNL     1       4.292   0.732  23.000  0.00  0.00    +0.112 C 
ATOM      2  N   UNL     1       3.701   0.572  22.445  0.00  0.00    -0.304 N 
ATOM      3  C   UNL     1       3.891   0.524  21.644  0.00  0.00    +0.112 C 
ENDBRANCH   4   2
ENDBRANCH  10   7
ENDBRANCH  13  12
TORSDOF 6
ENDMDL
MODEL 6
REMARK VINA RESULT:      -9.3      4.006      5.461
REMARK  Name = 
REMARK  6 active torsions:
REMARK  status: ('A' for Active; 'I' for Inactive)
REMARK    1  A    between atoms: N_2  and  C_4
REMARK    2  A    between atoms: C_7  and  C_10
REMARK    3  A    between atoms: N_12  and  C_13
REMARK    4  A    between atoms: C_15  and  C_19
REMARK    5  A    between atoms: C_21  and  C_22
REMARK    6  A    between atoms: C_22  and  C_23
REMARK                            x       y       z     vdW  Elec       q    Type
REMARK                         _______ _______ _______ _____ _____    ______ ____
ROOT
ATOM     13  C   UNL     1      -1.422   0.542  24.551  0.00  0.00    +0.113 C 
ATOM     14  C   UNL     1      -0.780   0.952  24.234  0.00  0.00    +0.049 C 
ATOM     15  C   UNL     1      -0.182   0.405  24.075  0.00  0.00    +0.139 C 
ATOM     16  N   UNL     1      -0.455  -0.342  24.294  0.00  0.00    -0.264 NA
ATOM     17  C   UNL     1      -0.035  -1.049  24.231  0.00  0.00    +0.090 C 
ATOM     18  C   UNL     1      -1.221  -0.257  24.588  0.00  0.00    +0.094 C 
ENDROOT
BRANCH  15  19
ATOM     19  C   UNL     1       0.558   0.577  23.754  0.00  0.00    +0.251 A 
ATOM     20  N   UNL     1       0.969   0.114  23.208  0.00  0.00    -0.193 NA
ATOM     21  C   UNL     1       1.682   0.493  23.040  0.00  0.00    +0.185 A 
ATOM     29  N   UNL     1       1.713   1.189  23.482  0.00  0.00    -0.060 NA
ATOM     30  O   UNL     1       1.019   1.241  23.923  0.00  0.00    -0.336 OA
BRANCH  21  22
ATOM     22  C   UNL     1       2.264   0.223  22.520  0.00  0.00    +0.095 C 
BRANCH  22  23
ATOM     23  C   UNL     1       3.058   0.244  22.742  0.00  0.00    -0.014 A 
ATOM     24  C   UNL     1       3.514   0.910  22.578  0.00  0.00    -0.004 A 
ATOM     25  C   UNL     1       4.308   0.931  22.800  0.00  0.00    -0.000 A 
ATOM     26  C   UNL     1       4.646   0.285  23.186  0.00  0.00    -0.000 A 
ATOM     27  C   UNL     1       4.189  -0.383  23.350  0.00  0.00    -0.000 A 
ATOM     28  C   UNL     1       3.395  -0.403  23.128  0.00  0.00    -0.004 A 
ENDBRANCH  22  23
ENDBRANCH  21  22
ENDBRANCH  15  19
BRANCH  13  12
ATOM     10  C   UNL     1      -2.742   0.990  24.239  0.00  0.00    +0.265 C 
ATOM     11  O   UNL     1      -2.629   0.774  23.450  0.00  0.00    -0.268 OA
ATOM     12  N   UNL     1      -2.139   0.873  24.789  0.00  0.00    -0.202 NA
BRANCH  10   7
ATOM      4  C   UNL     1      -4.894   1.985  24.953  0.00  0.00    +0.048 A 
ATOM      5  C   UNL     1      -4.772   1.172  25.022  0.00  0.00    +0.015 A 
ATOM      6  C   UNL     1      -4.055   0.840  24.784  0.00  0.00    +0.006 A 
ATOM      7  C   UNL     1      -3.460   1.322  24.477  0.00  0.00    +0.055 A 
ATOM      8  C   UNL     1      -3.581   2.135  24.408  0.00  0.00    +0.006 A 
ATOM      9  C   UNL     1      -4.298   2.466  24.645  0.00  0.00    +0.015 A 
BRANCH   4   2
ATOM      1  C   UNL     1      -6.320   1.928  25.024  0.00  0.00    +0.112 C 
ATOM      2  N   UNL     1      -5.610   2.316  25.190  0.00  0.00    -0.304 N 
ATOM      3  C   UNL     1      -5.619   3.035  25.594  0.00  0.00    +0.112 C 
ENDBRANCH   4   2
ENDBRANCH  10   7
ENDBRANCH  13  12
TORSDOF 6
ENDMDL
MODEL 7
REMARK VINA RESULT:      -8.8      1.293      5.854
REMARK  Name = 
REMARK  6 active torsions:
REMARK  status: ('A' for Active; 'I' for Inactive)
REMARK    1  A    between atoms: N_2  and  C_4
REMARK    2  A    between atoms: C_7  and  C_10
REMARK    3  A    between atoms: N_12  and  C_13
REMARK    4  A    between atoms: C_15  and  C_19
REMARK    5  A    between atoms: C_21  and  C_22
REMARK    6  A    between atoms: C_22  and  C_23
REMARK                            x       y       z     vdW  Elec       q    Type
REMARK                         _______ _______ _______ _____ _____    ______ ____
ROOT
ATOM     13  C   UNL     1      -3.902   1.897  24.737  0.00  0.00    +0.113 C 
ATOM     14  C   UNL     1      -3.650   1.135  24.544  0.00  0.00    +0.049 C 
ATOM     15  C   UNL     1      -4.273   0.615  24.694  0.00  0.00    +0.139 C 
ATOM     16  N   UNL     1      -4.910   1.055  24.979  0.00  0.00    -0.264 NA
ATOM     17  C   UNL     1      -5.647   0.756  25.199  0.00  0.00    +0.090 C 
ATOM     18  C   UNL     1      -4.681   1.848  25.005  0.00  0.00    +0.094 C 
ENDROOT
BRANCH  15  19
ATOM     19  C   UNL     1      -4.261  -0.202  24.579  0.00  0.00    +0.251 A 
ATOM     20  N   UNL     1      -3.806  -0.745  25.002  0.00  0.00    -0.193 NA
ATOM     21  C   UNL     1      -3.967  -1.497  24.704  0.00  0.00    +0.185 A 
ATOM     29  N   UNL     1      -4.520  -1.420  24.097  0.00  0.00    -0.060 NA
ATOM     30  O   UNL     1      -4.702  -0.619  24.020  0.00  0.00    -0.336 OA
BRANCH  21  22
ATOM     22  C   UNL     1      -3.631  -2.204  24.968  0.00  0.00    +0.095 C 
BRANCH  22  23
ATOM     23  C   UNL     1      -2.838  -2.368  24.812  0.00  0.00    -0.014 A 
ATOM     24  C   UNL     1      -2.628  -2.776  24.128  0.00  0.00    -0.004 A 
ATOM     25  C   UNL     1      -1.834  -2.940  23.973  0.00  0.00    -0.000 A 
ATOM     26  C   UNL     1      -1.251  -2.695  24.503  0.00  0.00    -0.000 A 
ATOM     27  C   UNL     1      -1.462  -2.285  25.188  0.00  0.00    -0.000 A 
ATOM     28  C   UNL     1      -2.255  -2.122  25.342  0.00  0.00    -0.004 A 
ENDBRANCH  22  23
ENDBRANCH  21  22
ENDBRANCH  15  19
BRANCH  13  12
ATOM     10  C   UNL     1      -2.801   2.701  25.161  0.00  0.00    +0.265 C 
ATOM     11  O   UNL     1      -2.594   2.126  25.716  0.00  0.00    -0.268 OA
ATOM     12  N   UNL     1      -3.454   2.587  24.672  0.00  0.00    -0.202 NA
BRANCH  10   7
ATOM      4  C   UNL     1      -1.456   4.771  24.966  0.00  0.00    +0.048 A 
ATOM      5  C   UNL     1      -1.182   4.068  24.635  0.00  0.00    +0.015 A 
ATOM      6  C   UNL     1      -1.630   3.378  24.700  0.00  0.00    +0.006 A 
ATOM      7  C   UNL     1      -2.352   3.392  25.096  0.00  0.00    +0.055 A 
ATOM      8  C   UNL     1      -2.628   4.095  25.428  0.00  0.00    +0.006 A 
ATOM      9  C   UNL     1      -2.180   4.785  25.363  0.00  0.00    +0.015 A 
BRANCH   4   2
ATOM      1  C   UNL     1      -1.368   6.197  25.002  0.00  0.00    +0.112 C 
ATOM      2  N   UNL     1      -1.009   5.460  24.902  0.00  0.00    -0.304 N 
ATOM      3  C   UNL     1      -0.202   5.414  24.736  0.00  0.00    +0.112 C 
ENDBRANCH   4   2
ENDBRANCH  10   7
ENDBRANCH  13  12
TORSDOF 6
ENDMDL
