MODEL 1
REMARK VINA RESULT:     -10.4      0.000      0.000
REMARK  Name = 
REMARK  8 active torsions:
REMARK  status: ('A' for Active; 'I' for Inactive)
REMARK    1  A    between atoms: N_2  and  C_3
REMARK    2  A    between atoms: N_2  and  C_11
REMARK    3  A    between atoms: C_3  and  C_4
REMARK    4  A    between atoms: C_4  and  C_5
REMARK    5  A    between atoms: C_24  and  C_25
REMARK    6  A    between atoms: C_25  and  C_26
REMARK    7  A    between atoms: N_28  and  C_29
REMARK    8  A    between atoms: C_29  and  C_30
REMARK                            x       y       z     vdW  Elec       q    Type
REMARK                         _______ _______ _______ _____ _____    ______ ____
ROOT
ATOM     11  C   UNL     1       1.128   0.043  22.968  0.00  0.00    +0.048 A 
ATOM     12  C   UNL     1       0.755   0.776  23.026  0.00  0.00    +0.018 A 
ATOM     13  C   UNL     1       0.012   0.835  23.379  0.00  0.00    +0.038 A 
ATOM     14  C   UNL     1      -0.359   0.159  23.674  0.00  0.00    +0.136 A 
ATOM     15  O   UNL     1      -0.237   0.952  23.480  0.00  0.00    -0.471 OA
ATOM     16  C   UNL     1      -0.898   1.379  23.730  0.00  0.00    +0.231 C 
ATOM     17  C   UNL     1      -1.427   0.851  24.078  0.00  0.00    +0.016 C 
ATOM     18  C   UNL     1      -2.237   0.837  24.475  0.00  0.00    -0.026 C 
ATOM     19  C   UNL     1      -2.579   0.143  24.760  0.00  0.00    +0.042 C 
ATOM     20  C   UNL     1      -2.179  -0.575  24.686  0.00  0.00    +0.098 C 
ATOM     21  N   UNL     1      -2.521  -1.270  24.971  0.00  0.00    -0.278 N 
ATOM     22  C   UNL     1      -3.264  -1.246  25.329  0.00  0.00    +0.093 C 
ATOM     23  C   UNL     1      -3.665  -0.529  25.403  0.00  0.00    +0.022 C 
ATOM     24  C   UNL     1      -3.322   0.165  25.118  0.00  0.00    +0.017 C 
ATOM     33  C   UNL     1      -2.120  -1.987  24.897  0.00  0.00    +0.243 C 
ATOM     34  O   UNL     1      -2.463  -2.681  25.182  0.00  0.00    -0.273 OA
ATOM     35  C   UNL     1      -1.378  -2.010  24.538  0.00  0.00    +0.174 C 
ATOM     36  N   UNL     1      -1.036  -1.315  24.254  0.00  0.00    -0.204 NA
ATOM     37  C   UNL     1      -0.293  -1.338  23.895  0.00  0.00    +0.119 C 
ATOM     38  C   UNL     1       0.014  -0.575  23.616  0.00  0.00    +0.030 A 
ATOM     39  C   UNL     1       0.758  -0.632  23.263  0.00  0.00    +0.015 A 
ENDROOT
BRANCH  11   2
ATOM      1  C   UNL     1       1.933  -0.151  21.804  0.00  0.00    +0.112 C 
ATOM      2  N   UNL     1       1.872  -0.016  22.615  0.00  0.00    -0.305 N 
BRANCH   2   3
ATOM      3  C   UNL     1       2.554   0.061  23.074  0.00  0.00    +0.097 C 
BRANCH   3   4
ATOM      4  C   UNL     1       3.280   0.203  22.711  0.00  0.00    +0.067 C 
BRANCH   4   5
ATOM      5  C   UNL     1       3.981   0.070  23.126  0.00  0.00    +0.061 A 
ATOM      6  N   UNL     1       4.131  -0.671  23.456  0.00  0.00    -0.248 NA
ATOM      7  C   UNL     1       4.831  -0.804  23.870  0.00  0.00    +0.098 A 
ATOM      8  C   UNL     1       5.382  -0.196  23.956  0.00  0.00    +0.021 A 
ATOM      9  C   UNL     1       5.233   0.546  23.626  0.00  0.00    +0.003 A 
ATOM     10  C   UNL     1       4.532   0.678  23.211  0.00  0.00    +0.015 A 
ENDBRANCH   4   5
ENDBRANCH   3   4
ENDBRANCH   2   3
ENDBRANCH  11   2
BRANCH  24  25
ATOM     25  C   UNL     1      -3.723   0.883  25.192  0.00  0.00    +0.087 C 
BRANCH  25  26
ATOM     26  C   UNL     1      -4.532   0.922  25.034  0.00  0.00    +0.241 C 
ATOM     27  O   UNL     1      -4.931   0.253  24.763  0.00  0.00    -0.273 OA
ATOM     28  N   UNL     1      -4.942   1.628  25.149  0.00  0.00    -0.205 NA
BRANCH  28  29
ATOM     29  C   UNL     1      -4.542   2.297  25.421  0.00  0.00    +0.115 C 
BRANCH  29  30
ATOM     30  C   UNL     1      -4.933   3.023  25.457  0.00  0.00    +0.022 C 
ATOM     31  C   UNL     1      -4.936   3.839  25.332  0.00  0.00    +0.002 C 
ATOM     32  C   UNL     1      -5.604   3.466  25.642  0.00  0.00    +0.002 C 
ENDBRANCH  29  30
ENDBRANCH  28  29
ENDBRANCH  25  26
ENDBRANCH  24  25
TORSDOF 8
ENDMDL
MODEL 2
REMARK VINA RESULT:      -9.6      1.894      3.019
REMARK  Name = 
REMARK  8 active torsions:
REMARK  status: ('A' for Active; 'I' for Inactive)
REMARK    1  A    between atoms: N_2  and  C_3
REMARK    2  A    between atoms: N_2  and  C_11
REMARK    3  A    between atoms: C_3  and  C_4
REMARK    4  A    between atoms: C_4  and  C_5
REMARK    5  A    between atoms: C_24  and  C_25
REMARK    6  A    between atoms: C_25  and  C_26
REMARK    7  A    between atoms: N_28  and  C_29
REMARK    8  A    between atoms: C_29  and  C_30
REMARK                            x       y       z     vdW  Elec       q    Type
REMARK                         _______ _______ _______ _____ _____    ______ ____
ROOT
ATOM     11  C   UNL     1       0.705   0.526  23.330  0.00  0.00    +0.048 A 
ATOM     12  C   UNL     1       0.001   0.140  23.516  0.00  0.00    +0.018 A 
ATOM     13  C   UNL     1      -0.619   0.556  23.867  0.00  0.00    +0.038 A 
ATOM     14  C   UNL     1      -0.534   1.359  24.032  0.00  0.00    +0.136 A 
ATOM     15  O   UNL     1      -0.882   0.612  23.986  0.00  0.00    -0.471 OA
ATOM     16  C   UNL     1      -1.642   0.665  24.303  0.00  0.00    +0.231 C 
ATOM     17  C   UNL     1      -1.764   1.444  24.545  0.00  0.00    +0.016 C 
ATOM     18  C   UNL     1      -2.396   1.963  24.926  0.00  0.00    -0.026 C 
ATOM     19  C   UNL     1      -2.279   2.765  25.078  0.00  0.00    +0.042 C 
ATOM     20  C   UNL     1      -1.562   3.121  24.880  0.00  0.00    +0.098 C 
ATOM     21  N   UNL     1      -1.443   3.924  25.031  0.00  0.00    -0.278 N 
ATOM     22  C   UNL     1      -2.043   4.370  25.382  0.00  0.00    +0.093 C 
ATOM     23  C   UNL     1      -2.760   4.014  25.580  0.00  0.00    +0.022 C 
ATOM     24  C   UNL     1      -2.877   3.211  25.428  0.00  0.00    +0.017 C 
ATOM     33  C   UNL     1      -0.726   4.280  24.833  0.00  0.00    +0.243 C 
ATOM     34  O   UNL     1      -0.609   5.082  24.985  0.00  0.00    -0.273 OA
ATOM     35  C   UNL     1      -0.127   3.834  24.483  0.00  0.00    +0.174 C 
ATOM     36  N   UNL     1      -0.245   3.032  24.331  0.00  0.00    -0.204 NA
ATOM     37  C   UNL     1       0.354   2.586  23.981  0.00  0.00    +0.119 C 
ATOM     38  C   UNL     1       0.170   1.747  23.847  0.00  0.00    +0.030 A 
ATOM     39  C   UNL     1       0.789   1.330  23.496  0.00  0.00    +0.015 A 
ENDROOT
BRANCH  11   2
ATOM      1  C   UNL     1       1.163  -0.490  22.437  0.00  0.00    +0.112 C 
ATOM      2  N   UNL     1       1.325   0.110  22.979  0.00  0.00    -0.305 N 
BRANCH   2   3
ATOM      3  C   UNL     1       2.106   0.294  23.171  0.00  0.00    +0.097 C 
BRANCH   3   4
ATOM      4  C   UNL     1       2.721   0.026  22.692  0.00  0.00    +0.067 C 
BRANCH   4   5
ATOM      5  C   UNL     1       3.504   0.118  22.937  0.00  0.00    +0.061 A 
ATOM      6  N   UNL     1       3.885  -0.491  23.340  0.00  0.00    -0.248 NA
ATOM      7  C   UNL     1       4.667  -0.399  23.584  0.00  0.00    +0.098 A 
ATOM      8  C   UNL     1       5.069   0.304  23.426  0.00  0.00    +0.021 A 
ATOM      9  C   UNL     1       4.688   0.915  23.022  0.00  0.00    +0.003 A 
ATOM     10  C   UNL     1       3.905   0.822  22.777  0.00  0.00    +0.015 A 
ENDBRANCH   4   5
ENDBRANCH   3   4
ENDBRANCH   2   3
ENDBRANCH  11   2
BRANCH  24  25
ATOM     25  C   UNL     1      -3.595   2.855  25.627  0.00  0.00    +0.087 C 
BRANCH  25  26
ATOM     26  C   UNL     1      -4.247   3.321  25.823  0.00  0.00    +0.241 C 
ATOM     27  O   UNL     1      -4.133   4.076  26.136  0.00  0.00    -0.273 OA
ATOM     28  N   UNL     1      -5.011   3.034  25.708  0.00  0.00    -0.205 NA
BRANCH  28  29
ATOM     29  C   UNL     1      -5.124   2.279  25.395  0.00  0.00    +0.115 C 
BRANCH  29  30
ATOM     30  C   UNL     1      -5.889   1.988  25.288  0.00  0.00    +0.022 C 
ATOM     31  C   UNL     1      -6.550   1.876  24.806  0.00  0.00    +0.002 C 
ATOM     32  C   UNL     1      -6.553   1.596  25.583  0.00  0.00    +0.002 C 
ENDBRANCH  29  30
ENDBRANCH  28  29
ENDBRANCH  25  26
ENDBRANCH  24  25
TORSDOF 8
ENDMDL
MODEL 3
REMARK VINA RESULT:      -9.1      1.409      6.860
REMARK  Name = 
REMARK  8 active torsions:
REMARK  status: ('A' for Active; 'I' for Inactive)
REMARK    1  A    between atoms: N_2  and  C_3
REMARK    2  A    between atoms: N_2  and  C_11
REMARK    3  A    between atoms: C_3  and  C_4
REMARK    4  A    between atoms: C_4  and  C_5
REMARK    5  A    between atoms: C_24  and  C_25
REMARK    6  A    between atoms: C_25  and  C_26
REMARK    7  A    between atoms: N_28  and  C_29
REMARK    8  A    between atoms: C_29  and  C_30
REMARK                            x       y       z     vdW  Elec       q    Type
REMARK                         _______ _______ _______ _____ _____    ______ ____
ROOT
ATOM     11  C   UNL     1      -2.542   3.035  25.179  0.00  0.00    +0.048 A 
ATOM     12  C   UNL     1      -1.876   3.419  24.881  0.00  0.00    +0.018 A 
ATOM     13  C   UNL     1      -1.246   2.981  24.579  0.00  0.00    +0.038 A 
ATOM     14  C   UNL     1      -1.281   2.157  24.576  0.00  0.00    +0.136 A 
ATOM     15  O   UNL     1      -0.986   2.919  24.458  0.00  0.00    -0.471 OA
ATOM     16  C   UNL     1      -0.240   2.852  24.112  0.00  0.00    +0.231 C 
ATOM     17  C   UNL     1      -0.074   2.049  24.016  0.00  0.00    +0.016 C 
ATOM     18  C   UNL     1       0.574   1.505  23.703  0.00  0.00    -0.026 C 
ATOM     19  C   UNL     1       0.506   0.683  23.714  0.00  0.00    +0.042 C 
ATOM     20  C   UNL     1      -0.173   0.329  24.019  0.00  0.00    +0.098 C 
ATOM     21  N   UNL     1      -0.242  -0.493  24.030  0.00  0.00    -0.278 N 
ATOM     22  C   UNL     1       0.370  -0.961  23.736  0.00  0.00    +0.093 C 
ATOM     23  C   UNL     1       1.051  -0.608  23.431  0.00  0.00    +0.022 C 
ATOM     24  C   UNL     1       1.118   0.214  23.420  0.00  0.00    +0.017 C 
ATOM     33  C   UNL     1      -0.922  -0.846  24.336  0.00  0.00    +0.243 C 
ATOM     34  O   UNL     1      -0.989  -1.668  24.346  0.00  0.00    -0.273 OA
ATOM     35  C   UNL     1      -1.534  -0.378  24.630  0.00  0.00    +0.174 C 
ATOM     36  N   UNL     1      -1.466   0.444  24.618  0.00  0.00    -0.204 NA
ATOM     37  C   UNL     1      -2.078   0.913  24.912  0.00  0.00    +0.119 C 
ATOM     38  C   UNL     1      -1.947   1.771  24.873  0.00  0.00    +0.030 A 
ATOM     39  C   UNL     1      -2.577   2.210  25.175  0.00  0.00    +0.015 A 
ENDROOT
BRANCH  11   2
ATOM      1  C   UNL     1      -3.034   4.060  26.043  0.00  0.00    +0.112 C 
ATOM      2  N   UNL     1      -3.172   3.473  25.481  0.00  0.00    -0.305 N 
BRANCH   2   3
ATOM      3  C   UNL     1      -3.941   3.323  25.220  0.00  0.00    +0.097 C 
BRANCH   3   4
ATOM      4  C   UNL     1      -4.579   3.443  25.730  0.00  0.00    +0.067 C 
BRANCH   4   5
ATOM      5  C   UNL     1      -5.232   2.940  25.695  0.00  0.00    +0.061 A 
ATOM      6  N   UNL     1      -5.592   2.682  26.391  0.00  0.00    -0.248 NA
ATOM      7  C   UNL     1      -6.245   2.180  26.356  0.00  0.00    +0.098 A 
ATOM      8  C   UNL     1      -6.539   1.936  25.625  0.00  0.00    +0.021 A 
ATOM      9  C   UNL     1      -6.180   2.194  24.929  0.00  0.00    +0.003 A 
ATOM     10  C   UNL     1      -5.526   2.697  24.964  0.00  0.00    +0.015 A 
ENDBRANCH   4   5
ENDBRANCH   3   4
ENDBRANCH   2   3
ENDBRANCH  11   2
BRANCH  24  25
ATOM     25  C   UNL     1       1.798   0.568  23.115  0.00  0.00    +0.087 C 
BRANCH  25  26
ATOM     26  C   UNL     1       2.215   0.202  22.503  0.00  0.00    +0.241 C 
ATOM     27  O   UNL     1       1.805  -0.169  21.891  0.00  0.00    -0.273 OA
ATOM     28  N   UNL     1       3.039   0.206  22.504  0.00  0.00    -0.205 NA
BRANCH  28  29
ATOM     29  C   UNL     1       3.449   0.577  23.117  0.00  0.00    +0.115 C 
BRANCH  29  30
ATOM     30  C   UNL     1       4.266   0.484  23.181  0.00  0.00    +0.022 C 
ATOM     31  C   UNL     1       4.927  -0.008  23.238  0.00  0.00    +0.002 C 
ATOM     32  C   UNL     1       5.021   0.812  23.236  0.00  0.00    +0.002 C 
ENDBRANCH  29  30
ENDBRANCH  28  29
ENDBRANCH  25  26
ENDBRANCH  24  25
TORSDOF 8
ENDMDL
MODEL 4
REMARK VINA RESULT:      -8.7      1.510      2.790
REMARK  Name = 
REMARK  8 active torsions:
REMARK  status: ('A' for Active; 'I' for Inactive)
REMARK    1  A    between atoms: N_2  and  C_3
REMARK    2  A    between atoms: N_2  and  C_11
REMARK    3  A    between atoms: C_3  and  C_4
REMARK    4  A    between atoms: C_4  and  C_5
REMARK    5  A    between atoms: C_24  and  C_25
REMARK    6  A    between atoms: C_25  and  C_26
REMARK    7  A    between atoms: N_28  and  C_29
REMARK    8  A    between atoms: C_29  and  C_30
REMARK                            x       y       z     vdW  Elec       q    Type
REMARK                         _______ _______ _______ _____ _____    ______ ____
ROOT
ATOM     11  C   UNL     1       1.848   0.332  22.973  0.00  0.00    +0.048 A 
ATOM     12  C   UNL     1       1.385  -0.347  23.038  0.00  0.00    +0.018 A 
ATOM     13  C   UNL     1       0.629  -0.302  23.365  0.00  0.00    +0.038 A 
ATOM     14  C   UNL     1       0.337   0.423  23.628  0.00  0.00    +0.136 A 
ATOM     15  O   UNL     1       0.364  -0.385  23.461  0.00  0.00    -0.471 OA
ATOM     16  C   UNL     1      -0.352  -0.719  23.698  0.00  0.00    +0.231 C 
ATOM     17  C   UNL     1      -0.822  -0.118  24.012  0.00  0.00    +0.016 C 
ATOM     18  C   UNL     1      -1.637   0.008  24.380  0.00  0.00    -0.026 C 
ATOM     19  C   UNL     1      -1.898   0.748  24.634  0.00  0.00    +0.042 C 
ATOM     20  C   UNL     1      -1.410   1.408  24.555  0.00  0.00    +0.098 C 
ATOM     21  N   UNL     1      -1.671   2.148  24.808  0.00  0.00    -0.278 N 
ATOM     22  C   UNL     1      -2.422   2.228  25.140  0.00  0.00    +0.093 C 
ATOM     23  C   UNL     1      -2.912   1.569  25.219  0.00  0.00    +0.022 C 
ATOM     24  C   UNL     1      -2.649   0.829  24.966  0.00  0.00    +0.017 C 
ATOM     33  C   UNL     1      -1.182   2.808  24.729  0.00  0.00    +0.243 C 
ATOM     34  O   UNL     1      -1.445   3.548  24.983  0.00  0.00    -0.273 OA
ATOM     35  C   UNL     1      -0.431   2.728  24.397  0.00  0.00    +0.174 C 
ATOM     36  N   UNL     1      -0.170   1.987  24.144  0.00  0.00    -0.204 NA
ATOM     37  C   UNL     1       0.581   1.907  23.812  0.00  0.00    +0.119 C 
ATOM     38  C   UNL     1       0.799   1.103  23.565  0.00  0.00    +0.030 A 
ATOM     39  C   UNL     1       1.555   1.057  23.237  0.00  0.00    +0.015 A 
ENDROOT
BRANCH  11   2
ATOM      1  C   UNL     1       2.696   0.223  21.829  0.00  0.00    +0.112 C 
ATOM      2  N   UNL     1       2.604   0.287  22.646  0.00  0.00    -0.305 N 
BRANCH   2   3
ATOM      3  C   UNL     1       3.268   0.307  23.136  0.00  0.00    +0.097 C 
BRANCH   3   4
ATOM      4  C   UNL     1       4.017   0.164  22.821  0.00  0.00    +0.067 C 
BRANCH   4   5
ATOM      5  C   UNL     1       4.653   0.011  23.324  0.00  0.00    +0.061 A 
ATOM      6  N   UNL     1       4.761  -0.745  23.634  0.00  0.00    -0.248 NA
ATOM      7  C   UNL     1       5.397  -0.898  24.137  0.00  0.00    +0.098 A 
ATOM      8  C   UNL     1       5.925  -0.294  24.330  0.00  0.00    +0.021 A 
ATOM      9  C   UNL     1       5.817   0.463  24.019  0.00  0.00    +0.003 A 
ATOM     10  C   UNL     1       5.180   0.615  23.516  0.00  0.00    +0.015 A 
ENDBRANCH   4   5
ENDBRANCH   3   4
ENDBRANCH   2   3
ENDBRANCH  11   2
BRANCH  24  25
ATOM     25  C   UNL     1      -3.138   0.169  25.045  0.00  0.00    +0.087 C 
BRANCH  25  26
ATOM     26  C   UNL     1      -3.901   0.181  24.729  0.00  0.00    +0.241 C 
ATOM     27  O   UNL     1      -4.269   0.901  24.569  0.00  0.00    -0.273 OA
ATOM     28  N   UNL     1      -4.295  -0.527  24.574  0.00  0.00    -0.205 NA
BRANCH  28  29
ATOM     29  C   UNL     1      -3.927  -1.248  24.735  0.00  0.00    +0.115 C 
BRANCH  29  30
ATOM     30  C   UNL     1      -4.130  -1.920  24.301  0.00  0.00    +0.022 C 
ATOM     31  C   UNL     1      -4.004  -2.714  24.113  0.00  0.00    +0.002 C 
ATOM     32  C   UNL     1      -4.606  -2.291  23.739  0.00  0.00    +0.002 C 
ENDBRANCH  29  30
ENDBRANCH  28  29
ENDBRANCH  25  26
ENDBRANCH  24  25
TORSDOF 8
ENDMDL
MODEL 5
REMARK VINA RESULT:      -7.5     15.187     16.930
REMARK  Name = 
REMARK  8 active torsions:
REMARK  status: ('A' for Active; 'I' for Inactive)
REMARK    1  A    between atoms: N_2  and  C_3
REMARK    2  A    between atoms: N_2  and  C_11
REMARK    3  A    between atoms: C_3  and  C_4
REMARK    4  A    between atoms: C_4  and  C_5
REMARK    5  A    between atoms: C_24  and  C_25
REMARK    6  A    between atoms: C_25  and  C_26
REMARK    7  A    between atoms: N_28  and  C_29
REMARK    8  A    between atoms: C_29  and  C_30
REMARK                            x       y       z     vdW  Elec       q    Type
REMARK                         _______ _______ _______ _____ _____    ______ ____
ROOT
ATOM     11  C   UNL     1      -7.351  -9.573  10.862  0.00  0.00    +0.048 A 
ATOM     12  C   UNL     1      -6.533  -9.667  10.900  0.00  0.00    +0.018 A 
ATOM     13  C   UNL     1      -6.164  -9.786  11.629  0.00  0.00    +0.038 A 
ATOM     14  C   UNL     1      -6.615  -9.812  12.319  0.00  0.00    +0.136 A 
ATOM     15  O   UNL     1      -5.952  -9.831  11.827  0.00  0.00    -0.471 OA
ATOM     16  C   UNL     1      -5.287  -9.955  12.299  0.00  0.00    +0.231 C 
ATOM     17  C   UNL     1      -5.538 -10.013  13.083  0.00  0.00    +0.016 C 
ATOM     18  C   UNL     1      -5.206 -10.139  13.913  0.00  0.00    -0.026 C 
ATOM     19  C   UNL     1      -5.686 -10.159  14.583  0.00  0.00    +0.042 C 
ATOM     20  C   UNL     1      -6.502 -10.062  14.511  0.00  0.00    +0.098 C 
ATOM     21  N   UNL     1      -6.982 -10.082  15.181  0.00  0.00    -0.278 N 
ATOM     22  C   UNL     1      -6.645 -10.200  15.925  0.00  0.00    +0.093 C 
ATOM     23  C   UNL     1      -5.830 -10.297  15.999  0.00  0.00    +0.022 C 
ATOM     24  C   UNL     1      -5.350 -10.277  15.328  0.00  0.00    +0.017 C 
ATOM     33  C   UNL     1      -7.798  -9.985  15.107  0.00  0.00    +0.243 C 
ATOM     34  O   UNL     1      -8.277 -10.005  15.779  0.00  0.00    -0.273 OA
ATOM     35  C   UNL     1      -8.134  -9.867  14.363  0.00  0.00    +0.174 C 
ATOM     36  N   UNL     1      -7.654  -9.847  13.693  0.00  0.00    -0.204 NA
ATOM     37  C   UNL     1      -7.990  -9.730  12.949  0.00  0.00    +0.119 C 
ATOM     38  C   UNL     1      -7.434  -9.718  12.281  0.00  0.00    +0.030 A 
ATOM     39  C   UNL     1      -7.801  -9.599  11.553  0.00  0.00    +0.015 A 
ENDROOT
BRANCH  11   2
ATOM      1  C   UNL     1      -8.007 -10.098   9.707  0.00  0.00    +0.112 C 
ATOM      2  N   UNL     1      -7.720  -9.454  10.133  0.00  0.00    -0.305 N 
BRANCH   2   3
ATOM      3  C   UNL     1      -7.801  -8.689   9.832  0.00  0.00    +0.097 C 
BRANCH   3   4
ATOM      4  C   UNL     1      -8.167  -8.571   9.103  0.00  0.00    +0.067 C 
BRANCH   4   5
ATOM      5  C   UNL     1      -8.256  -7.806   8.806  0.00  0.00    +0.061 A 
ATOM      6  N   UNL     1      -8.980  -7.417   8.878  0.00  0.00    -0.248 NA
ATOM      7  C   UNL     1      -9.068  -6.653   8.582  0.00  0.00    +0.098 A 
ATOM      8  C   UNL     1      -8.433  -6.277   8.212  0.00  0.00    +0.021 A 
ATOM      9  C   UNL     1      -7.709  -6.667   8.140  0.00  0.00    +0.003 A 
ATOM     10  C   UNL     1      -7.621  -7.432   8.437  0.00  0.00    +0.015 A 
ENDBRANCH   4   5
ENDBRANCH   3   4
ENDBRANCH   2   3
ENDBRANCH  11   2
BRANCH  24  25
ATOM     25  C   UNL     1      -4.534 -10.374  15.401  0.00  0.00    +0.087 C 
BRANCH  25  26
ATOM     26  C   UNL     1      -4.191 -10.429  16.150  0.00  0.00    +0.241 C 
ATOM     27  O   UNL     1      -4.664 -10.384  16.824  0.00  0.00    -0.273 OA
ATOM     28  N   UNL     1      -3.376 -10.528  16.224  0.00  0.00    -0.205 NA
BRANCH  28  29
ATOM     29  C   UNL     1      -2.902 -10.573  15.550  0.00  0.00    +0.115 C 
BRANCH  29  30
ATOM     30  C   UNL     1      -2.081 -10.546  15.621  0.00  0.00    +0.022 C 
ATOM     31  C   UNL     1      -1.350 -10.263  15.360  0.00  0.00    +0.002 C 
ATOM     32  C   UNL     1      -1.388 -10.781  16.003  0.00  0.00    +0.002 C 
ENDBRANCH  29  30
ENDBRANCH  28  29
ENDBRANCH  25  26
ENDBRANCH  24  25
TORSDOF 8
ENDMDL
MODEL 6
REMARK VINA RESULT:      -7.2     14.377     15.824
REMARK  Name = 
REMARK  8 active torsions:
REMARK  status: ('A' for Active; 'I' for Inactive)
REMARK    1  A    between atoms: N_2  and  C_3
REMARK    2  A    between atoms: N_2  and  C_11
REMARK    3  A    between atoms: C_3  and  C_4
REMARK    4  A    between atoms: C_4  and  C_5
REMARK    5  A    between atoms: C_24  and  C_25
REMARK    6  A    between atoms: C_25  and  C_26
REMARK    7  A    between atoms: N_28  and  C_29
REMARK    8  A    between atoms: C_29  and  C_30
REMARK                            x       y       z     vdW  Elec       q    Type
REMARK                         _______ _______ _______ _____ _____    ______ ____
ROOT
ATOM     11  C   UNL     1      -4.440 -10.353  12.432  0.00  0.00    +0.048 A 
ATOM     12  C   UNL     1      -4.096 -10.450  13.175  0.00  0.00    +0.018 A 
ATOM     13  C   UNL     1      -4.559 -10.386  13.856  0.00  0.00    +0.038 A 
ATOM     14  C   UNL     1      -5.365 -10.225  13.792  0.00  0.00    +0.136 A 
ATOM     15  O   UNL     1      -4.633 -10.383  14.140  0.00  0.00    -0.471 OA
ATOM     16  C   UNL     1      -4.737 -10.394  14.958  0.00  0.00    +0.231 C 
ATOM     17  C   UNL     1      -5.532 -10.245  15.117  0.00  0.00    +0.016 C 
ATOM     18  C   UNL     1      -6.099 -10.161  15.814  0.00  0.00    -0.026 C 
ATOM     19  C   UNL     1      -6.902  -9.999  15.715  0.00  0.00    +0.042 C 
ATOM     20  C   UNL     1      -7.214  -9.908  14.958  0.00  0.00    +0.098 C 
ATOM     21  N   UNL     1      -8.017  -9.747  14.858  0.00  0.00    -0.278 N 
ATOM     22  C   UNL     1      -8.508  -9.676  15.518  0.00  0.00    +0.093 C 
ATOM     23  C   UNL     1      -8.196  -9.767  16.276  0.00  0.00    +0.022 C 
ATOM     24  C   UNL     1      -7.393  -9.929  16.374  0.00  0.00    +0.017 C 
ATOM     33  C   UNL     1      -8.329  -9.656  14.100  0.00  0.00    +0.243 C 
ATOM     34  O   UNL     1      -9.132  -9.494  14.002  0.00  0.00    -0.273 OA
ATOM     35  C   UNL     1      -7.839  -9.726  13.440  0.00  0.00    +0.174 C 
ATOM     36  N   UNL     1      -7.036  -9.887  13.540  0.00  0.00    -0.204 NA
ATOM     37  C   UNL     1      -6.545  -9.958  12.880  0.00  0.00    +0.119 C 
ATOM     38  C   UNL     1      -5.710 -10.128  13.049  0.00  0.00    +0.030 A 
ATOM     39  C   UNL     1      -5.247 -10.192  12.369  0.00  0.00    +0.015 A 
ENDROOT
BRANCH  11   2
ATOM      1  C   UNL     1      -3.182 -10.623  11.812  0.00  0.00    +0.112 C 
ATOM      2  N   UNL     1      -3.978 -10.417  11.752  0.00  0.00    -0.305 N 
BRANCH   2   3
ATOM      3  C   UNL     1      -4.312 -10.274  11.011  0.00  0.00    +0.097 C 
BRANCH   3   4
ATOM      4  C   UNL     1      -3.827 -10.199  10.348  0.00  0.00    +0.067 C 
BRANCH   4   5
ATOM      5  C   UNL     1      -4.162 -10.056   9.607  0.00  0.00    +0.061 A 
ATOM      6  N   UNL     1      -4.377 -10.688   9.123  0.00  0.00    -0.248 NA
ATOM      7  C   UNL     1      -4.711 -10.545   8.383  0.00  0.00    +0.098 A 
ATOM      8  C   UNL     1      -4.831  -9.770   8.126  0.00  0.00    +0.021 A 
ATOM      9  C   UNL     1      -4.615  -9.137   8.611  0.00  0.00    +0.003 A 
ATOM     10  C   UNL     1      -4.281  -9.281   9.352  0.00  0.00    +0.015 A 
ENDBRANCH   4   5
ENDBRANCH   3   4
ENDBRANCH   2   3
ENDBRANCH  11   2
BRANCH  24  25
ATOM     25  C   UNL     1      -7.081 -10.020  17.133  0.00  0.00    +0.087 C 
BRANCH  25  26
ATOM     26  C   UNL     1      -7.517  -9.777  17.790  0.00  0.00    +0.241 C 
ATOM     27  O   UNL     1      -8.178  -9.294  17.690  0.00  0.00    -0.273 OA
ATOM     28  N   UNL     1      -7.292 -10.017  18.547  0.00  0.00    -0.205 NA
BRANCH  28  29
ATOM     29  C   UNL     1      -6.631 -10.500  18.646  0.00  0.00    +0.115 C 
BRANCH  29  30
ATOM     30  C   UNL     1      -6.329 -10.634  19.403  0.00  0.00    +0.022 C 
ATOM     31  C   UNL     1      -5.686 -10.781  19.899  0.00  0.00    +0.002 C 
ATOM     32  C   UNL     1      -6.447 -10.719  20.215  0.00  0.00    +0.002 C 
ENDBRANCH  29  30
ENDBRANCH  28  29
ENDBRANCH  25  26
ENDBRANCH  24  25
TORSDOF 8
ENDMDL
MODEL 7
REMARK VINA RESULT:      -7.2     16.461     18.316
REMARK  Name = 
REMARK  8 active torsions:
REMARK  status: ('A' for Active; 'I' for Inactive)
REMARK    1  A    between atoms: N_2  and  C_3
REMARK    2  A    between atoms: N_2  and  C_11
REMARK    3  A    between atoms: C_3  and  C_4
REMARK    4  A    between atoms: C_4  and  C_5
REMARK    5  A    between atoms: C_24  and  C_25
REMARK    6  A    between atoms: C_25  and  C_26
REMARK    7  A    between atoms: N_28  and  C_29
REMARK    8  A    between atoms: C_29  and  C_30
REMARK                            x       y       z     vdW  Elec       q    Type
REMARK                         _______ _______ _______ _____ _____    ______ ____
ROOT
ATOM     11  C   UNL     1      -6.999  -8.965   9.050  0.00  0.00    +0.048 A 
ATOM     12  C   UNL     1      -6.259  -8.831   8.712  0.00  0.00    +0.018 A 
ATOM     13  C   UNL     1      -5.573  -9.003   9.137  0.00  0.00    +0.038 A 
ATOM     14  C   UNL     1      -5.627  -9.309   9.900  0.00  0.00    +0.136 A 
ATOM     15  O   UNL     1      -5.288  -9.030   9.202  0.00  0.00    -0.471 OA
ATOM     16  C   UNL     1      -4.468  -9.065   9.285  0.00  0.00    +0.231 C 
ATOM     17  C   UNL     1      -4.300  -9.366  10.035  0.00  0.00    +0.016 C 
ATOM     18  C   UNL     1      -3.596  -9.577  10.558  0.00  0.00    -0.026 C 
ATOM     19  C   UNL     1      -3.686  -9.881  11.319  0.00  0.00    +0.042 C 
ATOM     20  C   UNL     1      -4.440 -10.004  11.629  0.00  0.00    +0.098 C 
ATOM     21  N   UNL     1      -4.531 -10.308  12.390  0.00  0.00    -0.278 N 
ATOM     22  C   UNL     1      -3.865 -10.491  12.842  0.00  0.00    +0.093 C 
ATOM     23  C   UNL     1      -3.110 -10.369  12.533  0.00  0.00    +0.022 C 
ATOM     24  C   UNL     1      -3.021 -10.064  11.772  0.00  0.00    +0.017 C 
ATOM     33  C   UNL     1      -5.286 -10.430  12.699  0.00  0.00    +0.243 C 
ATOM     34  O   UNL     1      -5.375 -10.735  13.461  0.00  0.00    -0.273 OA
ATOM     35  C   UNL     1      -5.951 -10.248  12.247  0.00  0.00    +0.174 C 
ATOM     36  N   UNL     1      -5.861  -9.943  11.485  0.00  0.00    -0.204 NA
ATOM     37  C   UNL     1      -6.527  -9.760  11.033  0.00  0.00    +0.119 C 
ATOM     38  C   UNL     1      -6.367  -9.443  10.240  0.00  0.00    +0.030 A 
ATOM     39  C   UNL     1      -7.053  -9.271   9.815  0.00  0.00    +0.015 A 
ENDROOT
BRANCH  11   2
ATOM      1  C   UNL     1      -8.071  -9.390   8.208  0.00  0.00    +0.112 C 
ATOM      2  N   UNL     1      -7.685  -8.793   8.625  0.00  0.00    -0.305 N 
BRANCH   2   3
ATOM      3  C   UNL     1      -7.985  -8.024   8.619  0.00  0.00    +0.097 C 
BRANCH   3   4
ATOM      4  C   UNL     1      -8.647  -7.845   8.162  0.00  0.00    +0.067 C 
BRANCH   4   5
ATOM      5  C   UNL     1      -9.085  -7.164   8.321  0.00  0.00    +0.061 A 
ATOM      6  N   UNL     1      -8.775  -6.421   8.140  0.00  0.00    -0.248 NA
ATOM      7  C   UNL     1      -9.213  -5.741   8.299  0.00  0.00    +0.098 A 
ATOM      8  C   UNL     1      -9.962  -5.802   8.640  0.00  0.00    +0.021 A 
ATOM      9  C   UNL     1     -10.272  -6.545   8.822  0.00  0.00    +0.003 A 
ATOM     10  C   UNL     1      -9.834  -7.226   8.662  0.00  0.00    +0.015 A 
ENDBRANCH   4   5
ENDBRANCH   3   4
ENDBRANCH   2   3
ENDBRANCH  11   2
BRANCH  24  25
ATOM     25  C   UNL     1      -2.265  -9.942  11.463  0.00  0.00    +0.087 C 
BRANCH  25  26
ATOM     26  C   UNL     1      -1.600 -10.135  11.911  0.00  0.00    +0.241 C 
ATOM     27  O   UNL     1      -1.623 -10.779  12.427  0.00  0.00    -0.273 OA
ATOM     28  N   UNL     1      -0.912  -9.685  11.844  0.00  0.00    -0.205 NA
BRANCH  28  29
ATOM     29  C   UNL     1      -0.889  -9.042  11.329  0.00  0.00    +0.115 C 
BRANCH  29  30
ATOM     30  C   UNL     1      -0.164  -8.708  11.120  0.00  0.00    +0.022 C 
ATOM     31  C   UNL     1       0.489  -8.675  10.614  0.00  0.00    +0.002 C 
ATOM     32  C   UNL     1       0.440  -8.163  11.261  0.00  0.00    +0.002 C 
ENDBRANCH  29  30
ENDBRANCH  28  29
ENDBRANCH  25  26
ENDBRANCH  24  25
TORSDOF 8
ENDMDL
