MODEL 1
REMARK VINA RESULT:     -12.2      0.000      0.000
REMARK  Name = 
REMARK  8 active torsions:
REMARK  status: ('A' for Active; 'I' for Inactive)
REMARK    1  A    between atoms: O_2  and  C_3
REMARK    2  A    between atoms: C_8  and  N_9
REMARK    3  A    between atoms: N_12  and  C_13
REMARK    4  A    between atoms: C_13  and  C_14
REMARK    5  A    between atoms: C_16  and  C_17
REMARK    6  A    between atoms: C_17  and  C_18
REMARK    7  A    between atoms: C_21  and  C_22
REMARK    8  A    between atoms: C_22  and  N_23
REMARK                            x       y       z     vdW  Elec       q    Type
REMARK                         _______ _______ _______ _____ _____    ______ ____
ROOT
ATOM     14  C   UNL     1      -4.902   1.929  25.091  0.00  0.00    +0.167 C 
ATOM     15  O   UNL     1      -4.355   2.479  24.813  0.00  0.00    -0.354 OA
ATOM     16  C   UNL     1      -4.445   3.279  24.995  0.00  0.00    +0.121 C 
ATOM     30  C   UNL     1      -5.082   3.528  25.455  0.00  0.00    +0.033 C 
ATOM     31  C   UNL     1      -5.630   2.977  25.734  0.00  0.00    +0.038 C 
ATOM     32  C   UNL     1      -5.540   2.178  25.552  0.00  0.00    +0.181 C 
ATOM     33  O   UNL     1      -6.088   1.627  25.831  0.00  0.00    -0.220 OA
ENDROOT
BRANCH  14  13
ATOM     13  C   UNL     1      -4.812   1.129  24.910  0.00  0.00    +0.149 C 
BRANCH  13  12
ATOM      9  N   UNL     1      -3.320  -0.450  25.118  0.00  0.00    -0.158 NA
ATOM     10  C   UNL     1      -4.002  -0.048  24.888  0.00  0.00    +0.344 C 
ATOM     11  O   UNL     1      -4.556  -0.421  24.403  0.00  0.00    -0.249 OA
ATOM     12  N   UNL     1      -4.131   0.727  25.141  0.00  0.00    -0.184 NA
BRANCH   9   8
ATOM      3  C   UNL     1      -2.425  -1.527  24.834  0.00  0.00    +0.154 A 
ATOM      4  C   UNL     1      -2.297  -2.301  24.581  0.00  0.00    +0.038 A 
ATOM      5  C   UNL     1      -2.936  -2.774  24.359  0.00  0.00    +0.003 A 
ATOM      6  C   UNL     1      -3.703  -2.472  24.391  0.00  0.00    +0.002 A 
ATOM      7  C   UNL     1      -3.830  -1.697  24.644  0.00  0.00    +0.020 A 
ATOM      8  C   UNL     1      -3.191  -1.225  24.865  0.00  0.00    +0.109 A 
BRANCH   3   2
ATOM      1  C   UNL     1      -1.029  -1.379  25.101  0.00  0.00    +0.253 C 
ATOM      2  O   UNL     1      -1.786  -1.054  25.055  0.00  0.00    -0.470 OA
ENDBRANCH   3   2
ENDBRANCH   9   8
ENDBRANCH  13  12
ENDBRANCH  14  13
BRANCH  16  17
ATOM     17  C   UNL     1      -3.897   3.829  24.716  0.00  0.00    +0.079 C 
BRANCH  17  18
ATOM     18  C   UNL     1      -3.164   3.905  25.087  0.00  0.00    +0.103 A 
ATOM     19  N   UNL     1      -3.039   4.044  25.890  0.00  0.00    -0.082 NA
ATOM     20  O   UNL     1      -2.224   4.081  26.018  0.00  0.00    -0.357 OA
ATOM     21  C   UNL     1      -1.846   3.964  25.294  0.00  0.00    +0.170 A 
ATOM     29  C   UNL     1      -2.427   3.856  24.718  0.00  0.00    +0.055 A 
BRANCH  21  22
ATOM     22  C   UNL     1      -1.031   3.957  25.168  0.00  0.00    +0.141 C 
BRANCH  22  23
ATOM     23  N   UNL     1      -0.614   3.247  25.205  0.00  0.00    -0.262 NA
ATOM     24  C   UNL     1      -0.428   2.841  24.511  0.00  0.00    +0.105 C 
ATOM     25  C   UNL     1      -0.010   2.130  24.548  0.00  0.00    +0.159 C 
ATOM     26  O   UNL     1       0.221   1.826  25.279  0.00  0.00    -0.351 OA
ATOM     27  C   UNL     1       0.035   2.232  25.973  0.00  0.00    +0.159 C 
ATOM     28  C   UNL     1      -0.382   2.942  25.936  0.00  0.00    +0.105 C 
ENDBRANCH  22  23
ENDBRANCH  21  22
ENDBRANCH  17  18
ENDBRANCH  16  17
TORSDOF 8
ENDMDL
MODEL 2
REMARK VINA RESULT:     -10.9      1.003      3.641
REMARK  Name = 
REMARK  8 active torsions:
REMARK  status: ('A' for Active; 'I' for Inactive)
REMARK    1  A    between atoms: O_2  and  C_3
REMARK    2  A    between atoms: C_8  and  N_9
REMARK    3  A    between atoms: N_12  and  C_13
REMARK    4  A    between atoms: C_13  and  C_14
REMARK    5  A    between atoms: C_16  and  C_17
REMARK    6  A    between atoms: C_17  and  C_18
REMARK    7  A    between atoms: C_21  and  C_22
REMARK    8  A    between atoms: C_22  and  N_23
REMARK                            x       y       z     vdW  Elec       q    Type
REMARK                         _______ _______ _______ _____ _____    ______ ____
ROOT
ATOM     14  C   UNL     1      -0.820   2.150  25.075  0.00  0.00    +0.167 C 
ATOM     15  O   UNL     1      -1.434   2.631  24.808  0.00  0.00    -0.354 OA
ATOM     16  C   UNL     1      -1.424   3.440  24.968  0.00  0.00    +0.121 C 
ATOM     30  C   UNL     1      -0.799   3.768  25.395  0.00  0.00    +0.033 C 
ATOM     31  C   UNL     1      -0.184   3.287  25.663  0.00  0.00    +0.038 C 
ATOM     32  C   UNL     1      -0.195   2.478  25.502  0.00  0.00    +0.181 C 
ATOM     33  O   UNL     1       0.420   1.996  25.770  0.00  0.00    -0.220 OA
ENDROOT
BRANCH  14  13
ATOM     13  C   UNL     1      -0.830   1.340  24.916  0.00  0.00    +0.149 C 
BRANCH  13  12
ATOM      9  N   UNL     1      -2.231  -0.333  24.953  0.00  0.00    -0.158 NA
ATOM     10  C   UNL     1      -1.535   0.099  24.855  0.00  0.00    +0.344 C 
ATOM     11  O   UNL     1      -0.848  -0.279  24.598  0.00  0.00    -0.249 OA
ATOM     12  N   UNL     1      -1.526   0.908  25.014  0.00  0.00    -0.184 NA
BRANCH   9   8
ATOM      3  C   UNL     1      -2.927  -1.500  24.511  0.00  0.00    +0.154 A 
ATOM      4  C   UNL     1      -2.936  -2.309  24.353  0.00  0.00    +0.038 A 
ATOM      5  C   UNL     1      -2.258  -2.761  24.478  0.00  0.00    +0.003 A 
ATOM      6  C   UNL     1      -1.570  -2.405  24.762  0.00  0.00    +0.002 A 
ATOM      7  C   UNL     1      -1.562  -1.595  24.920  0.00  0.00    +0.020 A 
ATOM      8  C   UNL     1      -2.240  -1.143  24.795  0.00  0.00    +0.109 A 
BRANCH   3   2
ATOM      1  C   UNL     1      -4.274  -1.391  24.045  0.00  0.00    +0.253 C 
ATOM      2  O   UNL     1      -3.606  -1.048  24.386  0.00  0.00    -0.470 OA
ENDBRANCH   3   2
ENDBRANCH   9   8
ENDBRANCH  13  12
ENDBRANCH  14  13
BRANCH  16  17
ATOM     17  C   UNL     1      -2.038   3.921  24.701  0.00  0.00    +0.079 C 
BRANCH  17  18
ATOM     18  C   UNL     1      -2.769   3.907  25.084  0.00  0.00    +0.103 A 
ATOM     19  N   UNL     1      -2.896   4.016  25.891  0.00  0.00    -0.082 NA
ATOM     20  O   UNL     1      -3.707   3.958  26.032  0.00  0.00    -0.357 OA
ATOM     21  C   UNL     1      -4.082   3.813  25.311  0.00  0.00    +0.170 A 
ATOM     29  C   UNL     1      -3.502   3.782  24.725  0.00  0.00    +0.055 A 
BRANCH  21  22
ATOM     22  C   UNL     1      -4.893   3.717  25.197  0.00  0.00    +0.141 C 
BRANCH  22  23
ATOM     23  N   UNL     1      -5.243   2.982  25.327  0.00  0.00    -0.262 NA
ATOM     24  C   UNL     1      -5.595   2.816  26.055  0.00  0.00    +0.105 C 
ATOM     25  C   UNL     1      -5.946   2.080  26.185  0.00  0.00    +0.159 C 
ATOM     26  O   UNL     1      -5.945   1.512  25.588  0.00  0.00    -0.351 OA
ATOM     27  C   UNL     1      -5.594   1.678  24.860  0.00  0.00    +0.159 C 
ATOM     28  C   UNL     1      -5.243   2.413  24.730  0.00  0.00    +0.105 C 
ENDBRANCH  22  23
ENDBRANCH  21  22
ENDBRANCH  17  18
ENDBRANCH  16  17
TORSDOF 8
ENDMDL
MODEL 3
REMARK VINA RESULT:     -10.7      1.224      4.344
REMARK  Name = 
REMARK  8 active torsions:
REMARK  status: ('A' for Active; 'I' for Inactive)
REMARK    1  A    between atoms: O_2  and  C_3
REMARK    2  A    between atoms: C_8  and  N_9
REMARK    3  A    between atoms: N_12  and  C_13
REMARK    4  A    between atoms: C_13  and  C_14
REMARK    5  A    between atoms: C_16  and  C_17
REMARK    6  A    between atoms: C_17  and  C_18
REMARK    7  A    between atoms: C_21  and  C_22
REMARK    8  A    between atoms: C_22  and  N_23
REMARK                            x       y       z     vdW  Elec       q    Type
REMARK                         _______ _______ _______ _____ _____    ______ ____
ROOT
ATOM     14  C   UNL     1      -3.587  -1.332  24.654  0.00  0.00    +0.167 C 
ATOM     15  O   UNL     1      -2.816  -1.219  24.923  0.00  0.00    -0.354 OA
ATOM     16  C   UNL     1      -2.240  -1.791  24.778  0.00  0.00    +0.121 C 
ATOM     30  C   UNL     1      -2.436  -2.477  24.363  0.00  0.00    +0.033 C 
ATOM     31  C   UNL     1      -3.208  -2.590  24.094  0.00  0.00    +0.038 C 
ATOM     32  C   UNL     1      -3.783  -2.017  24.239  0.00  0.00    +0.181 C 
ATOM     33  O   UNL     1      -4.556  -2.131  23.970  0.00  0.00    -0.220 OA
ENDROOT
BRANCH  14  13
ATOM     13  C   UNL     1      -4.164  -0.759  24.799  0.00  0.00    +0.149 C 
BRANCH  13  12
ATOM      9  N   UNL     1      -4.385   1.392  24.502  0.00  0.00    -0.158 NA
ATOM     10  C   UNL     1      -4.458   0.639  24.830  0.00  0.00    +0.344 C 
ATOM     11  O   UNL     1      -4.901   0.530  25.518  0.00  0.00    -0.249 OA
ATOM     12  N   UNL     1      -4.090  -0.006  24.471  0.00  0.00    -0.184 NA
BRANCH   9   8
ATOM      3  C   UNL     1      -4.628   2.798  24.570  0.00  0.00    +0.154 A 
ATOM      4  C   UNL     1      -4.996   3.442  24.929  0.00  0.00    +0.038 A 
ATOM      5  C   UNL     1      -5.491   3.325  25.579  0.00  0.00    +0.003 A 
ATOM      6  C   UNL     1      -5.617   2.564  25.870  0.00  0.00    +0.002 A 
ATOM      7  C   UNL     1      -5.248   1.920  25.511  0.00  0.00    +0.020 A 
ATOM      8  C   UNL     1      -4.753   2.037  24.861  0.00  0.00    +0.109 A 
BRANCH   3   2
ATOM      1  C   UNL     1      -4.071   3.663  23.578  0.00  0.00    +0.253 C 
ATOM      2  O   UNL     1      -4.134   2.915  23.920  0.00  0.00    -0.470 OA
ENDBRANCH   3   2
ENDBRANCH   9   8
ENDBRANCH  13  12
ENDBRANCH  14  13
BRANCH  16  17
ATOM     17  C   UNL     1      -1.469  -1.678  25.046  0.00  0.00    +0.079 C 
BRANCH  17  18
ATOM     18  C   UNL     1      -1.018  -1.052  24.755  0.00  0.00    +0.103 A 
ATOM     19  N   UNL     1      -0.797  -0.937  23.969  0.00  0.00    -0.082 NA
ATOM     20  O   UNL     1      -0.352  -0.244  23.927  0.00  0.00    -0.357 OA
ATOM     21  C   UNL     1      -0.298   0.071  24.688  0.00  0.00    +0.170 A 
ATOM     29  C   UNL     1      -0.710  -0.428  25.200  0.00  0.00    +0.055 A 
BRANCH  21  22
ATOM     22  C   UNL     1       0.098   0.762  24.900  0.00  0.00    +0.141 C 
BRANCH  22  23
ATOM     23  N   UNL     1      -0.304   1.482  24.911  0.00  0.00    -0.262 NA
ATOM     24  C   UNL     1      -0.676   1.736  25.602  0.00  0.00    +0.105 C 
ATOM     25  C   UNL     1      -1.079   2.457  25.613  0.00  0.00    +0.159 C 
ATOM     26  O   UNL     1      -1.110   2.922  24.932  0.00  0.00    -0.351 OA
ATOM     27  C   UNL     1      -0.739   2.667  24.241  0.00  0.00    +0.159 C 
ATOM     28  C   UNL     1      -0.336   1.948  24.230  0.00  0.00    +0.105 C 
ENDBRANCH  22  23
ENDBRANCH  21  22
ENDBRANCH  17  18
ENDBRANCH  16  17
TORSDOF 8
ENDMDL
MODEL 4
REMARK VINA RESULT:     -10.6      1.011      4.478
REMARK  Name = 
REMARK  8 active torsions:
REMARK  status: ('A' for Active; 'I' for Inactive)
REMARK    1  A    between atoms: O_2  and  C_3
REMARK    2  A    between atoms: C_8  and  N_9
REMARK    3  A    between atoms: N_12  and  C_13
REMARK    4  A    between atoms: C_13  and  C_14
REMARK    5  A    between atoms: C_16  and  C_17
REMARK    6  A    between atoms: C_17  and  C_18
REMARK    7  A    between atoms: C_21  and  C_22
REMARK    8  A    between atoms: C_22  and  N_23
REMARK                            x       y       z     vdW  Elec       q    Type
REMARK                         _______ _______ _______ _____ _____    ______ ____
ROOT
ATOM     14  C   UNL     1      -4.797   2.413  25.233  0.00  0.00    +0.167 C 
ATOM     15  O   UNL     1      -4.618   1.724  24.818  0.00  0.00    -0.354 OA
ATOM     16  C   UNL     1      -5.117   1.069  24.869  0.00  0.00    +0.121 C 
ATOM     30  C   UNL     1      -5.796   1.104  25.336  0.00  0.00    +0.033 C 
ATOM     31  C   UNL     1      -5.975   1.794  25.753  0.00  0.00    +0.038 C 
ATOM     32  C   UNL     1      -5.476   2.448  25.701  0.00  0.00    +0.181 C 
ATOM     33  O   UNL     1      -5.655   3.138  26.118  0.00  0.00    -0.220 OA
ENDROOT
BRANCH  14  13
ATOM     13  C   UNL     1      -4.298   3.068  25.182  0.00  0.00    +0.149 C 
BRANCH  13  12
ATOM      9  N   UNL     1      -2.177   3.519  25.428  0.00  0.00    -0.158 NA
ATOM     10  C   UNL     1      -2.964   3.580  25.189  0.00  0.00    +0.344 C 
ATOM     11  O   UNL     1      -3.204   4.213  24.718  0.00  0.00    -0.249 OA
ATOM     12  N   UNL     1      -3.511   3.008  25.421  0.00  0.00    -0.184 NA
BRANCH   9   8
ATOM      3  C   UNL     1      -0.892   3.864  24.906  0.00  0.00    +0.154 A 
ATOM      4  C   UNL     1      -0.345   4.435  24.674  0.00  0.00    +0.038 A 
ATOM      5  C   UNL     1      -0.536   5.236  24.733  0.00  0.00    +0.003 A 
ATOM      6  C   UNL     1      -1.273   5.465  25.023  0.00  0.00    +0.002 A 
ATOM      7  C   UNL     1      -1.820   4.892  25.254  0.00  0.00    +0.020 A 
ATOM      8  C   UNL     1      -1.629   4.091  25.196  0.00  0.00    +0.109 A 
BRANCH   3   2
ATOM      1  C   UNL     1       0.058   2.835  24.620  0.00  0.00    +0.253 C 
ATOM      2  O   UNL     1      -0.701   3.063  24.848  0.00  0.00    -0.470 OA
ENDBRANCH   3   2
ENDBRANCH   9   8
ENDBRANCH  13  12
ENDBRANCH  14  13
BRANCH  16  17
ATOM     17  C   UNL     1      -4.938   0.380  24.453  0.00  0.00    +0.079 C 
BRANCH  17  18
ATOM     18  C   UNL     1      -4.358  -0.133  24.736  0.00  0.00    +0.103 A 
ATOM     19  N   UNL     1      -4.236  -0.340  25.525  0.00  0.00    -0.082 NA
ATOM     20  O   UNL     1      -3.600  -0.865  25.556  0.00  0.00    -0.357 OA
ATOM     21  C   UNL     1      -3.328  -0.982  24.786  0.00  0.00    +0.170 A 
ATOM     29  C   UNL     1      -3.797  -0.530  24.279  0.00  0.00    +0.055 A 
BRANCH  21  22
ATOM     22  C   UNL     1      -2.699  -1.466  24.562  0.00  0.00    +0.141 C 
BRANCH  22  23
ATOM     23  N   UNL     1      -1.923  -1.232  24.716  0.00  0.00    -0.262 NA
ATOM     24  C   UNL     1      -1.546  -0.700  24.211  0.00  0.00    +0.105 C 
ATOM     25  C   UNL     1      -0.769  -0.465  24.365  0.00  0.00    +0.159 C 
ATOM     26  O   UNL     1      -0.371  -0.764  25.023  0.00  0.00    -0.351 OA
ATOM     27  C   UNL     1      -0.749  -1.297  25.527  0.00  0.00    +0.159 C 
ATOM     28  C   UNL     1      -1.525  -1.531  25.374  0.00  0.00    +0.105 C 
ENDBRANCH  22  23
ENDBRANCH  21  22
ENDBRANCH  17  18
ENDBRANCH  16  17
TORSDOF 8
ENDMDL
MODEL 5
REMARK VINA RESULT:      -9.9      1.146      5.438
REMARK  Name = 
REMARK  8 active torsions:
REMARK  status: ('A' for Active; 'I' for Inactive)
REMARK    1  A    between atoms: O_2  and  C_3
REMARK    2  A    between atoms: C_8  and  N_9
REMARK    3  A    between atoms: N_12  and  C_13
REMARK    4  A    between atoms: C_13  and  C_14
REMARK    5  A    between atoms: C_16  and  C_17
REMARK    6  A    between atoms: C_17  and  C_18
REMARK    7  A    between atoms: C_21  and  C_22
REMARK    8  A    between atoms: C_22  and  N_23
REMARK                            x       y       z     vdW  Elec       q    Type
REMARK                         _______ _______ _______ _____ _____    ______ ____
ROOT
ATOM     14  C   UNL     1      -0.939  -0.020  24.838  0.00  0.00    +0.167 C 
ATOM     15  O   UNL     1      -1.685  -0.152  25.165  0.00  0.00    -0.354 OA
ATOM     16  C   UNL     1      -1.983  -0.919  25.217  0.00  0.00    +0.121 C 
ATOM     30  C   UNL     1      -1.536  -1.555  24.941  0.00  0.00    +0.033 C 
ATOM     31  C   UNL     1      -0.789  -1.424  24.614  0.00  0.00    +0.038 C 
ATOM     32  C   UNL     1      -0.492  -0.656  24.562  0.00  0.00    +0.181 C 
ATOM     33  O   UNL     1       0.254  -0.524  24.234  0.00  0.00    -0.220 OA
ENDROOT
BRANCH  14  13
ATOM     13  C   UNL     1      -0.641   0.747  24.786  0.00  0.00    +0.149 C 
BRANCH  13  12
ATOM      9  N   UNL     1      -1.188   2.726  25.525  0.00  0.00    -0.158 NA
ATOM     10  C   UNL     1      -0.887   2.132  25.040  0.00  0.00    +0.344 C 
ATOM     11  O   UNL     1      -0.531   2.327  24.322  0.00  0.00    -0.249 OA
ATOM     12  N   UNL     1      -0.942   1.342  25.271  0.00  0.00    -0.184 NA
BRANCH   9   8
ATOM      3  C   UNL     1      -1.655   4.074  25.604  0.00  0.00    +0.154 A 
ATOM      4  C   UNL     1      -1.600   4.864  25.373  0.00  0.00    +0.038 A 
ATOM      5  C   UNL     1      -1.023   5.095  24.830  0.00  0.00    +0.003 A 
ATOM      6  C   UNL     1      -0.501   4.537  24.519  0.00  0.00    +0.002 A 
ATOM      7  C   UNL     1      -0.557   3.748  24.751  0.00  0.00    +0.020 A 
ATOM      8  C   UNL     1      -1.134   3.516  25.294  0.00  0.00    +0.109 A 
BRANCH   3   2
ATOM      1  C   UNL     1      -2.751   4.402  26.461  0.00  0.00    +0.253 C 
ATOM      2  O   UNL     1      -2.232   3.843  26.147  0.00  0.00    -0.470 OA
ENDBRANCH   3   2
ENDBRANCH   9   8
ENDBRANCH  13  12
ENDBRANCH  14  13
BRANCH  16  17
ATOM     17  C   UNL     1      -2.728  -1.051  25.545  0.00  0.00    +0.079 C 
BRANCH  17  18
ATOM     18  C   UNL     1      -3.402  -0.760  25.167  0.00  0.00    +0.103 A 
ATOM     19  N   UNL     1      -3.661  -0.963  24.412  0.00  0.00    -0.082 NA
ATOM     20  O   UNL     1      -4.354  -0.543  24.257  0.00  0.00    -0.357 OA
ATOM     21  C   UNL     1      -4.523  -0.078  24.918  0.00  0.00    +0.170 A 
ATOM     29  C   UNL     1      -3.934  -0.212  25.481  0.00  0.00    +0.055 A 
BRANCH  21  22
ATOM     22  C   UNL     1      -5.167   0.430  25.001  0.00  0.00    +0.141 C 
BRANCH  22  23
ATOM     23  N   UNL     1      -5.071   1.240  24.881  0.00  0.00    -0.262 NA
ATOM     24  C   UNL     1      -5.379   1.778  25.425  0.00  0.00    +0.105 C 
ATOM     25  C   UNL     1      -5.284   2.589  25.304  0.00  0.00    +0.159 C 
ATOM     26  O   UNL     1      -4.880   2.861  24.638  0.00  0.00    -0.351 OA
ATOM     27  C   UNL     1      -4.572   2.323  24.094  0.00  0.00    +0.159 C 
ATOM     28  C   UNL     1      -4.668   1.513  24.215  0.00  0.00    +0.105 C 
ENDBRANCH  22  23
ENDBRANCH  21  22
ENDBRANCH  17  18
ENDBRANCH  16  17
TORSDOF 8
ENDMDL
MODEL 6
REMARK VINA RESULT:      -9.7      1.433      3.750
REMARK  Name = 
REMARK  8 active torsions:
REMARK  status: ('A' for Active; 'I' for Inactive)
REMARK    1  A    between atoms: O_2  and  C_3
REMARK    2  A    between atoms: C_8  and  N_9
REMARK    3  A    between atoms: N_12  and  C_13
REMARK    4  A    between atoms: C_13  and  C_14
REMARK    5  A    between atoms: C_16  and  C_17
REMARK    6  A    between atoms: C_17  and  C_18
REMARK    7  A    between atoms: C_21  and  C_22
REMARK    8  A    between atoms: C_22  and  N_23
REMARK                            x       y       z     vdW  Elec       q    Type
REMARK                         _______ _______ _______ _____ _____    ______ ____
ROOT
ATOM     14  C   UNL     1      -1.275   3.601  25.442  0.00  0.00    +0.167 C 
ATOM     15  O   UNL     1      -2.075   3.525  25.626  0.00  0.00    -0.354 OA
ATOM     16  C   UNL     1      -2.572   4.183  25.588  0.00  0.00    +0.121 C 
ATOM     30  C   UNL     1      -2.268   4.917  25.365  0.00  0.00    +0.033 C 
ATOM     31  C   UNL     1      -1.466   4.993  25.181  0.00  0.00    +0.038 C 
ATOM     32  C   UNL     1      -0.970   4.335  25.220  0.00  0.00    +0.181 C 
ATOM     33  O   UNL     1      -0.169   4.411  25.036  0.00  0.00    -0.220 OA
ENDROOT
BRANCH  14  13
ATOM     13  C   UNL     1      -0.778   2.944  25.480  0.00  0.00    +0.149 C 
BRANCH  13  12
ATOM      9  N   UNL     1      -0.688   1.024  24.445  0.00  0.00    -0.158 NA
ATOM     10  C   UNL     1      -0.678   1.584  25.050  0.00  0.00    +0.344 C 
ATOM     11  O   UNL     1      -0.561   1.346  25.831  0.00  0.00    -0.249 OA
ATOM     12  N   UNL     1      -0.787   2.383  24.875  0.00  0.00    -0.184 NA
BRANCH   9   8
ATOM      3  C   UNL     1      -0.148  -0.255  24.107  0.00  0.00    +0.154 A 
ATOM      4  C   UNL     1      -0.040  -1.053  24.282  0.00  0.00    +0.038 A 
ATOM      5  C   UNL     1      -0.364  -1.372  24.971  0.00  0.00    +0.003 A 
ATOM      6  C   UNL     1      -0.795  -0.892  25.485  0.00  0.00    +0.002 A 
ATOM      7  C   UNL     1      -0.903  -0.093  25.309  0.00  0.00    +0.020 A 
ATOM      8  C   UNL     1      -0.579   0.225  24.620  0.00  0.00    +0.109 A 
BRANCH   3   2
ATOM      1  C   UNL     1       0.737  -0.363  22.990  0.00  0.00    +0.253 C 
ATOM      2  O   UNL     1       0.176   0.063  23.419  0.00  0.00    -0.470 OA
ENDBRANCH   3   2
ENDBRANCH   9   8
ENDBRANCH  13  12
ENDBRANCH  14  13
BRANCH  16  17
ATOM     17  C   UNL     1      -3.372   4.107  25.771  0.00  0.00    +0.079 C 
BRANCH  17  18
ATOM     18  C   UNL     1      -3.858   3.628  25.308  0.00  0.00    +0.103 A 
ATOM     19  N   UNL     1      -4.046   3.751  24.514  0.00  0.00    -0.082 NA
ATOM     20  O   UNL     1      -4.545   3.140  24.272  0.00  0.00    -0.357 OA
ATOM     21  C   UNL     1      -4.666   2.639  24.917  0.00  0.00    +0.170 A 
ATOM     29  C   UNL     1      -4.241   2.940  25.557  0.00  0.00    +0.055 A 
BRANCH  21  22
ATOM     22  C   UNL     1      -5.130   1.957  24.921  0.00  0.00    +0.141 C 
BRANCH  22  23
ATOM     23  N   UNL     1      -4.781   1.220  24.797  0.00  0.00    -0.262 NA
ATOM     24  C   UNL     1      -4.473   1.028  24.057  0.00  0.00    +0.105 C 
ATOM     25  C   UNL     1      -4.124   0.290  23.933  0.00  0.00    +0.159 C 
ATOM     26  O   UNL     1      -4.083  -0.255  24.551  0.00  0.00    -0.351 OA
ATOM     27  C   UNL     1      -4.391  -0.063  25.292  0.00  0.00    +0.159 C 
ATOM     28  C   UNL     1      -4.740   0.674  25.415  0.00  0.00    +0.105 C 
ENDBRANCH  22  23
ENDBRANCH  21  22
ENDBRANCH  17  18
ENDBRANCH  16  17
TORSDOF 8
ENDMDL
