MODEL 1
REMARK VINA RESULT:     -12.3      0.000      0.000
REMARK  Name = 
REMARK  5 active torsions:
REMARK  status: ('A' for Active; 'I' for Inactive)
REMARK    1  A    between atoms: C_2  and  N_4
REMARK    2  A    between atoms: N_7  and  C_8
REMARK    3  A    between atoms: C_10  and  C_13
REMARK    4  A    between atoms: N_16  and  C_17
REMARK    5  A    between atoms: C_17  and  C_18
REMARK                            x       y       z     vdW  Elec       q    Type
REMARK                         _______ _______ _______ _____ _____    ______ ____
ROOT
ATOM     13  C   UNL     1      -4.108   1.197  24.526  0.00  0.00    +0.010 A 
ATOM     14  C   UNL     1      -3.680   0.725  24.003  0.00  0.00    +0.054 A 
ATOM     15  C   UNL     1      -3.075   0.980  23.503  0.00  0.00    +0.051 C 
ATOM     16  N   UNL     1      -3.961  -0.048  24.067  0.00  0.00    -0.251 N 
ATOM     24  N   UNL     1      -4.564  -0.054  24.631  0.00  0.00    -0.174 NA
ATOM     25  C   UNL     1      -4.654   0.715  24.914  0.00  0.00    +0.076 A 
ATOM     26  C   UNL     1      -5.197   0.961  25.486  0.00  0.00    +0.054 C 
ENDROOT
BRANCH  13  10
ATOM      8  C   UNL     1      -3.545   3.180  25.080  0.00  0.00    +0.119 C 
ATOM      9  C   UNL     1      -3.448   2.362  25.133  0.00  0.00    +0.035 C 
ATOM     10  C   UNL     1      -4.008   2.008  24.642  0.00  0.00    +0.048 C 
ATOM     11  C   UNL     1      -4.450   2.606  24.284  0.00  0.00    -0.025 C 
ATOM     12  C   UNL     1      -4.163   3.330  24.556  0.00  0.00    -0.009 C 
BRANCH   8   7
ATOM      4  N   UNL     1      -1.992   4.649  25.523  0.00  0.00    -0.189 NA
ATOM      5  C   UNL     1      -2.437   4.081  25.121  0.00  0.00    +0.339 C 
ATOM      6  O   UNL     1      -2.219   3.849  24.360  0.00  0.00    -0.249 OA
ATOM      7  N   UNL     1      -3.099   3.747  25.482  0.00  0.00    -0.184 NA
BRANCH   4   2
ATOM      1  C   UNL     1      -0.635   4.543  25.088  0.00  0.00    +0.023 C 
ATOM      2  C   UNL     1      -1.329   4.983  25.163  0.00  0.00    +0.097 C 
ATOM      3  C   UNL     1      -1.361   5.757  24.877  0.00  0.00    +0.023 C 
ENDBRANCH   4   2
ENDBRANCH   8   7
ENDBRANCH  13  10
BRANCH  16  17
ATOM     17  C   UNL     1      -3.688  -0.700  23.643  0.00  0.00    +0.153 C 
BRANCH  17  18
ATOM     18  C   UNL     1      -3.626  -1.436  24.012  0.00  0.00    +0.002 A 
ATOM     19  C   UNL     1      -4.195  -2.017  23.872  0.00  0.00    -0.002 A 
ATOM     20  C   UNL     1      -4.133  -2.752  24.241  0.00  0.00    -0.000 A 
ATOM     21  C   UNL     1      -3.502  -2.907  24.749  0.00  0.00    -0.000 A 
ATOM     22  C   UNL     1      -2.933  -2.326  24.889  0.00  0.00    -0.000 A 
ATOM     23  C   UNL     1      -2.995  -1.591  24.520  0.00  0.00    -0.002 A 
ENDBRANCH  17  18
ENDBRANCH  16  17
TORSDOF 5
ENDMDL
MODEL 2
REMARK VINA RESULT:     -11.4      1.214      5.412
REMARK  Name = 
REMARK  5 active torsions:
REMARK  status: ('A' for Active; 'I' for Inactive)
REMARK    1  A    between atoms: C_2  and  N_4
REMARK    2  A    between atoms: N_7  and  C_8
REMARK    3  A    between atoms: C_10  and  C_13
REMARK    4  A    between atoms: N_16  and  C_17
REMARK    5  A    between atoms: C_17  and  C_18
REMARK                            x       y       z     vdW  Elec       q    Type
REMARK                         _______ _______ _______ _____ _____    ______ ____
ROOT
ATOM     13  C   UNL     1      -3.494   2.292  24.769  0.00  0.00    +0.010 A 
ATOM     14  C   UNL     1      -2.940   2.493  25.346  0.00  0.00    +0.054 A 
ATOM     15  C   UNL     1      -2.618   1.983  25.909  0.00  0.00    +0.051 C 
ATOM     16  N   UNL     1      -2.762   3.294  25.261  0.00  0.00    -0.251 N 
ATOM     24  N   UNL     1      -3.208   3.589  24.631  0.00  0.00    -0.174 NA
ATOM     25  C   UNL     1      -3.659   2.969  24.328  0.00  0.00    +0.076 A 
ATOM     26  C   UNL     1      -4.185   3.017  23.694  0.00  0.00    +0.054 C 
ENDROOT
BRANCH  13  10
ATOM      8  C   UNL     1      -4.010   0.288  24.247  0.00  0.00    +0.119 C 
ATOM      9  C   UNL     1      -3.495   0.931  24.213  0.00  0.00    +0.035 C 
ATOM     10  C   UNL     1      -3.825   1.544  24.655  0.00  0.00    +0.048 C 
ATOM     11  C   UNL     1      -4.543   1.281  24.962  0.00  0.00    -0.025 C 
ATOM     12  C   UNL     1      -4.657   0.503  24.710  0.00  0.00    -0.009 C 
BRANCH   8   7
ATOM      4  N   UNL     1      -3.482  -1.810  23.950  0.00  0.00    -0.189 NA
ATOM      5  C   UNL     1      -3.595  -1.078  24.315  0.00  0.00    +0.339 C 
ATOM      6  O   UNL     1      -3.406  -0.981  25.112  0.00  0.00    -0.249 OA
ATOM      7  N   UNL     1      -3.897  -0.444  23.882  0.00  0.00    -0.184 NA
BRANCH   4   2
ATOM      1  C   UNL     1      -3.694  -2.999  24.713  0.00  0.00    +0.023 C 
ATOM      2  C   UNL     1      -3.180  -2.444  24.383  0.00  0.00    +0.097 C 
ATOM      3  C   UNL     1      -2.365  -2.523  24.487  0.00  0.00    +0.023 C 
ENDBRANCH   4   2
ENDBRANCH   8   7
ENDBRANCH  13  10
BRANCH  16  17
ATOM     17  C   UNL     1      -2.233   3.726  25.724  0.00  0.00    +0.153 C 
BRANCH  17  18
ATOM     18  C   UNL     1      -1.706   4.251  25.367  0.00  0.00    +0.002 A 
ATOM     19  C   UNL     1      -0.985   3.977  25.073  0.00  0.00    -0.002 A 
ATOM     20  C   UNL     1      -0.458   4.502  24.716  0.00  0.00    -0.000 A 
ATOM     21  C   UNL     1      -0.653   5.301  24.653  0.00  0.00    -0.000 A 
ATOM     22  C   UNL     1      -1.373   5.576  24.947  0.00  0.00    -0.000 A 
ATOM     23  C   UNL     1      -1.899   5.051  25.303  0.00  0.00    -0.002 A 
ENDBRANCH  17  18
ENDBRANCH  16  17
TORSDOF 5
ENDMDL
MODEL 3
REMARK VINA RESULT:     -11.1      1.676      2.322
REMARK  Name = 
REMARK  5 active torsions:
REMARK  status: ('A' for Active; 'I' for Inactive)
REMARK    1  A    between atoms: C_2  and  N_4
REMARK    2  A    between atoms: N_7  and  C_8
REMARK    3  A    between atoms: C_10  and  C_13
REMARK    4  A    between atoms: N_16  and  C_17
REMARK    5  A    between atoms: C_17  and  C_18
REMARK                            x       y       z     vdW  Elec       q    Type
REMARK                         _______ _______ _______ _____ _____    ______ ____
ROOT
ATOM     13  C   UNL     1      -1.644   0.184  24.955  0.00  0.00    +0.010 A 
ATOM     14  C   UNL     1      -2.459   0.095  25.033  0.00  0.00    +0.054 A 
ATOM     15  C   UNL     1      -3.022   0.695  24.971  0.00  0.00    +0.051 C 
ATOM     16  N   UNL     1      -2.616  -0.700  25.186  0.00  0.00    -0.251 N 
ATOM     24  N   UNL     1      -1.896  -1.104  25.202  0.00  0.00    -0.174 NA
ATOM     25  C   UNL     1      -1.295  -0.556  25.059  0.00  0.00    +0.076 A 
ATOM     26  C   UNL     1      -0.487  -0.721  25.026  0.00  0.00    +0.054 C 
ENDROOT
BRANCH  13  10
ATOM      8  C   UNL     1      -0.729   2.113  24.935  0.00  0.00    +0.119 C 
ATOM      9  C   UNL     1      -1.166   1.527  25.317  0.00  0.00    +0.035 C 
ATOM     10  C   UNL     1      -1.246   0.890  24.799  0.00  0.00    +0.048 C 
ATOM     11  C   UNL     1      -0.858   1.083  24.096  0.00  0.00    -0.025 C 
ATOM     12  C   UNL     1      -0.539   1.839  24.181  0.00  0.00    -0.009 C 
BRANCH   8   7
ATOM      4  N   UNL     1      -0.704   4.261  25.326  0.00  0.00    -0.189 NA
ATOM      5  C   UNL     1      -0.914   3.528  25.009  0.00  0.00    +0.339 C 
ATOM      6  O   UNL     1      -1.517   3.478  24.448  0.00  0.00    -0.249 OA
ATOM      7  N   UNL     1      -0.520   2.846  25.253  0.00  0.00    -0.184 NA
BRANCH   4   2
ATOM      1  C   UNL     1      -0.720   5.481  24.583  0.00  0.00    +0.023 C 
ATOM      2  C   UNL     1      -1.098   4.943  25.082  0.00  0.00    +0.097 C 
ATOM      3  C   UNL     1      -1.869   5.088  25.337  0.00  0.00    +0.023 C 
ENDBRANCH   4   2
ENDBRANCH   8   7
ENDBRANCH  13  10
BRANCH  16  17
ATOM     17  C   UNL     1      -3.361  -1.035  25.303  0.00  0.00    +0.153 C 
BRANCH  17  18
ATOM     18  C   UNL     1      -3.603  -1.674  24.842  0.00  0.00    +0.002 A 
ATOM     19  C   UNL     1      -4.048  -1.545  24.159  0.00  0.00    -0.002 A 
ATOM     20  C   UNL     1      -4.290  -2.185  23.697  0.00  0.00    -0.000 A 
ATOM     21  C   UNL     1      -4.087  -2.953  23.919  0.00  0.00    -0.000 A 
ATOM     22  C   UNL     1      -3.642  -3.083  24.601  0.00  0.00    -0.000 A 
ATOM     23  C   UNL     1      -3.401  -2.443  25.062  0.00  0.00    -0.002 A 
ENDBRANCH  17  18
ENDBRANCH  16  17
TORSDOF 5
ENDMDL
MODEL 4
REMARK VINA RESULT:     -10.7      2.258      5.877
REMARK  Name = 
REMARK  5 active torsions:
REMARK  status: ('A' for Active; 'I' for Inactive)
REMARK    1  A    between atoms: C_2  and  N_4
REMARK    2  A    between atoms: N_7  and  C_8
REMARK    3  A    between atoms: C_10  and  C_13
REMARK    4  A    between atoms: N_16  and  C_17
REMARK    5  A    between atoms: C_17  and  C_18
REMARK                            x       y       z     vdW  Elec       q    Type
REMARK                         _______ _______ _______ _____ _____    ______ ____
ROOT
ATOM     13  C   UNL     1      -1.051   1.366  24.784  0.00  0.00    +0.010 A 
ATOM     14  C   UNL     1      -0.757   1.885  25.352  0.00  0.00    +0.054 A 
ATOM     15  C   UNL     1      -0.522   1.686  26.118  0.00  0.00    +0.051 C 
ATOM     16  N   UNL     1      -0.738   2.641  25.022  0.00  0.00    -0.251 N 
ATOM     24  N   UNL     1      -1.020   2.588  24.248  0.00  0.00    -0.174 NA
ATOM     25  C   UNL     1      -1.214   1.800  24.102  0.00  0.00    +0.076 A 
ATOM     26  C   UNL     1      -1.517   1.498  23.396  0.00  0.00    +0.054 C 
ENDROOT
BRANCH  13  10
ATOM      8  C   UNL     1      -1.718  -0.626  25.161  0.00  0.00    +0.119 C 
ATOM      9  C   UNL     1      -1.851   0.187  25.149  0.00  0.00    +0.035 C 
ATOM     10  C   UNL     1      -1.162   0.554  24.881  0.00  0.00    +0.048 C 
ATOM     11  C   UNL     1      -0.604  -0.034  24.727  0.00  0.00    -0.025 C 
ATOM     12  C   UNL     1      -0.948  -0.763  24.900  0.00  0.00    -0.009 C 
BRANCH   8   7
ATOM      4  N   UNL     1      -3.235  -2.194  25.056  0.00  0.00    -0.189 NA
ATOM      5  C   UNL     1      -2.691  -1.617  24.823  0.00  0.00    +0.339 C 
ATOM      6  O   UNL     1      -2.578  -1.456  24.022  0.00  0.00    -0.249 OA
ATOM      7  N   UNL     1      -2.262  -1.203  25.393  0.00  0.00    -0.184 NA
BRANCH   4   2
ATOM      1  C   UNL     1      -3.490  -3.401  24.335  0.00  0.00    +0.023 C 
ATOM      2  C   UNL     1      -3.664  -2.608  24.486  0.00  0.00    +0.097 C 
ATOM      3  C   UNL     1      -4.267  -2.230  24.067  0.00  0.00    +0.023 C 
ENDBRANCH   4   2
ENDBRANCH   8   7
ENDBRANCH  13  10
BRANCH  16  17
ATOM     17  C   UNL     1      -0.481   3.329  25.398  0.00  0.00    +0.153 C 
BRANCH  17  18
ATOM     18  C   UNL     1      -0.885   4.039  25.280  0.00  0.00    +0.002 A 
ATOM     19  C   UNL     1      -0.548   4.634  24.820  0.00  0.00    -0.002 A 
ATOM     20  C   UNL     1      -0.953   5.344  24.702  0.00  0.00    -0.000 A 
ATOM     21  C   UNL     1      -1.694   5.458  25.046  0.00  0.00    -0.000 A 
ATOM     22  C   UNL     1      -2.031   4.862  25.507  0.00  0.00    -0.000 A 
ATOM     23  C   UNL     1      -1.627   4.153  25.624  0.00  0.00    -0.002 A 
ENDBRANCH  17  18
ENDBRANCH  16  17
TORSDOF 5
ENDMDL
