MODEL 1
REMARK VINA RESULT:     -10.6      0.000      0.000
REMARK  Name = 
REMARK  4 active torsions:
REMARK  status: ('A' for Active; 'I' for Inactive)
REMARK    1  A    between atoms: C_2  and  N_3
REMARK    2  A    between atoms: C_8  and  C_9
REMARK    3  A    between atoms: N_11  and  C_12
REMARK    4  A    between atoms: C_18  and  C_19
REMARK                            x       y       z     vdW  Elec       q    Type
REMARK                         _______ _______ _______ _____ _____    ______ ____
ROOT
ATOM     12  C   UNL     1      -4.385   1.516  24.509  0.00  0.00    +0.133 C 
ATOM     13  C   UNL     1      -5.085   1.765  24.868  0.00  0.00    +0.202 C 
ATOM     14  O   UNL     1      -5.705   1.278  25.112  0.00  0.00    -0.219 OA
ATOM     15  C   UNL     1      -5.056   2.586  24.940  0.00  0.00    +0.184 C 
ATOM     16  O   UNL     1      -5.642   3.065  25.268  0.00  0.00    -0.220 OA
ATOM     17  C   UNL     1      -4.338   2.844  24.625  0.00  0.00    +0.042 C 
ATOM     18  C   UNL     1      -3.923   2.183  24.359  0.00  0.00    +0.049 C 
ENDROOT
BRANCH  18  19
ATOM     19  C   UNL     1      -3.178   2.188  24.006  0.00  0.00    -0.002 A 
ATOM     20  C   UNL     1      -3.106   2.058  23.194  0.00  0.00    -0.001 A 
ATOM     21  C   UNL     1      -2.361   2.063  22.840  0.00  0.00    +0.020 A 
ATOM     22  C   UNL     1      -1.688   2.197  23.297  0.00  0.00    +0.099 A 
ATOM     23  N   UNL     1      -1.760   2.326  24.109  0.00  0.00    -0.243 NA
ATOM     24  C   UNL     1      -2.505   2.322  24.463  0.00  0.00    +0.095 A 
ENDBRANCH  18  19
BRANCH  12  11
ATOM      9  C   UNL     1      -4.227   0.154  24.915  0.00  0.00    +0.282 C 
ATOM     10  O   UNL     1      -4.475   0.352  25.676  0.00  0.00    -0.267 OA
ATOM     11  N   UNL     1      -4.182   0.736  24.331  0.00  0.00    -0.199 NA
BRANCH   9   8
ATOM      3  N   UNL     1      -3.430  -1.067  25.103  0.00  0.00    -0.247 N 
ATOM      4  N   UNL     1      -3.418  -1.814  24.755  0.00  0.00    -0.174 NA
ATOM      5  C   UNL     1      -4.004  -1.835  24.175  0.00  0.00    +0.081 A 
ATOM      6  C   UNL     1      -4.184  -2.478  23.690  0.00  0.00    +0.054 C 
ATOM      7  C   UNL     1      -4.378  -1.100  24.164  0.00  0.00    +0.040 A 
ATOM      8  C   UNL     1      -4.024  -0.625  24.737  0.00  0.00    +0.134 A 
BRANCH   3   2
ATOM      1  C   UNL     1      -2.210  -1.177  25.839  0.00  0.00    +0.028 C 
ATOM      2  C   UNL     1      -2.935  -0.806  25.709  0.00  0.00    +0.128 C 
ENDBRANCH   3   2
ENDBRANCH   9   8
ENDBRANCH  12  11
TORSDOF 4
ENDMDL
MODEL 2
REMARK VINA RESULT:     -10.0      1.419      3.437
REMARK  Name = 
REMARK  4 active torsions:
REMARK  status: ('A' for Active; 'I' for Inactive)
REMARK    1  A    between atoms: C_2  and  N_3
REMARK    2  A    between atoms: C_8  and  C_9
REMARK    3  A    between atoms: N_11  and  C_12
REMARK    4  A    between atoms: C_18  and  C_19
REMARK                            x       y       z     vdW  Elec       q    Type
REMARK                         _______ _______ _______ _____ _____    ______ ____
ROOT
ATOM     12  C   UNL     1      -3.791   1.276  25.020  0.00  0.00    +0.133 C 
ATOM     13  C   UNL     1      -4.290   1.924  24.911  0.00  0.00    +0.202 C 
ATOM     14  O   UNL     1      -4.074   2.718  24.970  0.00  0.00    -0.219 OA
ATOM     15  C   UNL     1      -5.042   1.637  24.732  0.00  0.00    +0.184 C 
ATOM     16  O   UNL     1      -5.712   2.095  24.581  0.00  0.00    -0.220 OA
ATOM     17  C   UNL     1      -5.008   0.813  24.731  0.00  0.00    +0.042 C 
ATOM     18  C   UNL     1      -4.234   0.589  24.909  0.00  0.00    +0.049 C 
ENDROOT
BRANCH  18  19
ATOM     19  C   UNL     1      -3.953  -0.184  24.966  0.00  0.00    -0.002 A 
ATOM     20  C   UNL     1      -3.880  -0.647  24.286  0.00  0.00    -0.001 A 
ATOM     21  C   UNL     1      -3.599  -1.420  24.343  0.00  0.00    +0.020 A 
ATOM     22  C   UNL     1      -3.392  -1.731  25.078  0.00  0.00    +0.099 A 
ATOM     23  N   UNL     1      -3.465  -1.268  25.758  0.00  0.00    -0.243 NA
ATOM     24  C   UNL     1      -3.746  -0.495  25.701  0.00  0.00    +0.095 A 
ENDBRANCH  18  19
BRANCH  12  11
ATOM      9  C   UNL     1      -2.479   1.785  24.764  0.00  0.00    +0.282 C 
ATOM     10  O   UNL     1      -2.774   2.228  24.134  0.00  0.00    -0.267 OA
ATOM     11  N   UNL     1      -2.987   1.309  25.207  0.00  0.00    -0.199 NA
BRANCH   9   8
ATOM      3  N   UNL     1      -1.057   1.545  24.479  0.00  0.00    -0.247 N 
ATOM      4  N   UNL     1      -0.350   1.688  24.879  0.00  0.00    -0.174 NA
ATOM      5  C   UNL     1      -0.532   2.050  25.597  0.00  0.00    +0.081 A 
ATOM      6  C   UNL     1       0.010   2.289  26.171  0.00  0.00    +0.054 C 
ATOM      7  C   UNL     1      -1.352   2.130  25.642  0.00  0.00    +0.040 A 
ATOM      8  C   UNL     1      -1.677   1.818  24.951  0.00  0.00    +0.134 A 
BRANCH   3   2
ATOM      1  C   UNL     1      -0.497   0.778  23.411  0.00  0.00    +0.028 C 
ATOM      2  C   UNL     1      -1.132   1.190  23.738  0.00  0.00    +0.128 C 
ENDBRANCH   3   2
ENDBRANCH   9   8
ENDBRANCH  12  11
TORSDOF 4
ENDMDL
MODEL 3
REMARK VINA RESULT:     -10.0      1.913      3.941
REMARK  Name = 
REMARK  4 active torsions:
REMARK  status: ('A' for Active; 'I' for Inactive)
REMARK    1  A    between atoms: C_2  and  N_3
REMARK    2  A    between atoms: C_8  and  C_9
REMARK    3  A    between atoms: N_11  and  C_12
REMARK    4  A    between atoms: C_18  and  C_19
REMARK                            x       y       z     vdW  Elec       q    Type
REMARK                         _______ _______ _______ _____ _____    ______ ____
ROOT
ATOM     12  C   UNL     1      -3.987   3.039  25.179  0.00  0.00    +0.133 C 
ATOM     13  C   UNL     1      -4.571   3.402  25.635  0.00  0.00    +0.202 C 
ATOM     14  O   UNL     1      -4.512   4.139  26.000  0.00  0.00    -0.219 OA
ATOM     15  C   UNL     1      -5.223   2.899  25.661  0.00  0.00    +0.184 C 
ATOM     16  O   UNL     1      -5.933   3.044  26.057  0.00  0.00    -0.220 OA
ATOM     17  C   UNL     1      -5.043   2.224  25.221  0.00  0.00    +0.042 C 
ATOM     18  C   UNL     1      -4.279   2.311  24.923  0.00  0.00    +0.049 C 
ENDROOT
BRANCH  18  19
ATOM     19  C   UNL     1      -3.877   1.766  24.452  0.00  0.00    -0.002 A 
ATOM     20  C   UNL     1      -3.654   1.036  24.765  0.00  0.00    -0.001 A 
ATOM     21  C   UNL     1      -3.252   0.491  24.294  0.00  0.00    +0.020 A 
ATOM     22  C   UNL     1      -3.073   0.675  23.511  0.00  0.00    +0.099 A 
ATOM     23  N   UNL     1      -3.297   1.405  23.197  0.00  0.00    -0.243 NA
ATOM     24  C   UNL     1      -3.698   1.950  23.668  0.00  0.00    +0.095 A 
ENDBRANCH  18  19
BRANCH  12  11
ATOM      9  C   UNL     1      -2.760   3.626  25.619  0.00  0.00    +0.282 C 
ATOM     10  O   UNL     1      -3.024   3.592  26.399  0.00  0.00    -0.267 OA
ATOM     11  N   UNL     1      -3.242   3.350  25.008  0.00  0.00    -0.199 NA
BRANCH   9   8
ATOM      3  N   UNL     1      -1.291   3.602  25.660  0.00  0.00    -0.247 N 
ATOM      4  N   UNL     1      -0.692   4.094  25.379  0.00  0.00    -0.174 NA
ATOM      5  C   UNL     1      -1.045   4.733  24.995  0.00  0.00    +0.081 A 
ATOM      6  C   UNL     1      -0.650   5.359  24.631  0.00  0.00    +0.054 C 
ATOM      7  C   UNL     1      -1.863   4.635  25.038  0.00  0.00    +0.040 A 
ATOM      8  C   UNL     1      -2.016   3.936  25.448  0.00  0.00    +0.134 A 
BRANCH   3   2
ATOM      1  C   UNL     1      -0.435   2.562  26.135  0.00  0.00    +0.028 C 
ATOM      2  C   UNL     1      -1.185   2.899  26.078  0.00  0.00    +0.128 C 
ENDBRANCH   3   2
ENDBRANCH   9   8
ENDBRANCH  12  11
TORSDOF 4
ENDMDL
MODEL 4
REMARK VINA RESULT:     -10.0      1.484      3.844
REMARK  Name = 
REMARK  4 active torsions:
REMARK  status: ('A' for Active; 'I' for Inactive)
REMARK    1  A    between atoms: C_2  and  N_3
REMARK    2  A    between atoms: C_8  and  C_9
REMARK    3  A    between atoms: N_11  and  C_12
REMARK    4  A    between atoms: C_18  and  C_19
REMARK                            x       y       z     vdW  Elec       q    Type
REMARK                         _______ _______ _______ _____ _____    ______ ____
ROOT
ATOM     12  C   UNL     1      -3.427  -1.137  24.619  0.00  0.00    +0.133 C 
ATOM     13  C   UNL     1      -3.977  -1.677  24.323  0.00  0.00    +0.202 C 
ATOM     14  O   UNL     1      -4.752  -1.506  24.099  0.00  0.00    -0.219 OA
ATOM     15  C   UNL     1      -3.615  -2.417  24.292  0.00  0.00    +0.184 C 
ATOM     16  O   UNL     1      -3.964  -3.117  24.029  0.00  0.00    -0.220 OA
ATOM     17  C   UNL     1      -2.841  -2.335  24.568  0.00  0.00    +0.042 C 
ATOM     18  C   UNL     1      -2.725  -1.544  24.771  0.00  0.00    +0.049 C 
ENDROOT
BRANCH  18  19
ATOM     19  C   UNL     1      -2.031  -1.217  25.072  0.00  0.00    -0.002 A 
ATOM     20  C   UNL     1      -1.996  -0.977  25.861  0.00  0.00    -0.001 A 
ATOM     21  C   UNL     1      -1.301  -0.650  26.162  0.00  0.00    +0.020 A 
ATOM     22  C   UNL     1      -0.641  -0.563  25.675  0.00  0.00    +0.099 A 
ATOM     23  N   UNL     1      -0.676  -0.803  24.885  0.00  0.00    -0.243 NA
ATOM     24  C   UNL     1      -1.371  -1.130  24.585  0.00  0.00    +0.095 A 
ENDBRANCH  18  19
BRANCH  12  11
ATOM      9  C   UNL     1      -3.832   0.142  24.126  0.00  0.00    +0.282 C 
ATOM     10  O   UNL     1      -3.979  -0.191  23.385  0.00  0.00    -0.267 OA
ATOM     11  N   UNL     1      -3.557  -0.332  24.743  0.00  0.00    -0.199 NA
BRANCH   9   8
ATOM      3  N   UNL     1      -3.598   1.564  23.840  0.00  0.00    -0.247 N 
ATOM      4  N   UNL     1      -3.889   2.275  24.141  0.00  0.00    -0.174 NA
ATOM      5  C   UNL     1      -4.432   2.097  24.734  0.00  0.00    +0.081 A 
ATOM      6  C   UNL     1      -4.857   2.644  25.184  0.00  0.00    +0.054 C 
ATOM      7  C   UNL     1      -4.477   1.276  24.801  0.00  0.00    +0.040 A 
ATOM      8  C   UNL     1      -3.962   0.946  24.249  0.00  0.00    +0.134 A 
BRANCH   3   2
ATOM      1  C   UNL     1      -2.637   2.147  22.957  0.00  0.00    +0.028 C 
ATOM      2  C   UNL     1      -3.040   1.485  23.237  0.00  0.00    +0.128 C 
ENDBRANCH   3   2
ENDBRANCH   9   8
ENDBRANCH  12  11
TORSDOF 4
ENDMDL
MODEL 5
REMARK VINA RESULT:      -9.8      2.174      4.578
REMARK  Name = 
REMARK  4 active torsions:
REMARK  status: ('A' for Active; 'I' for Inactive)
REMARK    1  A    between atoms: C_2  and  N_3
REMARK    2  A    between atoms: C_8  and  C_9
REMARK    3  A    between atoms: N_11  and  C_12
REMARK    4  A    between atoms: C_18  and  C_19
REMARK                            x       y       z     vdW  Elec       q    Type
REMARK                         _______ _______ _______ _____ _____    ______ ____
ROOT
ATOM     12  C   UNL     1      -1.244   0.366  24.641  0.00  0.00    +0.133 C 
ATOM     13  C   UNL     1      -0.489   0.357  24.309  0.00  0.00    +0.202 C 
ATOM     14  O   UNL     1      -0.006   1.014  24.185  0.00  0.00    -0.219 OA
ATOM     15  C   UNL     1      -0.303  -0.424  24.122  0.00  0.00    +0.184 C 
ATOM     16  O   UNL     1       0.400  -0.687  23.779  0.00  0.00    -0.220 OA
ATOM     17  C   UNL     1      -0.943  -0.898  24.339  0.00  0.00    +0.042 C 
ATOM     18  C   UNL     1      -1.525  -0.409  24.660  0.00  0.00    +0.049 C 
ENDROOT
BRANCH  18  19
ATOM     19  C   UNL     1      -2.258  -0.653  24.949  0.00  0.00    -0.002 A 
ATOM     20  C   UNL     1      -2.865  -0.845  24.423  0.00  0.00    -0.001 A 
ATOM     21  C   UNL     1      -3.598  -1.088  24.712  0.00  0.00    +0.020 A 
ATOM     22  C   UNL     1      -3.725  -1.140  25.525  0.00  0.00    +0.099 A 
ATOM     23  N   UNL     1      -3.118  -0.949  26.051  0.00  0.00    -0.243 NA
ATOM     24  C   UNL     1      -2.385  -0.705  25.762  0.00  0.00    +0.095 A 
ENDBRANCH  18  19
BRANCH  12  11
ATOM      9  C   UNL     1      -1.719   1.696  24.421  0.00  0.00    +0.282 C 
ATOM     10  O   UNL     1      -1.386   1.690  23.666  0.00  0.00    -0.267 OA
ATOM     11  N   UNL     1      -1.648   1.034  24.908  0.00  0.00    -0.199 NA
BRANCH   9   8
ATOM      3  N   UNL     1      -2.780   2.709  24.327  0.00  0.00    -0.247 N 
ATOM      4  N   UNL     1      -3.004   3.363  24.778  0.00  0.00    -0.174 NA
ATOM      5  C   UNL     1      -2.486   3.421  25.416  0.00  0.00    +0.081 A 
ATOM      6  C   UNL     1      -2.508   3.997  26.008  0.00  0.00    +0.054 C 
ATOM      7  C   UNL     1      -1.941   2.804  25.360  0.00  0.00    +0.040 A 
ATOM      8  C   UNL     1      -2.123   2.364  24.687  0.00  0.00    +0.134 A 
BRANCH   3   2
ATOM      1  C   UNL     1      -3.865   2.780  23.399  0.00  0.00    +0.028 C 
ATOM      2  C   UNL     1      -3.149   2.447  23.637  0.00  0.00    +0.128 C 
ENDBRANCH   3   2
ENDBRANCH   9   8
ENDBRANCH  12  11
TORSDOF 4
ENDMDL
MODEL 6
REMARK VINA RESULT:      -9.7      1.409      2.301
REMARK  Name = 
REMARK  4 active torsions:
REMARK  status: ('A' for Active; 'I' for Inactive)
REMARK    1  A    between atoms: C_2  and  N_3
REMARK    2  A    between atoms: C_8  and  C_9
REMARK    3  A    between atoms: N_11  and  C_12
REMARK    4  A    between atoms: C_18  and  C_19
REMARK                            x       y       z     vdW  Elec       q    Type
REMARK                         _______ _______ _______ _____ _____    ______ ____
ROOT
ATOM     12  C   UNL     1      -3.563   1.528  24.024  0.00  0.00    +0.133 C 
ATOM     13  C   UNL     1      -2.889   1.792  23.629  0.00  0.00    +0.202 C 
ATOM     14  O   UNL     1      -2.347   1.319  23.224  0.00  0.00    -0.219 OA
ATOM     15  C   UNL     1      -2.852   2.612  23.709  0.00  0.00    +0.184 C 
ATOM     16  O   UNL     1      -2.267   3.104  23.398  0.00  0.00    -0.220 OA
ATOM     17  C   UNL     1      -3.504   2.855  24.154  0.00  0.00    +0.042 C 
ATOM     18  C   UNL     1      -3.943   2.184  24.349  0.00  0.00    +0.049 C 
ENDROOT
BRANCH  18  19
ATOM     19  C   UNL     1      -4.639   2.172  24.791  0.00  0.00    -0.002 A 
ATOM     20  C   UNL     1      -5.355   1.981  24.427  0.00  0.00    -0.001 A 
ATOM     21  C   UNL     1      -6.051   1.969  24.869  0.00  0.00    +0.020 A 
ATOM     22  C   UNL     1      -6.033   2.148  25.673  0.00  0.00    +0.099 A 
ATOM     23  N   UNL     1      -5.317   2.340  26.037  0.00  0.00    -0.243 NA
ATOM     24  C   UNL     1      -4.621   2.352  25.595  0.00  0.00    +0.095 A 
ENDBRANCH  18  19
BRANCH  12  11
ATOM      9  C   UNL     1      -3.286   0.160  24.332  0.00  0.00    +0.282 C 
ATOM     10  O   UNL     1      -2.507   0.359  24.519  0.00  0.00    -0.267 OA
ATOM     11  N   UNL     1      -3.813   0.744  24.085  0.00  0.00    -0.199 NA
BRANCH   9   8
ATOM      3  N   UNL     1      -3.478  -1.101  25.064  0.00  0.00    -0.247 N 
ATOM      4  N   UNL     1      -3.794  -1.840  24.879  0.00  0.00    -0.174 NA
ATOM      5  C   UNL     1      -4.047  -1.820  24.095  0.00  0.00    +0.081 A 
ATOM      6  C   UNL     1      -4.398  -2.443  23.682  0.00  0.00    +0.054 C 
ATOM      7  C   UNL     1      -3.887  -1.068  23.794  0.00  0.00    +0.040 A 
ATOM      8  C   UNL     1      -3.536  -0.624  24.393  0.00  0.00    +0.134 A 
BRANCH   3   2
ATOM      1  C   UNL     1      -3.191  -1.396  26.433  0.00  0.00    +0.028 C 
ATOM      2  C   UNL     1      -3.160  -0.877  25.792  0.00  0.00    +0.128 C 
ENDBRANCH   3   2
ENDBRANCH   9   8
ENDBRANCH  12  11
TORSDOF 4
ENDMDL
MODEL 7
REMARK VINA RESULT:      -9.6      1.843      3.330
REMARK  Name = 
REMARK  4 active torsions:
REMARK  status: ('A' for Active; 'I' for Inactive)
REMARK    1  A    between atoms: C_2  and  N_3
REMARK    2  A    between atoms: C_8  and  C_9
REMARK    3  A    between atoms: N_11  and  C_12
REMARK    4  A    between atoms: C_18  and  C_19
REMARK                            x       y       z     vdW  Elec       q    Type
REMARK                         _______ _______ _______ _____ _____    ______ ____
ROOT
ATOM     12  C   UNL     1      -3.195   0.428  24.538  0.00  0.00    +0.133 C 
ATOM     13  C   UNL     1      -3.392   1.202  24.741  0.00  0.00    +0.202 C 
ATOM     14  O   UNL     1      -2.895   1.859  24.690  0.00  0.00    -0.219 OA
ATOM     15  C   UNL     1      -4.174   1.205  25.004  0.00  0.00    +0.184 C 
ATOM     16  O   UNL     1      -4.596   1.865  25.263  0.00  0.00    -0.220 OA
ATOM     17  C   UNL     1      -4.459   0.432  24.964  0.00  0.00    +0.042 C 
ATOM     18  C   UNL     1      -3.854  -0.049  24.675  0.00  0.00    +0.049 C 
ENDROOT
BRANCH  18  19
ATOM     19  C   UNL     1      -3.900  -0.862  24.547  0.00  0.00    -0.002 A 
ATOM     20  C   UNL     1      -4.029  -1.153  23.785  0.00  0.00    -0.001 A 
ATOM     21  C   UNL     1      -4.075  -1.966  23.657  0.00  0.00    +0.020 A 
ATOM     22  C   UNL     1      -3.992  -2.489  24.289  0.00  0.00    +0.099 A 
ATOM     23  N   UNL     1      -3.862  -2.198  25.051  0.00  0.00    -0.243 NA
ATOM     24  C   UNL     1      -3.817  -1.385  25.179  0.00  0.00    +0.095 A 
ENDBRANCH  18  19
BRANCH  12  11
ATOM      9  C   UNL     1      -1.773   0.347  24.661  0.00  0.00    +0.282 C 
ATOM     10  O   UNL     1      -1.810   0.775  25.366  0.00  0.00    -0.267 OA
ATOM     11  N   UNL     1      -2.465   0.173  24.247  0.00  0.00    -0.199 NA
BRANCH   9   8
ATOM      3  N   UNL     1      -0.566  -0.492  24.705  0.00  0.00    -0.247 N 
ATOM      4  N   UNL     1       0.109  -0.567  24.237  0.00  0.00    -0.174 NA
ATOM      5  C   UNL     1       0.048  -0.030  23.615  0.00  0.00    +0.081 A 
ATOM      6  C   UNL     1       0.603   0.081  23.014  0.00  0.00    +0.054 C 
ATOM      7  C   UNL     1      -0.664   0.378  23.698  0.00  0.00    +0.040 A 
ATOM      8  C   UNL     1      -1.044   0.093  24.372  0.00  0.00    +0.134 A 
BRANCH   3   2
ATOM      1  C   UNL     1      -0.342  -1.635  25.533  0.00  0.00    +0.028 C 
ATOM      2  C   UNL     1      -0.734  -0.924  25.388  0.00  0.00    +0.128 C 
ENDBRANCH   3   2
ENDBRANCH   9   8
ENDBRANCH  12  11
TORSDOF 4
ENDMDL
MODEL 8
REMARK VINA RESULT:      -9.5      1.813      3.662
REMARK  Name = 
REMARK  4 active torsions:
REMARK  status: ('A' for Active; 'I' for Inactive)
REMARK    1  A    between atoms: C_2  and  N_3
REMARK    2  A    between atoms: C_8  and  C_9
REMARK    3  A    between atoms: N_11  and  C_12
REMARK    4  A    between atoms: C_18  and  C_19
REMARK                            x       y       z     vdW  Elec       q    Type
REMARK                         _______ _______ _______ _____ _____    ______ ____
ROOT
ATOM     12  C   UNL     1      -2.131   0.127  24.876  0.00  0.00    +0.133 C 
ATOM     13  C   UNL     1      -2.281  -0.670  24.724  0.00  0.00    +0.202 C 
ATOM     14  O   UNL     1      -3.026  -1.019  24.661  0.00  0.00    -0.219 OA
ATOM     15  C   UNL     1      -1.556  -1.055  24.645  0.00  0.00    +0.184 C 
ATOM     16  O   UNL     1      -1.448  -1.858  24.490  0.00  0.00    -0.220 OA
ATOM     17  C   UNL     1      -0.958  -0.496  24.749  0.00  0.00    +0.042 C 
ATOM     18  C   UNL     1      -1.313   0.235  24.892  0.00  0.00    +0.049 C 
ENDROOT
BRANCH  18  19
ATOM     19  C   UNL     1      -0.920   0.947  25.027  0.00  0.00    -0.002 A 
ATOM     20  C   UNL     1      -0.910   1.275  25.784  0.00  0.00    -0.001 A 
ATOM     21  C   UNL     1      -0.517   1.988  25.919  0.00  0.00    +0.020 A 
ATOM     22  C   UNL     1      -0.135   2.372  25.298  0.00  0.00    +0.099 A 
ATOM     23  N   UNL     1      -0.145   2.044  24.540  0.00  0.00    -0.243 NA
ATOM     24  C   UNL     1      -0.538   1.332  24.406  0.00  0.00    +0.095 A 
ENDBRANCH  18  19
BRANCH  12  11
ATOM      9  C   UNL     1      -3.308   0.814  24.444  0.00  0.00    +0.282 C 
ATOM     10  O   UNL     1      -3.348   0.327  23.780  0.00  0.00    -0.267 OA
ATOM     11  N   UNL     1      -2.699   0.714  24.992  0.00  0.00    -0.199 NA
BRANCH   9   8
ATOM      3  N   UNL     1      -3.989   2.066  24.086  0.00  0.00    -0.247 N 
ATOM      4  N   UNL     1      -4.614   2.502  24.403  0.00  0.00    -0.174 NA
ATOM      5  C   UNL     1      -4.886   2.106  25.073  0.00  0.00    +0.081 A 
ATOM      6  C   UNL     1      -5.507   2.347  25.561  0.00  0.00    +0.054 C 
ATOM      7  C   UNL     1      -4.430   1.425  25.170  0.00  0.00    +0.040 A 
ATOM      8  C   UNL     1      -3.876   1.400  24.560  0.00  0.00    +0.134 A 
BRANCH   3   2
ATOM      1  C   UNL     1      -3.623   3.014  23.080  0.00  0.00    +0.028 C 
ATOM      2  C   UNL     1      -3.554   2.262  23.413  0.00  0.00    +0.128 C 
ENDBRANCH   3   2
ENDBRANCH   9   8
ENDBRANCH  12  11
TORSDOF 4
ENDMDL
MODEL 9
REMARK VINA RESULT:      -9.4      2.459      3.604
REMARK  Name = 
REMARK  4 active torsions:
REMARK  status: ('A' for Active; 'I' for Inactive)
REMARK    1  A    between atoms: C_2  and  N_3
REMARK    2  A    between atoms: C_8  and  C_9
REMARK    3  A    between atoms: N_11  and  C_12
REMARK    4  A    between atoms: C_18  and  C_19
REMARK                            x       y       z     vdW  Elec       q    Type
REMARK                         _______ _______ _______ _____ _____    ______ ____
ROOT
ATOM     12  C   UNL     1      -1.709   3.417  25.227  0.00  0.00    +0.133 C 
ATOM     13  C   UNL     1      -0.982   3.789  25.113  0.00  0.00    +0.202 C 
ATOM     14  O   UNL     1      -0.245   3.418  25.086  0.00  0.00    -0.219 OA
ATOM     15  C   UNL     1      -1.120   4.598  25.031  0.00  0.00    +0.184 C 
ATOM     16  O   UNL     1      -0.546   5.178  24.908  0.00  0.00    -0.220 OA
ATOM     17  C   UNL     1      -1.933   4.726  25.095  0.00  0.00    +0.042 C 
ATOM     18  C   UNL     1      -2.297   3.995  25.216  0.00  0.00    +0.049 C 
ENDROOT
BRANCH  18  19
ATOM     19  C   UNL     1      -3.106   3.866  25.309  0.00  0.00    -0.002 A 
ATOM     20  C   UNL     1      -3.417   3.721  26.060  0.00  0.00    -0.001 A 
ATOM     21  C   UNL     1      -4.226   3.592  26.153  0.00  0.00    +0.020 A 
ATOM     22  C   UNL     1      -4.725   3.608  25.496  0.00  0.00    +0.099 A 
ATOM     23  N   UNL     1      -4.414   3.753  24.745  0.00  0.00    -0.243 NA
ATOM     24  C   UNL     1      -3.605   3.882  24.652  0.00  0.00    +0.095 A 
ENDBRANCH  18  19
BRANCH  12  11
ATOM      9  C   UNL     1      -1.524   2.070  24.786  0.00  0.00    +0.282 C 
ATOM     10  O   UNL     1      -1.101   2.342  24.132  0.00  0.00    -0.267 OA
ATOM     11  N   UNL     1      -1.828   2.607  25.333  0.00  0.00    -0.199 NA
BRANCH   9   8
ATOM      3  N   UNL     1      -2.092   0.768  24.406  0.00  0.00    -0.247 N 
ATOM      4  N   UNL     1      -2.060   0.005  24.716  0.00  0.00    -0.174 NA
ATOM      5  C   UNL     1      -1.591   0.025  25.394  0.00  0.00    +0.081 A 
ATOM      6  C   UNL     1      -1.411  -0.618  25.879  0.00  0.00    +0.054 C 
ATOM      7  C   UNL     1      -1.333   0.801  25.503  0.00  0.00    +0.040 A 
ATOM      8  C   UNL     1      -1.642   1.261  24.892  0.00  0.00    +0.134 A 
BRANCH   3   2
ATOM      1  C   UNL     1      -3.113   0.530  23.435  0.00  0.00    +0.028 C 
ATOM      2  C   UNL     1      -2.502   1.000  23.728  0.00  0.00    +0.128 C 
ENDBRANCH   3   2
ENDBRANCH   9   8
ENDBRANCH  12  11
TORSDOF 4
ENDMDL
MODEL 10
REMARK VINA RESULT:      -9.4      1.874      3.561
REMARK  Name = 
REMARK  4 active torsions:
REMARK  status: ('A' for Active; 'I' for Inactive)
REMARK    1  A    between atoms: C_2  and  N_3
REMARK    2  A    between atoms: C_8  and  C_9
REMARK    3  A    between atoms: N_11  and  C_12
REMARK    4  A    between atoms: C_18  and  C_19
REMARK                            x       y       z     vdW  Elec       q    Type
REMARK                         _______ _______ _______ _____ _____    ______ ____
ROOT
ATOM     12  C   UNL     1      -2.740   0.486  24.654  0.00  0.00    +0.133 C 
ATOM     13  C   UNL     1      -2.859  -0.294  24.895  0.00  0.00    +0.202 C 
ATOM     14  O   UNL     1      -2.272  -0.865  24.998  0.00  0.00    -0.219 OA
ATOM     15  C   UNL     1      -3.667  -0.402  25.016  0.00  0.00    +0.184 C 
ATOM     16  O   UNL     1      -4.032  -1.101  25.260  0.00  0.00    -0.220 OA
ATOM     17  C   UNL     1      -4.048   0.311  24.849  0.00  0.00    +0.042 C 
ATOM     18  C   UNL     1      -3.475   0.860  24.625  0.00  0.00    +0.049 C 
ENDROOT
BRANCH  18  19
ATOM     19  C   UNL     1      -3.612   1.644  24.411  0.00  0.00    -0.002 A 
ATOM     20  C   UNL     1      -3.841   2.194  24.982  0.00  0.00    -0.001 A 
ATOM     21  C   UNL     1      -3.978   2.978  24.768  0.00  0.00    +0.020 A 
ATOM     22  C   UNL     1      -3.886   3.213  23.983  0.00  0.00    +0.099 A 
ATOM     23  N   UNL     1      -3.657   2.664  23.411  0.00  0.00    -0.243 NA
ATOM     24  C   UNL     1      -3.520   1.879  23.626  0.00  0.00    +0.095 A 
ENDBRANCH  18  19
BRANCH  12  11
ATOM      9  C   UNL     1      -1.385   0.776  25.005  0.00  0.00    +0.282 C 
ATOM     10  O   UNL     1      -1.484   0.373  25.719  0.00  0.00    -0.267 OA
ATOM     11  N   UNL     1      -2.013   0.832  24.473  0.00  0.00    -0.199 NA
BRANCH   9   8
ATOM      3  N   UNL     1      -0.271   1.698  25.270  0.00  0.00    -0.247 N 
ATOM      4  N   UNL     1       0.435   1.884  24.887  0.00  0.00    -0.174 NA
ATOM      5  C   UNL     1       0.485   1.423  24.206  0.00  0.00    +0.081 A 
ATOM      6  C   UNL     1       1.103   1.431  23.659  0.00  0.00    +0.054 C 
ATOM      7  C   UNL     1      -0.191   0.951  24.167  0.00  0.00    +0.040 A 
ATOM      8  C   UNL     1      -0.658   1.121  24.824  0.00  0.00    +0.134 A 
BRANCH   3   2
ATOM      1  C   UNL     1      -0.145   2.669  26.311  0.00  0.00    +0.028 C 
ATOM      2  C   UNL     1      -0.544   2.030  25.974  0.00  0.00    +0.128 C 
ENDBRANCH   3   2
ENDBRANCH   9   8
ENDBRANCH  12  11
TORSDOF 4
ENDMDL
