MODEL 1
REMARK VINA RESULT:     -10.1      0.000      0.000
REMARK  Name = 
REMARK  6 active torsions:
REMARK  status: ('A' for Active; 'I' for Inactive)
REMARK    1  A    between atoms: C_2  and  C_3
REMARK    2  A    between atoms: C_8  and  C_9
REMARK    3  A    between atoms: C_9  and  C_10
REMARK    4  A    between atoms: C_15  and  C_18
REMARK    5  A    between atoms: C_18  and  O_20
REMARK    6  A    between atoms: C_22  and  C_24
REMARK                            x       y       z     vdW  Elec       q    Type
REMARK                         _______ _______ _______ _____ _____    ______ ____
ROOT
ATOM      3  C   UNL     1      -3.124  -0.176  24.910  0.00  0.00    +0.020 C 
ATOM      4  C   UNL     1      -3.173  -0.991  24.790  0.00  0.00    +0.093 C 
ATOM      5  N   UNL     1      -2.490  -1.430  24.654  0.00  0.00    -0.280 N 
ATOM      6  C   UNL     1      -1.755  -1.056  24.637  0.00  0.00    +0.093 C 
ATOM      7  C   UNL     1      -1.705  -0.241  24.756  0.00  0.00    +0.022 C 
ATOM      8  C   UNL     1      -2.389   0.198  24.893  0.00  0.00    +0.012 C 
ATOM     22  C   UNL     1      -2.540  -2.246  24.534  0.00  0.00    +0.225 C 
ATOM     23  O   UNL     1      -1.855  -2.686  24.398  0.00  0.00    -0.275 OA
ENDROOT
BRANCH  22  24
ATOM     24  C   UNL     1      -3.275  -2.620  24.552  0.00  0.00    +0.069 C 
ATOM     25  C   UNL     1      -4.010  -2.994  24.570  0.00  0.00    +0.009 C 
ATOM     26  C   UNL     1      -3.210  -2.709  25.370  0.00  0.00    +0.009 C 
ATOM     27  C   UNL     1      -3.340  -2.531  23.735  0.00  0.00    +0.009 C 
ENDBRANCH  22  24
BRANCH   3   2
ATOM      1  C   UNL     1      -4.405   0.283  24.478  0.00  0.00    +0.000 C 
ATOM      2  C   UNL     1      -3.808   0.264  25.046  0.00  0.00    +0.002 C 
ENDBRANCH   3   2
BRANCH   8   9
ATOM      9  C   UNL     1      -2.339   1.013  25.012  0.00  0.00    +0.085 C 
BRANCH   9  10
ATOM     10  C   UNL     1      -1.657   1.341  25.343  0.00  0.00    +0.226 C 
ATOM     11  O   UNL     1      -1.122   0.860  25.745  0.00  0.00    -0.275 OA
ATOM     12  N   UNL     1      -1.511   2.149  25.271  0.00  0.00    -0.280 N 
ATOM     13  C   UNL     1      -0.830   2.476  25.602  0.00  0.00    +0.094 C 
ATOM     14  C   UNL     1      -0.684   3.285  25.530  0.00  0.00    +0.033 C 
ATOM     15  C   UNL     1      -1.220   3.767  25.128  0.00  0.00    +0.102 C 
ATOM     16  C   UNL     1      -1.901   3.439  24.798  0.00  0.00    +0.033 C 
ATOM     17  C   UNL     1      -2.047   2.631  24.869  0.00  0.00    +0.094 C 
BRANCH  15  18
ATOM     18  C   UNL     1      -1.074   4.575  25.057  0.00  0.00    +0.317 C 
ATOM     19  O   UNL     1      -0.369   4.840  24.719  0.00  0.00    -0.250 OA
BRANCH  18  20
ATOM     20  O   UNL     1      -1.634   5.121  25.323  0.00  0.00    -0.444 OA
ATOM     21  C   UNL     1      -1.600   5.905  25.067  0.00  0.00    +0.256 C 
ENDBRANCH  18  20
ENDBRANCH  15  18
ENDBRANCH   9  10
ENDBRANCH   8   9
TORSDOF 6
ENDMDL
MODEL 2
REMARK VINA RESULT:      -9.7      1.404      5.642
REMARK  Name = 
REMARK  6 active torsions:
REMARK  status: ('A' for Active; 'I' for Inactive)
REMARK    1  A    between atoms: C_2  and  C_3
REMARK    2  A    between atoms: C_8  and  C_9
REMARK    3  A    between atoms: C_9  and  C_10
REMARK    4  A    between atoms: C_15  and  C_18
REMARK    5  A    between atoms: C_18  and  O_20
REMARK    6  A    between atoms: C_22  and  C_24
REMARK                            x       y       z     vdW  Elec       q    Type
REMARK                         _______ _______ _______ _____ _____    ______ ____
ROOT
ATOM      3  C   UNL     1      -3.062   2.963  24.376  0.00  0.00    +0.020 C 
ATOM      4  C   UNL     1      -2.519   3.529  24.629  0.00  0.00    +0.093 C 
ATOM      5  N   UNL     1      -1.876   3.305  25.093  0.00  0.00    -0.280 N 
ATOM      6  C   UNL     1      -1.775   2.514  25.305  0.00  0.00    +0.093 C 
ATOM      7  C   UNL     1      -2.318   1.948  25.051  0.00  0.00    +0.022 C 
ATOM      8  C   UNL     1      -2.961   2.172  24.587  0.00  0.00    +0.012 C 
ATOM     22  C   UNL     1      -1.332   3.872  25.347  0.00  0.00    +0.225 C 
ATOM     23  O   UNL     1      -0.688   3.648  25.812  0.00  0.00    -0.275 OA
ENDROOT
BRANCH  22  24
ATOM     24  C   UNL     1      -1.433   4.663  25.136  0.00  0.00    +0.069 C 
ATOM     25  C   UNL     1      -1.534   5.454  24.923  0.00  0.00    +0.009 C 
ATOM     26  C   UNL     1      -0.870   4.575  24.538  0.00  0.00    +0.009 C 
ATOM     27  C   UNL     1      -1.996   4.751  25.732  0.00  0.00    +0.009 C 
ENDBRANCH  22  24
BRANCH   3   2
ATOM      1  C   UNL     1      -3.593   3.386  23.119  0.00  0.00    +0.000 C 
ATOM      2  C   UNL     1      -3.706   3.187  23.911  0.00  0.00    +0.002 C 
ENDBRANCH   3   2
BRANCH   8   9
ATOM      9  C   UNL     1      -3.505   1.605  24.333  0.00  0.00    +0.085 C 
BRANCH   9  10
ATOM     10  C   UNL     1      -3.819   1.064  24.872  0.00  0.00    +0.226 C 
ATOM     11  O   UNL     1      -4.092   1.324  25.605  0.00  0.00    -0.275 OA
ATOM     12  N   UNL     1      -3.859   0.263  24.677  0.00  0.00    -0.280 N 
ATOM     13  C   UNL     1      -4.172  -0.276  25.216  0.00  0.00    +0.094 C 
ATOM     14  C   UNL     1      -4.212  -1.078  25.021  0.00  0.00    +0.033 C 
ATOM     15  C   UNL     1      -3.939  -1.338  24.287  0.00  0.00    +0.102 C 
ATOM     16  C   UNL     1      -3.625  -0.797  23.749  0.00  0.00    +0.033 C 
ATOM     17  C   UNL     1      -3.585   0.003  23.943  0.00  0.00    +0.094 C 
BRANCH  15  18
ATOM     18  C   UNL     1      -3.979  -2.138  24.092  0.00  0.00    +0.317 C 
ATOM     19  O   UNL     1      -4.572  -2.411  23.588  0.00  0.00    -0.250 OA
BRANCH  18  20
ATOM     20  O   UNL     1      -3.425  -2.667  24.403  0.00  0.00    -0.444 OA
ATOM     21  C   UNL     1      -3.464  -3.467  24.206  0.00  0.00    +0.256 C 
ENDBRANCH  18  20
ENDBRANCH  15  18
ENDBRANCH   9  10
ENDBRANCH   8   9
TORSDOF 6
ENDMDL
MODEL 3
REMARK VINA RESULT:      -8.9      2.420      4.151
REMARK  Name = 
REMARK  6 active torsions:
REMARK  status: ('A' for Active; 'I' for Inactive)
REMARK    1  A    between atoms: C_2  and  C_3
REMARK    2  A    between atoms: C_8  and  C_9
REMARK    3  A    between atoms: C_9  and  C_10
REMARK    4  A    between atoms: C_15  and  C_18
REMARK    5  A    between atoms: C_18  and  O_20
REMARK    6  A    between atoms: C_22  and  C_24
REMARK                            x       y       z     vdW  Elec       q    Type
REMARK                         _______ _______ _______ _____ _____    ______ ____
ROOT
ATOM      3  C   UNL     1      -3.607   0.970  24.990  0.00  0.00    +0.020 C 
ATOM      4  C   UNL     1      -4.301   1.396  25.122  0.00  0.00    +0.093 C 
ATOM      5  N   UNL     1      -4.327   2.203  24.956  0.00  0.00    -0.280 N 
ATOM      6  C   UNL     1      -3.660   2.586  24.658  0.00  0.00    +0.093 C 
ATOM      7  C   UNL     1      -2.966   2.160  24.527  0.00  0.00    +0.022 C 
ATOM      8  C   UNL     1      -2.939   1.353  24.693  0.00  0.00    +0.012 C 
ATOM     22  C   UNL     1      -5.022   2.629  25.087  0.00  0.00    +0.225 C 
ATOM     23  O   UNL     1      -5.049   3.437  24.921  0.00  0.00    -0.275 OA
ENDROOT
BRANCH  22  24
ATOM     24  C   UNL     1      -5.690   2.246  25.385  0.00  0.00    +0.069 C 
ATOM     25  C   UNL     1      -6.357   1.864  25.684  0.00  0.00    +0.009 C 
ATOM     26  C   UNL     1      -5.467   2.456  26.152  0.00  0.00    +0.009 C 
ATOM     27  C   UNL     1      -5.912   2.037  24.619  0.00  0.00    +0.009 C 
ENDBRANCH  22  24
BRANCH   3   2
ATOM      1  C   UNL     1      -4.073  -0.358  24.749  0.00  0.00    +0.000 C 
ATOM      2  C   UNL     1      -3.580   0.163  25.156  0.00  0.00    +0.002 C 
ENDBRANCH   3   2
BRANCH   8   9
ATOM      9  C   UNL     1      -2.244   0.927  24.561  0.00  0.00    +0.085 C 
BRANCH   9  10
ATOM     10  C   UNL     1      -1.511   1.294  24.658  0.00  0.00    +0.226 C 
ATOM     11  O   UNL     1      -1.438   1.944  25.160  0.00  0.00    -0.275 OA
ATOM     12  N   UNL     1      -0.851   1.009  24.254  0.00  0.00    -0.280 N 
ATOM     13  C   UNL     1      -0.119   1.376  24.351  0.00  0.00    +0.094 C 
ATOM     14  C   UNL     1       0.542   1.091  23.946  0.00  0.00    +0.033 C 
ATOM     15  C   UNL     1       0.469   0.440  23.444  0.00  0.00    +0.102 C 
ATOM     16  C   UNL     1      -0.264   0.074  23.347  0.00  0.00    +0.033 C 
ATOM     17  C   UNL     1      -0.924   0.358  23.752  0.00  0.00    +0.094 C 
BRANCH  15  18
ATOM     18  C   UNL     1       1.129   0.156  23.040  0.00  0.00    +0.317 C 
ATOM     19  O   UNL     1       1.067  -0.520  22.571  0.00  0.00    -0.250 OA
BRANCH  18  20
ATOM     20  O   UNL     1       1.853   0.548  23.104  0.00  0.00    -0.444 OA
ATOM     21  C   UNL     1       2.510   0.271  22.689  0.00  0.00    +0.256 C 
ENDBRANCH  18  20
ENDBRANCH  15  18
ENDBRANCH   9  10
ENDBRANCH   8   9
TORSDOF 6
ENDMDL
MODEL 4
REMARK VINA RESULT:      -8.4      2.328      3.013
REMARK  Name = 
REMARK  6 active torsions:
REMARK  status: ('A' for Active; 'I' for Inactive)
REMARK    1  A    between atoms: C_2  and  C_3
REMARK    2  A    between atoms: C_8  and  C_9
REMARK    3  A    between atoms: C_9  and  C_10
REMARK    4  A    between atoms: C_15  and  C_18
REMARK    5  A    between atoms: C_18  and  O_20
REMARK    6  A    between atoms: C_22  and  C_24
REMARK                            x       y       z     vdW  Elec       q    Type
REMARK                         _______ _______ _______ _____ _____    ______ ____
ROOT
ATOM      3  C   UNL     1      -3.059  -0.668  24.560  0.00  0.00    +0.020 C 
ATOM      4  C   UNL     1      -2.353  -1.089  24.635  0.00  0.00    +0.093 C 
ATOM      5  N   UNL     1      -1.632  -0.711  24.507  0.00  0.00    -0.280 N 
ATOM      6  C   UNL     1      -1.615   0.088  24.302  0.00  0.00    +0.093 C 
ATOM      7  C   UNL     1      -2.320   0.508  24.226  0.00  0.00    +0.022 C 
ATOM      8  C   UNL     1      -3.041   0.131  24.355  0.00  0.00    +0.012 C 
ATOM     22  C   UNL     1      -0.926  -1.133  24.582  0.00  0.00    +0.225 C 
ATOM     23  O   UNL     1      -0.204  -0.755  24.453  0.00  0.00    -0.275 OA
ENDROOT
BRANCH  22  24
ATOM     24  C   UNL     1      -0.943  -1.932  24.787  0.00  0.00    +0.069 C 
ATOM     25  C   UNL     1      -0.961  -2.731  24.991  0.00  0.00    +0.009 C 
ATOM     26  C   UNL     1      -1.002  -2.134  23.989  0.00  0.00    +0.009 C 
ATOM     27  C   UNL     1      -0.885  -1.729  25.584  0.00  0.00    +0.009 C 
ENDBRANCH  22  24
BRANCH   3   2
ATOM      1  C   UNL     1      -4.019  -1.660  24.193  0.00  0.00    +0.000 C 
ATOM      2  C   UNL     1      -3.781  -1.046  24.689  0.00  0.00    +0.002 C 
ENDBRANCH   3   2
BRANCH   8   9
ATOM      9  C   UNL     1      -3.747   0.552  24.279  0.00  0.00    +0.085 C 
BRANCH   9  10
ATOM     10  C   UNL     1      -3.733   1.341  24.034  0.00  0.00    +0.226 C 
ATOM     11  O   UNL     1      -3.250   1.569  23.407  0.00  0.00    -0.275 OA
ATOM     12  N   UNL     1      -4.202   1.900  24.418  0.00  0.00    -0.280 N 
ATOM     13  C   UNL     1      -4.187   2.687  24.174  0.00  0.00    +0.094 C 
ATOM     14  C   UNL     1      -4.657   3.247  24.558  0.00  0.00    +0.033 C 
ATOM     15  C   UNL     1      -5.141   3.019  25.186  0.00  0.00    +0.102 C 
ATOM     16  C   UNL     1      -5.155   2.231  25.430  0.00  0.00    +0.033 C 
ATOM     17  C   UNL     1      -4.686   1.672  25.047  0.00  0.00    +0.094 C 
BRANCH  15  18
ATOM     18  C   UNL     1      -5.610   3.578  25.569  0.00  0.00    +0.317 C 
ATOM     19  O   UNL     1      -6.112   3.347  26.181  0.00  0.00    -0.250 OA
BRANCH  18  20
ATOM     20  O   UNL     1      -5.577   4.371  25.341  0.00  0.00    -0.444 OA
ATOM     21  C   UNL     1      -6.089   4.920  25.682  0.00  0.00    +0.256 C 
ENDBRANCH  18  20
ENDBRANCH  15  18
ENDBRANCH   9  10
ENDBRANCH   8   9
TORSDOF 6
ENDMDL
