MODEL 1
REMARK VINA RESULT:      -9.3      0.000      0.000
REMARK  Name = 
REMARK  4 active torsions:
REMARK  status: ('A' for Active; 'I' for Inactive)
REMARK    1  A    between atoms: O_2  and  C_3
REMARK    2  A    between atoms: C_3  and  C_4
REMARK    3  A    between atoms: N_12  and  C_13
REMARK    4  A    between atoms: C_13  and  C_14
REMARK                            x       y       z     vdW  Elec       q    Type
REMARK                         _______ _______ _______ _____ _____    ______ ____
ROOT
ATOM      4  C   UNL     1      -1.828   3.247  24.803  0.00  0.00    +0.256 C 
ATOM      5  O   UNL     1      -1.126   2.904  24.538  0.00  0.00    -0.272 OA
ATOM      6  N   UNL     1      -2.518   2.794  24.846  0.00  0.00    -0.274 N 
ATOM      7  C   UNL     1      -3.220   3.136  25.112  0.00  0.00    +0.115 C 
ATOM      8  C   UNL     1      -3.908   2.684  25.155  0.00  0.00    +0.116 C 
ATOM      9  N   UNL     1      -3.895   1.890  24.932  0.00  0.00    -0.261 N 
ATOM     10  C   UNL     1      -3.193   1.548  24.667  0.00  0.00    +0.116 C 
ATOM     11  C   UNL     1      -3.346   0.758  24.487  0.00  0.00    +0.117 C 
ATOM     12  N   UNL     1      -4.143   0.611  24.640  0.00  0.00    -0.257 N 
ATOM     20  C   UNL     1      -4.482   1.311  24.916  0.00  0.00    +0.308 C 
ATOM     21  O   UNL     1      -5.270   1.414  25.136  0.00  0.00    -0.252 OA
ATOM     22  C   UNL     1      -2.503   2.000  24.624  0.00  0.00    +0.115 C 
ENDROOT
BRANCH   4   3
ATOM      3  C   UNL     1      -1.842   4.041  25.025  0.00  0.00    +0.227 C 
BRANCH   3   2
ATOM      1  C   UNL     1      -1.180   5.307  25.047  0.00  0.00    +0.175 C 
ATOM      2  O   UNL     1      -1.145   4.483  25.020  0.00  0.00    -0.342 OA
ENDBRANCH   3   2
ENDBRANCH   4   3
BRANCH  12  13
ATOM     13  C   UNL     1      -4.533  -0.108  24.537  0.00  0.00    +0.141 C 
BRANCH  13  14
ATOM     14  C   UNL     1      -4.133  -0.817  24.668  0.00  0.00    +0.079 A 
ATOM     15  N   UNL     1      -3.881  -1.015  25.428  0.00  0.00    -0.246 NA
ATOM     16  C   UNL     1      -3.480  -1.725  25.558  0.00  0.00    +0.099 A 
ATOM     17  C   UNL     1      -3.332  -2.236  24.928  0.00  0.00    +0.021 A 
ATOM     18  C   UNL     1      -3.583  -2.038  24.168  0.00  0.00    +0.003 A 
ATOM     19  C   UNL     1      -3.984  -1.329  24.037  0.00  0.00    +0.016 A 
ENDBRANCH  13  14
ENDBRANCH  12  13
TORSDOF 4
ENDMDL
MODEL 2
REMARK VINA RESULT:      -8.7      1.530      4.567
REMARK  Name = 
REMARK  4 active torsions:
REMARK  status: ('A' for Active; 'I' for Inactive)
REMARK    1  A    between atoms: O_2  and  C_3
REMARK    2  A    between atoms: C_3  and  C_4
REMARK    3  A    between atoms: N_12  and  C_13
REMARK    4  A    between atoms: C_13  and  C_14
REMARK                            x       y       z     vdW  Elec       q    Type
REMARK                         _______ _______ _______ _____ _____    ______ ____
ROOT
ATOM      4  C   UNL     1      -3.037  -1.033  24.596  0.00  0.00    +0.256 C 
ATOM      5  O   UNL     1      -2.215  -1.025  24.529  0.00  0.00    -0.272 OA
ATOM      6  N   UNL     1      -3.457  -0.322  24.618  0.00  0.00    -0.274 N 
ATOM      7  C   UNL     1      -4.279  -0.330  24.685  0.00  0.00    +0.115 C 
ATOM      8  C   UNL     1      -4.698   0.379  24.707  0.00  0.00    +0.116 C 
ATOM      9  N   UNL     1      -4.295   1.098  24.662  0.00  0.00    -0.261 N 
ATOM     10  C   UNL     1      -3.473   1.107  24.595  0.00  0.00    +0.116 C 
ATOM     11  C   UNL     1      -3.228   1.893  24.562  0.00  0.00    +0.117 C 
ATOM     12  N   UNL     1      -3.898   2.371  24.608  0.00  0.00    -0.257 N 
ATOM     20  C   UNL     1      -4.557   1.880  24.670  0.00  0.00    +0.308 C 
ATOM     21  O   UNL     1      -5.342   2.127  24.730  0.00  0.00    -0.252 OA
ATOM     22  C   UNL     1      -3.053   0.396  24.573  0.00  0.00    +0.115 C 
ENDROOT
BRANCH   4   3
ATOM      3  C   UNL     1      -3.441  -1.751  24.641  0.00  0.00    +0.227 C 
BRANCH   3   2
ATOM      1  C   UNL     1      -3.439  -3.175  24.525  0.00  0.00    +0.175 C 
ATOM      2  O   UNL     1      -3.027  -2.462  24.566  0.00  0.00    -0.342 OA
ENDBRANCH   3   2
ENDBRANCH   4   3
BRANCH  12  13
ATOM     13  C   UNL     1      -3.907   3.196  24.595  0.00  0.00    +0.141 C 
BRANCH  13  14
ATOM     14  C   UNL     1      -3.327   3.622  24.997  0.00  0.00    +0.079 A 
ATOM     15  N   UNL     1      -2.636   3.849  24.608  0.00  0.00    -0.246 NA
ATOM     16  C   UNL     1      -2.056   4.276  25.012  0.00  0.00    +0.099 A 
ATOM     17  C   UNL     1      -2.167   4.475  25.804  0.00  0.00    +0.021 A 
ATOM     18  C   UNL     1      -2.857   4.247  26.194  0.00  0.00    +0.003 A 
ATOM     19  C   UNL     1      -3.438   3.821  25.791  0.00  0.00    +0.016 A 
ENDBRANCH  13  14
ENDBRANCH  12  13
TORSDOF 4
ENDMDL
MODEL 3
REMARK VINA RESULT:      -8.4      1.520      4.970
REMARK  Name = 
REMARK  4 active torsions:
REMARK  status: ('A' for Active; 'I' for Inactive)
REMARK    1  A    between atoms: O_2  and  C_3
REMARK    2  A    between atoms: C_3  and  C_4
REMARK    3  A    between atoms: N_12  and  C_13
REMARK    4  A    between atoms: C_13  and  C_14
REMARK                            x       y       z     vdW  Elec       q    Type
REMARK                         _______ _______ _______ _____ _____    ______ ____
ROOT
ATOM      4  C   UNL     1      -3.634  -0.282  24.362  0.00  0.00    +0.256 C 
ATOM      5  O   UNL     1      -4.350   0.127  24.389  0.00  0.00    -0.272 OA
ATOM      6  N   UNL     1      -2.935   0.092  24.591  0.00  0.00    -0.274 N 
ATOM      7  C   UNL     1      -2.219  -0.318  24.564  0.00  0.00    +0.115 C 
ATOM      8  C   UNL     1      -1.521   0.057  24.793  0.00  0.00    +0.116 C 
ATOM      9  N   UNL     1      -1.538   0.841  25.050  0.00  0.00    -0.261 N 
ATOM     10  C   UNL     1      -2.253   1.250  25.077  0.00  0.00    +0.116 C 
ATOM     11  C   UNL     1      -2.101   2.012  25.353  0.00  0.00    +0.117 C 
ATOM     12  N   UNL     1      -1.291   2.074  25.496  0.00  0.00    -0.257 N 
ATOM     20  C   UNL     1      -0.944   1.350  25.308  0.00  0.00    +0.308 C 
ATOM     21  O   UNL     1      -0.141   1.167  25.369  0.00  0.00    -0.252 OA
ATOM     22  C   UNL     1      -2.953   0.876  24.848  0.00  0.00    +0.115 C 
ENDROOT
BRANCH   4   3
ATOM      3  C   UNL     1      -3.616  -1.066  24.105  0.00  0.00    +0.227 C 
BRANCH   3   2
ATOM      1  C   UNL     1      -4.316  -2.264  23.763  0.00  0.00    +0.175 C 
ATOM      2  O   UNL     1      -4.320  -1.453  23.914  0.00  0.00    -0.342 OA
ENDBRANCH   3   2
ENDBRANCH   4   3
BRANCH  12  13
ATOM     13  C   UNL     1      -0.897   2.743  25.776  0.00  0.00    +0.141 C 
BRANCH  13  14
ATOM     14  C   UNL     1      -1.146   3.495  25.547  0.00  0.00    +0.079 A 
ATOM     15  N   UNL     1      -1.817   3.831  25.889  0.00  0.00    -0.246 NA
ATOM     16  C   UNL     1      -2.065   4.583  25.658  0.00  0.00    +0.099 A 
ATOM     17  C   UNL     1      -1.641   5.000  25.086  0.00  0.00    +0.021 A 
ATOM     18  C   UNL     1      -0.970   4.664  24.744  0.00  0.00    +0.003 A 
ATOM     19  C   UNL     1      -0.722   3.912  24.974  0.00  0.00    +0.016 A 
ENDBRANCH  13  14
ENDBRANCH  12  13
TORSDOF 4
ENDMDL
MODEL 4
REMARK VINA RESULT:      -8.3      1.581      2.295
REMARK  Name = 
REMARK  4 active torsions:
REMARK  status: ('A' for Active; 'I' for Inactive)
REMARK    1  A    between atoms: O_2  and  C_3
REMARK    2  A    between atoms: C_3  and  C_4
REMARK    3  A    between atoms: N_12  and  C_13
REMARK    4  A    between atoms: C_13  and  C_14
REMARK                            x       y       z     vdW  Elec       q    Type
REMARK                         _______ _______ _______ _____ _____    ______ ____
ROOT
ATOM      4  C   UNL     1      -1.848   3.229  25.191  0.00  0.00    +0.256 C 
ATOM      5  O   UNL     1      -2.603   3.315  25.514  0.00  0.00    -0.272 OA
ATOM      6  N   UNL     1      -1.556   2.477  25.017  0.00  0.00    -0.274 N 
ATOM      7  C   UNL     1      -0.802   2.392  24.694  0.00  0.00    +0.115 C 
ATOM      8  C   UNL     1      -0.510   1.640  24.520  0.00  0.00    +0.116 C 
ATOM      9  N   UNL     1      -0.973   0.973  24.669  0.00  0.00    -0.261 N 
ATOM     10  C   UNL     1      -1.727   1.059  24.991  0.00  0.00    +0.116 C 
ATOM     11  C   UNL     1      -2.055   0.307  25.077  0.00  0.00    +0.117 C 
ATOM     12  N   UNL     1      -1.503  -0.244  24.808  0.00  0.00    -0.257 N 
ATOM     20  C   UNL     1      -0.835   0.169  24.556  0.00  0.00    +0.308 C 
ATOM     21  O   UNL     1      -0.147  -0.166  24.244  0.00  0.00    -0.252 OA
ATOM     22  C   UNL     1      -2.019   1.811  25.166  0.00  0.00    +0.115 C 
ENDROOT
BRANCH   4   3
ATOM      3  C   UNL     1      -1.385   3.895  25.042  0.00  0.00    +0.227 C 
BRANCH   3   2
ATOM      1  C   UNL     1      -1.233   5.316  25.040  0.00  0.00    +0.175 C 
ATOM      2  O   UNL     1      -1.658   4.644  25.258  0.00  0.00    -0.342 OA
ENDBRANCH   3   2
ENDBRANCH   4   3
BRANCH  12  13
ATOM     13  C   UNL     1      -1.602  -1.063  24.793  0.00  0.00    +0.141 C 
BRANCH  13  14
ATOM     14  C   UNL     1      -2.360  -1.387  24.765  0.00  0.00    +0.079 A 
ATOM     15  N   UNL     1      -2.768  -1.419  24.049  0.00  0.00    -0.246 NA
ATOM     16  C   UNL     1      -3.527  -1.744  24.022  0.00  0.00    +0.099 A 
ATOM     17  C   UNL     1      -3.876  -2.035  24.709  0.00  0.00    +0.021 A 
ATOM     18  C   UNL     1      -3.467  -2.002  25.425  0.00  0.00    +0.003 A 
ATOM     19  C   UNL     1      -2.709  -1.678  25.454  0.00  0.00    +0.016 A 
ENDBRANCH  13  14
ENDBRANCH  12  13
TORSDOF 4
ENDMDL
MODEL 5
REMARK VINA RESULT:      -8.2      2.598      3.534
REMARK  Name = 
REMARK  4 active torsions:
REMARK  status: ('A' for Active; 'I' for Inactive)
REMARK    1  A    between atoms: O_2  and  C_3
REMARK    2  A    between atoms: C_3  and  C_4
REMARK    3  A    between atoms: N_12  and  C_13
REMARK    4  A    between atoms: C_13  and  C_14
REMARK                            x       y       z     vdW  Elec       q    Type
REMARK                         _______ _______ _______ _____ _____    ______ ____
ROOT
ATOM      4  C   UNL     1      -0.835   0.753  24.224  0.00  0.00    +0.256 C 
ATOM      5  O   UNL     1      -0.759   0.472  24.996  0.00  0.00    -0.272 OA
ATOM      6  N   UNL     1      -1.468   1.244  24.023  0.00  0.00    -0.274 N 
ATOM      7  C   UNL     1      -1.545   1.525  23.251  0.00  0.00    +0.115 C 
ATOM      8  C   UNL     1      -2.176   2.015  23.052  0.00  0.00    +0.116 C 
ATOM      9  N   UNL     1      -2.733   2.226  23.624  0.00  0.00    -0.261 N 
ATOM     10  C   UNL     1      -2.656   1.945  24.396  0.00  0.00    +0.116 C 
ATOM     11  C   UNL     1      -3.285   2.243  24.839  0.00  0.00    +0.117 C 
ATOM     12  N   UNL     1      -3.750   2.708  24.341  0.00  0.00    -0.257 N 
ATOM     20  C   UNL     1      -3.408   2.697  23.590  0.00  0.00    +0.308 C 
ATOM     21  O   UNL     1      -3.693   3.089  22.922  0.00  0.00    -0.252 OA
ATOM     22  C   UNL     1      -2.023   1.454  24.596  0.00  0.00    +0.115 C 
ENDROOT
BRANCH   4   3
ATOM      3  C   UNL     1      -0.280   0.543  23.651  0.00  0.00    +0.227 C 
BRANCH   3   2
ATOM      1  C   UNL     1       0.852  -0.233  23.252  0.00  0.00    +0.175 C 
ATOM      2  O   UNL     1       0.275  -0.047  23.812  0.00  0.00    -0.342 OA
ENDBRANCH   3   2
ENDBRANCH   4   3
BRANCH  12  13
ATOM     13  C   UNL     1      -4.436   3.113  24.556  0.00  0.00    +0.141 C 
BRANCH  13  14
ATOM     14  C   UNL     1      -5.022   2.729  24.992  0.00  0.00    +0.079 A 
ATOM     15  N   UNL     1      -5.494   2.155  24.633  0.00  0.00    -0.246 NA
ATOM     16  C   UNL     1      -6.080   1.772  25.070  0.00  0.00    +0.099 A 
ATOM     17  C   UNL     1      -6.195   1.963  25.864  0.00  0.00    +0.021 A 
ATOM     18  C   UNL     1      -5.723   2.537  26.222  0.00  0.00    +0.003 A 
ATOM     19  C   UNL     1      -5.136   2.921  25.787  0.00  0.00    +0.016 A 
ENDBRANCH  13  14
ENDBRANCH  12  13
TORSDOF 4
ENDMDL
MODEL 6
REMARK VINA RESULT:      -8.2      1.604      2.513
REMARK  Name = 
REMARK  4 active torsions:
REMARK  status: ('A' for Active; 'I' for Inactive)
REMARK    1  A    between atoms: O_2  and  C_3
REMARK    2  A    between atoms: C_3  and  C_4
REMARK    3  A    between atoms: N_12  and  C_13
REMARK    4  A    between atoms: C_13  and  C_14
REMARK                            x       y       z     vdW  Elec       q    Type
REMARK                         _______ _______ _______ _____ _____    ______ ____
ROOT
ATOM      4  C   UNL     1      -5.352   2.597  25.361  0.00  0.00    +0.256 C 
ATOM      5  O   UNL     1      -6.070   2.210  25.488  0.00  0.00    -0.272 OA
ATOM      6  N   UNL     1      -4.698   2.176  25.086  0.00  0.00    -0.274 N 
ATOM      7  C   UNL     1      -3.981   2.563  24.959  0.00  0.00    +0.115 C 
ATOM      8  C   UNL     1      -3.328   2.142  24.684  0.00  0.00    +0.116 C 
ATOM      9  N   UNL     1      -3.391   1.332  24.535  0.00  0.00    -0.261 N 
ATOM     10  C   UNL     1      -4.108   0.945  24.662  0.00  0.00    +0.116 C 
ATOM     11  C   UNL     1      -4.006   0.150  24.469  0.00  0.00    +0.117 C 
ATOM     12  N   UNL     1      -3.226   0.045  24.223  0.00  0.00    -0.257 N 
ATOM     20  C   UNL     1      -2.846   0.776  24.264  0.00  0.00    +0.308 C 
ATOM     21  O   UNL     1      -2.059   0.925  24.068  0.00  0.00    -0.252 OA
ATOM     22  C   UNL     1      -4.762   1.367  24.937  0.00  0.00    +0.115 C 
ENDROOT
BRANCH   4   3
ATOM      3  C   UNL     1      -5.288   3.406  25.509  0.00  0.00    +0.227 C 
BRANCH   3   2
ATOM      1  C   UNL     1      -5.943   4.665  25.676  0.00  0.00    +0.175 C 
ATOM      2  O   UNL     1      -5.958   3.841  25.718  0.00  0.00    -0.342 OA
ENDBRANCH   3   2
ENDBRANCH   4   3
BRANCH  12  13
ATOM     13  C   UNL     1      -2.886  -0.665  23.978  0.00  0.00    +0.141 C 
BRANCH  13  14
ATOM     14  C   UNL     1      -3.123  -1.377  24.322  0.00  0.00    +0.079 A 
ATOM     15  N   UNL     1      -2.808  -1.611  25.047  0.00  0.00    -0.246 NA
ATOM     16  C   UNL     1      -3.046  -2.323  25.389  0.00  0.00    +0.099 A 
ATOM     17  C   UNL     1      -3.599  -2.800  25.007  0.00  0.00    +0.021 A 
ATOM     18  C   UNL     1      -3.914  -2.566  24.282  0.00  0.00    +0.003 A 
ATOM     19  C   UNL     1      -3.677  -1.854  23.938  0.00  0.00    +0.016 A 
ENDBRANCH  13  14
ENDBRANCH  12  13
TORSDOF 4
ENDMDL
MODEL 7
REMARK VINA RESULT:      -6.1     15.151     17.309
REMARK  Name = 
REMARK  4 active torsions:
REMARK  status: ('A' for Active; 'I' for Inactive)
REMARK    1  A    between atoms: O_2  and  C_3
REMARK    2  A    between atoms: C_3  and  C_4
REMARK    3  A    between atoms: N_12  and  C_13
REMARK    4  A    between atoms: C_13  and  C_14
REMARK                            x       y       z     vdW  Elec       q    Type
REMARK                         _______ _______ _______ _____ _____    ______ ____
ROOT
ATOM      4  C   UNL     1      -4.654 -10.535  14.797  0.00  0.00    +0.256 C 
ATOM      5  O   UNL     1      -5.452 -10.477  14.597  0.00  0.00    -0.272 OA
ATOM      6  N   UNL     1      -4.080 -10.555  14.204  0.00  0.00    -0.274 N 
ATOM      7  C   UNL     1      -3.281 -10.612  14.403  0.00  0.00    +0.115 C 
ATOM      8  C   UNL     1      -2.709 -10.633  13.810  0.00  0.00    +0.116 C 
ATOM      9  N   UNL     1      -2.934 -10.596  13.017  0.00  0.00    -0.261 N 
ATOM     10  C   UNL     1      -3.732 -10.539  12.818  0.00  0.00    +0.116 C 
ATOM     11  C   UNL     1      -3.788 -10.513  11.995  0.00  0.00    +0.117 C 
ATOM     12  N   UNL     1      -3.025 -10.554  11.686  0.00  0.00    -0.257 N 
ATOM     20  C   UNL     1      -2.497 -10.605  12.318  0.00  0.00    +0.308 C 
ATOM     21  O   UNL     1      -1.675 -10.657  12.261  0.00  0.00    -0.252 OA
ATOM     22  C   UNL     1      -4.306 -10.519  13.411  0.00  0.00    +0.115 C 
ENDROOT
BRANCH   4   3
ATOM      3  C   UNL     1      -4.428 -10.571  15.589  0.00  0.00    +0.227 C 
BRANCH   3   2
ATOM      1  C   UNL     1      -4.762 -10.485  16.976  0.00  0.00    +0.175 C 
ATOM      2  O   UNL     1      -4.992 -10.473  16.184  0.00  0.00    -0.342 OA
ENDBRANCH   3   2
ENDBRANCH   4   3
BRANCH  12  13
ATOM     13  C   UNL     1      -2.824 -10.544  10.886  0.00  0.00    +0.141 C 
BRANCH  13  14
ATOM     14  C   UNL     1      -3.291 -10.129  10.348  0.00  0.00    +0.079 A 
ATOM     15  N   UNL     1      -3.887 -10.519   9.932  0.00  0.00    -0.246 NA
ATOM     16  C   UNL     1      -4.354 -10.102   9.394  0.00  0.00    +0.099 A 
ATOM     17  C   UNL     1      -4.225  -9.297   9.272  0.00  0.00    +0.021 A 
ATOM     18  C   UNL     1      -3.629  -8.907   9.688  0.00  0.00    +0.003 A 
ATOM     19  C   UNL     1      -3.161  -9.323  10.226  0.00  0.00    +0.016 A 
ENDBRANCH  13  14
ENDBRANCH  12  13
TORSDOF 4
ENDMDL
