MODEL 1
REMARK VINA RESULT:     -11.1      0.000      0.000
REMARK  Name = 
REMARK  7 active torsions:
REMARK  status: ('A' for Active; 'I' for Inactive)
REMARK    1  A    between atoms: C_2  and  C_5
REMARK    2  A    between atoms: C_5  and  C_6
REMARK    3  A    between atoms: N_8  and  C_9
REMARK    4  A    between atoms: C_9  and  C_10
REMARK    5  A    between atoms: C_13  and  N_14
REMARK    6  A    between atoms: N_14  and  C_15
REMARK    7  A    between atoms: C_15  and  C_16
REMARK                            x       y       z     vdW  Elec       q    Type
REMARK                         _______ _______ _______ _____ _____    ______ ____
ROOT
ATOM     10  C   UNL     1      -3.788   2.111  24.651  0.00  0.00    +0.169 C 
ATOM     11  O   UNL     1      -4.394   1.946  25.185  0.00  0.00    -0.350 OA
ATOM     12  C   UNL     1      -4.563   1.140  25.139  0.00  0.00    +0.162 C 
ATOM     13  C   UNL     1      -4.060   0.807  24.576  0.00  0.00    +0.135 C 
ATOM     23  C   UNL     1      -3.581   1.406  24.275  0.00  0.00    +0.199 C 
ATOM     24  O   UNL     1      -2.998   1.318  23.698  0.00  0.00    -0.219 OA
ENDROOT
BRANCH  10   9
ATOM      9  C   UNL     1      -3.448   2.850  24.517  0.00  0.00    +0.147 C 
BRANCH   9   8
ATOM      6  C   UNL     1      -2.589   3.912  24.939  0.00  0.00    +0.241 C 
ATOM      7  O   UNL     1      -2.823   4.360  24.287  0.00  0.00    -0.273 OA
ATOM      8  N   UNL     1      -2.902   3.157  25.054  0.00  0.00    -0.203 NA
BRANCH   6   5
ATOM      5  C   UNL     1      -2.044   4.219  25.477  0.00  0.00    +0.087 C 
BRANCH   5   2
ATOM      1  C   UNL     1      -0.808   5.173  24.944  0.00  0.00    +0.000 C 
ATOM      2  C   UNL     1      -1.426   4.696  25.210  0.00  0.00    +0.009 C 
ATOM      3  C   UNL     1      -1.916   5.358  25.259  0.00  0.00    +0.000 C 
ATOM      4  C   UNL     1      -0.935   4.034  25.162  0.00  0.00    +0.000 C 
ENDBRANCH   5   2
ENDBRANCH   6   5
ENDBRANCH   9   8
ENDBRANCH  10   9
BRANCH  13  14
ATOM     14  N   UNL     1      -4.040   0.012  24.354  0.00  0.00    -0.209 NA
BRANCH  14  15
ATOM     15  C   UNL     1      -4.060  -0.578  24.931  0.00  0.00    +0.117 C 
BRANCH  15  16
ATOM     16  C   UNL     1      -3.939  -1.366  24.719  0.00  0.00    +0.023 A 
ATOM     17  C   UNL     1      -4.243  -1.652  24.006  0.00  0.00    -0.001 A 
ATOM     18  C   UNL     1      -4.122  -2.440  23.794  0.00  0.00    -0.000 A 
ATOM     19  C   UNL     1      -3.697  -2.942  24.293  0.00  0.00    +0.002 A 
ATOM     20  C   UNL     1      -3.394  -2.655  25.005  0.00  0.00    +0.029 A 
ATOM     21  C   UNL     1      -3.515  -1.867  25.217  0.00  0.00    +0.137 A 
ATOM     22  F   UNL     1      -3.211  -1.581  25.929  0.00  0.00    -0.204 F 
ENDBRANCH  15  16
ENDBRANCH  14  15
ENDBRANCH  13  14
TORSDOF 7
ENDMDL
MODEL 2
REMARK VINA RESULT:     -10.5      2.016      5.851
REMARK  Name = 
REMARK  7 active torsions:
REMARK  status: ('A' for Active; 'I' for Inactive)
REMARK    1  A    between atoms: C_2  and  C_5
REMARK    2  A    between atoms: C_5  and  C_6
REMARK    3  A    between atoms: N_8  and  C_9
REMARK    4  A    between atoms: C_9  and  C_10
REMARK    5  A    between atoms: C_13  and  N_14
REMARK    6  A    between atoms: N_14  and  C_15
REMARK    7  A    between atoms: C_15  and  C_16
REMARK                            x       y       z     vdW  Elec       q    Type
REMARK                         _______ _______ _______ _____ _____    ______ ____
ROOT
ATOM     10  C   UNL     1      -1.417   0.331  24.977  0.00  0.00    +0.169 C 
ATOM     11  O   UNL     1      -1.099   0.451  25.728  0.00  0.00    -0.350 OA
ATOM     12  C   UNL     1      -0.928   1.253  25.807  0.00  0.00    +0.162 C 
ATOM     13  C   UNL     1      -1.141   1.630  25.105  0.00  0.00    +0.135 C 
ATOM     23  C   UNL     1      -1.443   1.060  24.591  0.00  0.00    +0.199 C 
ATOM     24  O   UNL     1      -1.722   1.195  23.827  0.00  0.00    -0.219 OA
ENDROOT
BRANCH  10   9
ATOM      9  C   UNL     1      -1.666  -0.391  24.665  0.00  0.00    +0.147 C 
BRANCH   9   8
ATOM      6  C   UNL     1      -2.588  -1.484  24.667  0.00  0.00    +0.241 C 
ATOM      7  O   UNL     1      -2.086  -1.908  24.169  0.00  0.00    -0.273 OA
ATOM      8  N   UNL     1      -2.378  -0.725  24.915  0.00  0.00    -0.203 NA
BRANCH   6   5
ATOM      5  C   UNL     1      -3.300  -1.817  24.917  0.00  0.00    +0.087 C 
BRANCH   5   2
ATOM      1  C   UNL     1      -4.193  -2.732  23.874  0.00  0.00    +0.000 C 
ATOM      2  C   UNL     1      -3.747  -2.274  24.396  0.00  0.00    +0.009 C 
ATOM      3  C   UNL     1      -4.118  -1.593  24.117  0.00  0.00    +0.000 C 
ATOM      4  C   UNL     1      -3.375  -2.956  24.675  0.00  0.00    +0.000 C 
ENDBRANCH   5   2
ENDBRANCH   6   5
ENDBRANCH   9   8
ENDBRANCH  10   9
BRANCH  13  14
ATOM     14  N   UNL     1      -1.064   2.436  24.944  0.00  0.00    -0.209 NA
BRANCH  14  15
ATOM     15  C   UNL     1      -1.287   2.993  25.511  0.00  0.00    +0.117 C 
BRANCH  15  16
ATOM     16  C   UNL     1      -1.279   3.796  25.325  0.00  0.00    +0.023 A 
ATOM     17  C   UNL     1      -0.643   4.117  24.908  0.00  0.00    -0.001 A 
ATOM     18  C   UNL     1      -0.636   4.920  24.722  0.00  0.00    -0.000 A 
ATOM     19  C   UNL     1      -1.264   5.404  24.952  0.00  0.00    +0.002 A 
ATOM     20  C   UNL     1      -1.899   5.082  25.369  0.00  0.00    +0.029 A 
ATOM     21  C   UNL     1      -1.907   4.279  25.555  0.00  0.00    +0.137 A 
ATOM     22  F   UNL     1      -2.543   3.958  25.972  0.00  0.00    -0.204 F 
ENDBRANCH  15  16
ENDBRANCH  14  15
ENDBRANCH  13  14
TORSDOF 7
ENDMDL
MODEL 3
REMARK VINA RESULT:     -10.2      1.244      1.505
REMARK  Name = 
REMARK  7 active torsions:
REMARK  status: ('A' for Active; 'I' for Inactive)
REMARK    1  A    between atoms: C_2  and  C_5
REMARK    2  A    between atoms: C_5  and  C_6
REMARK    3  A    between atoms: N_8  and  C_9
REMARK    4  A    between atoms: C_9  and  C_10
REMARK    5  A    between atoms: C_13  and  N_14
REMARK    6  A    between atoms: N_14  and  C_15
REMARK    7  A    between atoms: C_15  and  C_16
REMARK                            x       y       z     vdW  Elec       q    Type
REMARK                         _______ _______ _______ _____ _____    ______ ____
ROOT
ATOM     10  C   UNL     1      -2.131   1.630  24.665  0.00  0.00    +0.169 C 
ATOM     11  O   UNL     1      -2.908   1.704  24.932  0.00  0.00    -0.350 OA
ATOM     12  C   UNL     1      -3.241   0.950  24.960  0.00  0.00    +0.162 C 
ATOM     13  C   UNL     1      -2.670   0.410  24.710  0.00  0.00    +0.135 C 
ATOM     23  C   UNL     1      -1.984   0.830  24.527  0.00  0.00    +0.199 C 
ATOM     24  O   UNL     1      -1.276   0.507  24.256  0.00  0.00    -0.219 OA
ENDROOT
BRANCH  10   9
ATOM      9  C   UNL     1      -1.596   2.248  24.554  0.00  0.00    +0.147 C 
BRANCH   9   8
ATOM      6  C   UNL     1      -1.140   3.559  24.893  0.00  0.00    +0.241 C 
ATOM      7  O   UNL     1      -0.667   3.570  24.218  0.00  0.00    -0.273 OA
ATOM      8  N   UNL     1      -1.605   2.897  25.061  0.00  0.00    -0.203 NA
BRANCH   6   5
ATOM      5  C   UNL     1      -1.149   4.209  25.401  0.00  0.00    +0.087 C 
BRANCH   5   2
ATOM      1  C   UNL     1      -1.370   5.727  24.794  0.00  0.00    +0.000 C 
ATOM      2  C   UNL     1      -1.260   4.968  25.098  0.00  0.00    +0.009 C 
ATOM      3  C   UNL     1      -0.480   4.974  24.828  0.00  0.00    +0.000 C 
ATOM      4  C   UNL     1      -2.040   4.962  25.367  0.00  0.00    +0.000 C 
ENDBRANCH   5   2
ENDBRANCH   6   5
ENDBRANCH   9   8
ENDBRANCH  10   9
BRANCH  13  14
ATOM     14  N   UNL     1      -2.768  -0.408  24.653  0.00  0.00    -0.209 NA
BRANCH  14  15
ATOM     15  C   UNL     1      -3.524  -0.728  24.568  0.00  0.00    +0.117 C 
BRANCH  15  16
ATOM     16  C   UNL     1      -3.621  -1.544  24.501  0.00  0.00    +0.023 A 
ATOM     17  C   UNL     1      -3.223  -2.050  25.018  0.00  0.00    -0.001 A 
ATOM     18  C   UNL     1      -3.320  -2.866  24.951  0.00  0.00    -0.000 A 
ATOM     19  C   UNL     1      -3.814  -3.177  24.368  0.00  0.00    +0.002 A 
ATOM     20  C   UNL     1      -4.211  -2.671  23.851  0.00  0.00    +0.029 A 
ATOM     21  C   UNL     1      -4.114  -1.855  23.918  0.00  0.00    +0.137 A 
ATOM     22  F   UNL     1      -4.511  -1.349  23.401  0.00  0.00    -0.204 F 
ENDBRANCH  15  16
ENDBRANCH  14  15
ENDBRANCH  13  14
TORSDOF 7
ENDMDL
