REMARK  Name = 
REMARK  2 active torsions:
REMARK  status: ('A' for Active; 'I' for Inactive)
REMARK    1  A    between atoms: C_4  and  C_5
REMARK    2  A    between atoms: C_5  and  N_6
REMARK                            x       y       z     vdW  Elec       q    Type
REMARK                         _______ _______ _______ _____ _____    ______ ____
ROOT
ATOM      1  C   UNL     1      -0.398   0.754   0.000  0.00  0.00    +0.130 C 
ATOM      2  N   UNL     1      -0.143  -0.030   0.000  0.00  0.00    -0.324 N 
ATOM      3  C   UNL     1      -0.628  -0.698   0.000  0.00  0.00    +0.073 A 
ATOM      4  C   UNL     1      -0.143  -1.365   0.000  0.00  0.00    +0.012 A 
ATOM     14  C   UNL     1       0.641  -1.110   0.000  0.00  0.00    +0.015 A 
ATOM     15  C   UNL     1       0.641  -0.285   0.000  0.00  0.00    +0.060 A 
ATOM     16  C   UNL     1       1.356   0.127   0.000  0.00  0.00    +0.017 A 
ATOM     17  C   UNL     1       2.070  -0.285   0.000  0.00  0.00    +0.001 A 
ATOM     18  C   UNL     1       2.070  -1.110   0.000  0.00  0.00    +0.000 A 
ATOM     19  C   UNL     1       1.356  -1.523   0.000  0.00  0.00    +0.001 A 
ENDROOT
BRANCH   4   5
ATOM      5  C   UNL     1      -0.398  -2.150   0.000  0.00  0.00    +0.101 C 
BRANCH   5   6
ATOM      6  N   UNL     1      -1.205  -2.321   0.000  0.00  0.00    -0.265 NA
ATOM      7  C   UNL     1      -1.401  -3.123   0.000  0.00  0.00    +0.105 C 
ATOM      8  C   UNL     1      -2.150  -3.470   0.000  0.00  0.00    +0.160 C 
ATOM      9  O   UNL     1      -2.887  -3.101   0.000  0.00  0.00    -0.350 OA
ATOM     10  C   UNL     1      -3.059  -2.294   0.000  0.00  0.00    +0.176 C 
ATOM     11  C   UNL     1      -2.535  -1.657   0.000  0.00  0.00    +0.197 C 
ATOM     12  O   UNL     1      -2.882  -0.908   0.000  0.00  0.00    -0.219 OA
ATOM     13  C   UNL     1      -1.710  -1.669   0.000  0.00  0.00    +0.108 C 
ENDBRANCH   5   6
ENDBRANCH   4   5
TORSDOF 2
