MODEL 1
REMARK VINA RESULT:     -11.4      0.000      0.000
REMARK  Name = 
REMARK  7 active torsions:
REMARK  status: ('A' for Active; 'I' for Inactive)
REMARK    1  A    between atoms: C_2  and  C_4
REMARK    2  A    between atoms: C_4  and  C_5
REMARK    3  A    between atoms: C_10  and  C_11
REMARK    4  A    between atoms: C_11  and  C_12
REMARK    5  A    between atoms: C_12  and  N_13
REMARK    6  A    between atoms: N_16  and  C_19
REMARK    7  A    between atoms: C_25  and  C_27
REMARK                            x       y       z     vdW  Elec       q    Type
REMARK                         _______ _______ _______ _____ _____    ______ ____
ROOT
ATOM      5  C   UNL     1      -4.023   3.422  25.236  0.00  0.00    +0.015 C 
ATOM      6  C   UNL     1      -3.908   4.197  25.494  0.00  0.00    +0.022 C 
ATOM      7  C   UNL     1      -3.149   4.520  25.507  0.00  0.00    +0.093 C 
ATOM      8  N   UNL     1      -2.504   4.066  25.261  0.00  0.00    -0.280 N 
ATOM      9  C   UNL     1      -2.619   3.291  25.003  0.00  0.00    +0.093 C 
ATOM     10  C   UNL     1      -3.378   2.969  24.990  0.00  0.00    +0.022 C 
ATOM     25  C   UNL     1      -1.745   4.388  25.274  0.00  0.00    +0.225 C 
ATOM     26  O   UNL     1      -1.629   5.163  25.533  0.00  0.00    -0.275 OA
ENDROOT
BRANCH  25  27
ATOM     27  C   UNL     1      -1.101   3.935  25.029  0.00  0.00    +0.077 C 
ATOM     28  C   UNL     1      -0.590   3.684  24.431  0.00  0.00    +0.010 C 
ATOM     29  C   UNL     1      -0.495   3.402  25.201  0.00  0.00    +0.010 C 
ENDBRANCH  25  27
BRANCH   5   4
ATOM      4  C   UNL     1      -4.783   3.099  25.223  0.00  0.00    +0.114 C 
BRANCH   4   2
ATOM      1  O   UNL     1      -5.537   3.094  26.437  0.00  0.00    -0.246 OA
ATOM      2  C   UNL     1      -5.376   3.422  25.697  0.00  0.00    +0.365 C 
ATOM      3  O   UNL     1      -5.808   4.073  25.432  0.00  0.00    -0.246 OA
ENDBRANCH   4   2
ENDBRANCH   5   4
BRANCH  10  11
ATOM     11  C   UNL     1      -3.494   2.194  24.732  0.00  0.00    +0.019 C 
BRANCH  11  12
ATOM     12  C   UNL     1      -2.896   1.634  24.826  0.00  0.00    +0.072 C 
BRANCH  12  13
ATOM     13  N   UNL     1      -3.059   0.833  24.711  0.00  0.00    -0.270 NA
ATOM     14  C   UNL     1      -3.083   0.321  25.358  0.00  0.00    +0.094 C 
ATOM     15  C   UNL     1      -3.245  -0.480  25.244  0.00  0.00    +0.108 C 
ATOM     16  N   UNL     1      -3.384  -0.769  24.483  0.00  0.00    -0.305 N 
ATOM     17  C   UNL     1      -3.360  -0.257  23.837  0.00  0.00    +0.108 C 
ATOM     18  C   UNL     1      -3.197   0.544  23.952  0.00  0.00    +0.094 C 
BRANCH  16  19
ATOM     19  C   UNL     1      -3.546  -1.570  24.370  0.00  0.00    +0.048 A 
ATOM     20  C   UNL     1      -3.067  -2.141  24.720  0.00  0.00    +0.015 A 
ATOM     21  C   UNL     1      -3.230  -2.943  24.607  0.00  0.00    +0.001 A 
ATOM     22  C   UNL     1      -3.872  -3.171  24.142  0.00  0.00    +0.000 A 
ATOM     23  C   UNL     1      -4.351  -2.599  23.792  0.00  0.00    +0.001 A 
ATOM     24  C   UNL     1      -4.189  -1.798  23.905  0.00  0.00    +0.015 A 
ENDBRANCH  16  19
ENDBRANCH  12  13
ENDBRANCH  11  12
ENDBRANCH  10  11
TORSDOF 7
ENDMDL
MODEL 2
REMARK VINA RESULT:     -10.1      0.796      2.730
REMARK  Name = 
REMARK  7 active torsions:
REMARK  status: ('A' for Active; 'I' for Inactive)
REMARK    1  A    between atoms: C_2  and  C_4
REMARK    2  A    between atoms: C_4  and  C_5
REMARK    3  A    between atoms: C_10  and  C_11
REMARK    4  A    between atoms: C_11  and  C_12
REMARK    5  A    between atoms: C_12  and  N_13
REMARK    6  A    between atoms: N_16  and  C_19
REMARK    7  A    between atoms: C_25  and  C_27
REMARK                            x       y       z     vdW  Elec       q    Type
REMARK                         _______ _______ _______ _____ _____    ______ ____
ROOT
ATOM      5  C   UNL     1      -2.901   3.506  25.090  0.00  0.00    +0.015 C 
ATOM      6  C   UNL     1      -3.302   4.211  25.238  0.00  0.00    +0.022 C 
ATOM      7  C   UNL     1      -4.113   4.201  25.392  0.00  0.00    +0.093 C 
ATOM      8  N   UNL     1      -4.523   3.484  25.397  0.00  0.00    -0.280 N 
ATOM      9  C   UNL     1      -4.122   2.779  25.248  0.00  0.00    +0.093 C 
ATOM     10  C   UNL     1      -3.312   2.789  25.095  0.00  0.00    +0.022 C 
ATOM     25  C   UNL     1      -5.333   3.474  25.550  0.00  0.00    +0.225 C 
ATOM     26  O   UNL     1      -5.734   4.180  25.698  0.00  0.00    -0.275 OA
ENDROOT
BRANCH  25  27
ATOM     27  C   UNL     1      -5.743   2.758  25.555  0.00  0.00    +0.077 C 
ATOM     28  C   UNL     1      -6.188   2.186  25.160  0.00  0.00    +0.010 C 
ATOM     29  C   UNL     1      -6.008   2.089  25.959  0.00  0.00    +0.010 C 
ENDBRANCH  25  27
BRANCH   5   4
ATOM      4  C   UNL     1      -2.091   3.515  24.936  0.00  0.00    +0.114 C 
BRANCH   4   2
ATOM      1  O   UNL     1      -1.499   4.816  24.910  0.00  0.00    -0.246 OA
ATOM      2  C   UNL     1      -1.612   4.090  25.285  0.00  0.00    +0.365 C 
ATOM      3  O   UNL     1      -1.246   3.939  26.009  0.00  0.00    -0.246 OA
ENDBRANCH   4   2
ENDBRANCH   5   4
BRANCH  10  11
ATOM     11  C   UNL     1      -2.910   2.083  24.947  0.00  0.00    +0.019 C 
BRANCH  11  12
ATOM     12  C   UNL     1      -3.100   1.632  24.284  0.00  0.00    +0.072 C 
BRANCH  12  13
ATOM     13  N   UNL     1      -3.076   0.808  24.324  0.00  0.00    -0.270 NA
ATOM     14  C   UNL     1      -3.528   0.356  23.802  0.00  0.00    +0.094 C 
ATOM     15  C   UNL     1      -3.505  -0.467  23.841  0.00  0.00    +0.108 C 
ATOM     16  N   UNL     1      -3.029  -0.840  24.403  0.00  0.00    -0.305 N 
ATOM     17  C   UNL     1      -2.576  -0.388  24.925  0.00  0.00    +0.108 C 
ATOM     18  C   UNL     1      -2.601   0.435  24.885  0.00  0.00    +0.094 C 
BRANCH  16  19
ATOM     19  C   UNL     1      -3.005  -1.663  24.443  0.00  0.00    +0.048 A 
ATOM     20  C   UNL     1      -3.706  -2.094  24.487  0.00  0.00    +0.015 A 
ATOM     21  C   UNL     1      -3.682  -2.919  24.526  0.00  0.00    +0.001 A 
ATOM     22  C   UNL     1      -2.956  -3.310  24.521  0.00  0.00    +0.000 A 
ATOM     23  C   UNL     1      -2.255  -2.879  24.477  0.00  0.00    +0.001 A 
ATOM     24  C   UNL     1      -2.279  -2.056  24.438  0.00  0.00    +0.015 A 
ENDBRANCH  16  19
ENDBRANCH  12  13
ENDBRANCH  11  12
ENDBRANCH  10  11
TORSDOF 7
ENDMDL
MODEL 3
REMARK VINA RESULT:     -10.1      1.207      2.702
REMARK  Name = 
REMARK  7 active torsions:
REMARK  status: ('A' for Active; 'I' for Inactive)
REMARK    1  A    between atoms: C_2  and  C_4
REMARK    2  A    between atoms: C_4  and  C_5
REMARK    3  A    between atoms: C_10  and  C_11
REMARK    4  A    between atoms: C_11  and  C_12
REMARK    5  A    between atoms: C_12  and  N_13
REMARK    6  A    between atoms: N_16  and  C_19
REMARK    7  A    between atoms: C_25  and  C_27
REMARK                            x       y       z     vdW  Elec       q    Type
REMARK                         _______ _______ _______ _____ _____    ______ ____
ROOT
ATOM      5  C   UNL     1      -1.067   2.645  25.585  0.00  0.00    +0.015 C 
ATOM      6  C   UNL     1      -0.887   3.441  25.698  0.00  0.00    +0.022 C 
ATOM      7  C   UNL     1      -1.477   4.013  25.626  0.00  0.00    +0.093 C 
ATOM      8  N   UNL     1      -2.249   3.787  25.439  0.00  0.00    -0.280 N 
ATOM      9  C   UNL     1      -2.429   2.990  25.326  0.00  0.00    +0.093 C 
ATOM     10  C   UNL     1      -1.839   2.419  25.398  0.00  0.00    +0.022 C 
ATOM     25  C   UNL     1      -2.840   4.358  25.367  0.00  0.00    +0.225 C 
ATOM     26  O   UNL     1      -2.660   5.156  25.480  0.00  0.00    -0.275 OA
ENDROOT
BRANCH  25  27
ATOM     27  C   UNL     1      -3.611   4.133  25.181  0.00  0.00    +0.077 C 
ATOM     28  C   UNL     1      -4.365   3.898  25.422  0.00  0.00    +0.010 C 
ATOM     29  C   UNL     1      -4.194   3.976  24.619  0.00  0.00    +0.010 C 
ENDBRANCH  25  27
BRANCH   5   4
ATOM      4  C   UNL     1      -0.476   2.073  25.657  0.00  0.00    +0.114 C 
BRANCH   4   2
ATOM      1  O   UNL     1       0.663   2.500  26.406  0.00  0.00    -0.246 OA
ATOM      2  C   UNL     1       0.316   2.301  25.685  0.00  0.00    +0.365 C 
ATOM      3  O   UNL     1       0.762   2.329  24.991  0.00  0.00    -0.246 OA
ENDBRANCH   4   2
ENDBRANCH   5   4
BRANCH  10  11
ATOM     11  C   UNL     1      -2.019   1.622  25.285  0.00  0.00    +0.019 C 
BRANCH  11  12
ATOM     12  C   UNL     1      -2.508   1.393  24.662  0.00  0.00    +0.072 C 
BRANCH  12  13
ATOM     13  N   UNL     1      -2.755   0.609  24.596  0.00  0.00    -0.270 NA
ATOM     14  C   UNL     1      -2.254   0.046  24.259  0.00  0.00    +0.094 C 
ATOM     15  C   UNL     1      -2.499  -0.738  24.193  0.00  0.00    +0.108 C 
ATOM     16  N   UNL     1      -3.246  -0.961  24.464  0.00  0.00    -0.305 N 
ATOM     17  C   UNL     1      -3.747  -0.399  24.801  0.00  0.00    +0.108 C 
ATOM     18  C   UNL     1      -3.501   0.386  24.867  0.00  0.00    +0.094 C 
BRANCH  16  19
ATOM     19  C   UNL     1      -3.491  -1.746  24.397  0.00  0.00    +0.048 A 
ATOM     20  C   UNL     1      -3.127  -2.331  24.848  0.00  0.00    +0.015 A 
ATOM     21  C   UNL     1      -3.372  -3.117  24.781  0.00  0.00    +0.001 A 
ATOM     22  C   UNL     1      -3.983  -3.315  24.263  0.00  0.00    +0.000 A 
ATOM     23  C   UNL     1      -4.347  -2.729  23.812  0.00  0.00    +0.001 A 
ATOM     24  C   UNL     1      -4.102  -1.944  23.879  0.00  0.00    +0.015 A 
ENDBRANCH  16  19
ENDBRANCH  12  13
ENDBRANCH  11  12
ENDBRANCH  10  11
TORSDOF 7
ENDMDL
MODEL 4
REMARK VINA RESULT:      -9.4      2.617      6.054
REMARK  Name = 
REMARK  7 active torsions:
REMARK  status: ('A' for Active; 'I' for Inactive)
REMARK    1  A    between atoms: C_2  and  C_4
REMARK    2  A    between atoms: C_4  and  C_5
REMARK    3  A    between atoms: C_10  and  C_11
REMARK    4  A    between atoms: C_11  and  C_12
REMARK    5  A    between atoms: C_12  and  N_13
REMARK    6  A    between atoms: N_16  and  C_19
REMARK    7  A    between atoms: C_25  and  C_27
REMARK                            x       y       z     vdW  Elec       q    Type
REMARK                         _______ _______ _______ _____ _____    ______ ____
ROOT
ATOM      5  C   UNL     1      -1.325  -1.358  24.952  0.00  0.00    +0.015 C 
ATOM      6  C   UNL     1      -1.510  -2.161  24.925  0.00  0.00    +0.022 C 
ATOM      7  C   UNL     1      -2.269  -2.402  24.708  0.00  0.00    +0.093 C 
ATOM      8  N   UNL     1      -2.843  -1.839  24.519  0.00  0.00    -0.280 N 
ATOM      9  C   UNL     1      -2.656  -1.035  24.546  0.00  0.00    +0.093 C 
ATOM     10  C   UNL     1      -1.898  -0.795  24.763  0.00  0.00    +0.022 C 
ATOM     25  C   UNL     1      -3.601  -2.079  24.302  0.00  0.00    +0.225 C 
ATOM     26  O   UNL     1      -3.787  -2.883  24.274  0.00  0.00    -0.275 OA
ENDROOT
BRANCH  25  27
ATOM     27  C   UNL     1      -4.174  -1.517  24.113  0.00  0.00    +0.077 C 
ATOM     28  C   UNL     1      -4.750  -0.975  24.350  0.00  0.00    +0.010 C 
ATOM     29  C   UNL     1      -4.591  -1.083  23.548  0.00  0.00    +0.010 C 
ENDBRANCH  25  27
BRANCH   5   4
ATOM      4  C   UNL     1      -0.566  -1.116  25.169  0.00  0.00    +0.114 C 
BRANCH   4   2
ATOM      1  O   UNL     1       0.292  -2.199  25.536  0.00  0.00    -0.246 OA
ATOM      2  C   UNL     1       0.082  -1.601  25.008  0.00  0.00    +0.365 C 
ATOM      3  O   UNL     1       0.521  -1.488  24.318  0.00  0.00    -0.246 OA
ENDBRANCH   4   2
ENDBRANCH   5   4
BRANCH  10  11
ATOM     11  C   UNL     1      -1.712   0.009  24.791  0.00  0.00    +0.019 C 
BRANCH  11  12
ATOM     12  C   UNL     1      -2.280   0.556  25.030  0.00  0.00    +0.072 C 
BRANCH  12  13
ATOM     13  N   UNL     1      -2.102   1.362  25.031  0.00  0.00    -0.270 NA
ATOM     14  C   UNL     1      -2.441   1.860  24.467  0.00  0.00    +0.094 C 
ATOM     15  C   UNL     1      -2.264   2.665  24.467  0.00  0.00    +0.108 C 
ATOM     16  N   UNL     1      -1.748   2.974  25.033  0.00  0.00    -0.305 N 
ATOM     17  C   UNL     1      -1.408   2.476  25.597  0.00  0.00    +0.108 C 
ATOM     18  C   UNL     1      -1.586   1.671  25.595  0.00  0.00    +0.094 C 
BRANCH  16  19
ATOM     19  C   UNL     1      -1.571   3.780  25.033  0.00  0.00    +0.048 A 
ATOM     20  C   UNL     1      -2.119   4.322  25.322  0.00  0.00    +0.015 A 
ATOM     21  C   UNL     1      -1.942   5.129  25.322  0.00  0.00    +0.001 A 
ATOM     22  C   UNL     1      -1.215   5.390  25.032  0.00  0.00    +0.000 A 
ATOM     23  C   UNL     1      -0.667   4.848  24.743  0.00  0.00    +0.001 A 
ATOM     24  C   UNL     1      -0.843   4.042  24.743  0.00  0.00    +0.015 A 
ENDBRANCH  16  19
ENDBRANCH  12  13
ENDBRANCH  11  12
ENDBRANCH  10  11
TORSDOF 7
ENDMDL
MODEL 5
REMARK VINA RESULT:      -9.3      3.021      4.585
REMARK  Name = 
REMARK  7 active torsions:
REMARK  status: ('A' for Active; 'I' for Inactive)
REMARK    1  A    between atoms: C_2  and  C_4
REMARK    2  A    between atoms: C_4  and  C_5
REMARK    3  A    between atoms: C_10  and  C_11
REMARK    4  A    between atoms: C_11  and  C_12
REMARK    5  A    between atoms: C_12  and  N_13
REMARK    6  A    between atoms: N_16  and  C_19
REMARK    7  A    between atoms: C_25  and  C_27
REMARK                            x       y       z     vdW  Elec       q    Type
REMARK                         _______ _______ _______ _____ _____    ______ ____
ROOT
ATOM      5  C   UNL     1      -3.668  -0.389  24.561  0.00  0.00    +0.015 C 
ATOM      6  C   UNL     1      -4.427  -0.290  24.867  0.00  0.00    +0.022 C 
ATOM      7  C   UNL     1      -4.729   0.468  24.989  0.00  0.00    +0.093 C 
ATOM      8  N   UNL     1      -4.270   1.129  24.804  0.00  0.00    -0.280 N 
ATOM      9  C   UNL     1      -3.510   1.030  24.498  0.00  0.00    +0.093 C 
ATOM     10  C   UNL     1      -3.209   0.272  24.376  0.00  0.00    +0.022 C 
ATOM     25  C   UNL     1      -4.571   1.887  24.926  0.00  0.00    +0.225 C 
ATOM     26  O   UNL     1      -5.330   1.986  25.232  0.00  0.00    -0.275 OA
ENDROOT
BRANCH  25  27
ATOM     27  C   UNL     1      -4.112   2.547  24.741  0.00  0.00    +0.077 C 
ATOM     28  C   UNL     1      -3.843   3.099  24.189  0.00  0.00    +0.010 C 
ATOM     29  C   UNL     1      -3.586   3.140  24.972  0.00  0.00    +0.010 C 
ENDBRANCH  25  27
BRANCH   5   4
ATOM      4  C   UNL     1      -3.367  -1.147  24.439  0.00  0.00    +0.114 C 
BRANCH   4   2
ATOM      1  O   UNL     1      -4.327  -2.038  23.869  0.00  0.00    -0.246 OA
ATOM      2  C   UNL     1      -3.862  -1.803  24.508  0.00  0.00    +0.365 C 
ATOM      3  O   UNL     1      -3.892  -2.225  25.217  0.00  0.00    -0.246 OA
ENDBRANCH   4   2
ENDBRANCH   5   4
BRANCH  10  11
ATOM     11  C   UNL     1      -2.449   0.174  24.070  0.00  0.00    +0.019 C 
BRANCH  11  12
ATOM     12  C   UNL     1      -1.796   0.458  24.485  0.00  0.00    +0.072 C 
BRANCH  12  13
ATOM     13  N   UNL     1      -1.044   0.423  24.147  0.00  0.00    -0.270 NA
ATOM     14  C   UNL     1      -0.588  -0.259  24.227  0.00  0.00    +0.094 C 
ATOM     15  C   UNL     1       0.164  -0.295  23.890  0.00  0.00    +0.108 C 
ATOM     16  N   UNL     1       0.460   0.353  23.472  0.00  0.00    -0.305 N 
ATOM     17  C   UNL     1       0.003   1.036  23.392  0.00  0.00    +0.108 C 
ATOM     18  C   UNL     1      -0.749   1.070  23.730  0.00  0.00    +0.094 C 
BRANCH  16  19
ATOM     19  C   UNL     1       1.211   0.318  23.134  0.00  0.00    +0.048 A 
ATOM     20  C   UNL     1       1.345  -0.158  22.475  0.00  0.00    +0.015 A 
ATOM     21  C   UNL     1       2.098  -0.193  22.137  0.00  0.00    +0.001 A 
ATOM     22  C   UNL     1       2.716   0.248  22.461  0.00  0.00    +0.000 A 
ATOM     23  C   UNL     1       2.581   0.723  23.120  0.00  0.00    +0.001 A 
ATOM     24  C   UNL     1       1.830   0.759  23.458  0.00  0.00    +0.015 A 
ENDBRANCH  16  19
ENDBRANCH  12  13
ENDBRANCH  11  12
ENDBRANCH  10  11
TORSDOF 7
ENDMDL
