MODEL 1
REMARK VINA RESULT:     -14.8      0.000      0.000
REMARK  Name = 
REMARK  5 active torsions:
REMARK  status: ('A' for Active; 'I' for Inactive)
REMARK    1  A    between atoms: C_2  and  C_3
REMARK    2  A    between atoms: C_11  and  C_12
REMARK    3  A    between atoms: C_12  and  C_13
REMARK    4  A    between atoms: N_15  and  C_16
REMARK    5  A    between atoms: C_26  and  C_28
REMARK                            x       y       z     vdW  Elec       q    Type
REMARK                         _______ _______ _______ _____ _____    ______ ____
ROOT
ATOM      1  C   UNL     1      -2.615  -2.588  24.623  0.00  0.00    +0.005 C 
ATOM      2  C   UNL     1      -2.888  -1.813  24.550  0.00  0.00    +0.059 C 
ATOM      5  C   UNL     1      -3.580  -2.226  24.374  0.00  0.00    +0.154 C 
ATOM      6  O   UNL     1      -3.581  -3.051  24.378  0.00  0.00    -0.223 OA
ATOM      7  C   UNL     1      -4.272  -1.813  24.195  0.00  0.00    +0.033 C 
ATOM      8  C   UNL     1      -4.271  -0.988  24.191  0.00  0.00    +0.003 C 
ATOM      9  C   UNL     1      -3.579  -0.576  24.366  0.00  0.00    +0.006 C 
ATOM     10  C   UNL     1      -4.270  -0.164  24.187  0.00  0.00    +0.000 C 
ATOM     11  C   UNL     1      -3.577   0.249  24.363  0.00  0.00    +0.050 C 
ATOM     19  C   UNL     1      -2.885   0.661  24.538  0.00  0.00    +0.063 A 
ATOM     20  C   UNL     1      -2.193   0.248  24.718  0.00  0.00    +0.023 A 
ATOM     21  C   UNL     1      -2.194  -0.576  24.721  0.00  0.00    +0.034 C 
ATOM     22  C   UNL     1      -2.887  -0.989  24.546  0.00  0.00    +0.010 C 
ATOM     23  S   UNL     1      -1.599   0.801  24.867  0.00  0.00    -0.054 S 
ATOM     24  C   UNL     1      -1.923   1.555  24.781  0.00  0.00    +0.186 A 
ATOM     25  N   UNL     1      -1.522   2.269  24.880  0.00  0.00    -0.148 NA
ATOM     26  C   UNL     1      -1.921   2.983  24.774  0.00  0.00    +0.305 C 
ATOM     27  O   UNL     1      -2.720   2.984  24.569  0.00  0.00    -0.265 OA
ATOM     33  N   UNL     1      -2.717   1.468  24.577  0.00  0.00    -0.227 NA
ENDROOT
BRANCH  26  28
ATOM     28  C   UNL     1      -1.521   3.697  24.873  0.00  0.00    +0.201 A 
ATOM     29  C   UNL     1      -1.826   4.381  25.221  0.00  0.00    +0.046 A 
ATOM     30  C   UNL     1      -1.239   4.960  25.205  0.00  0.00    +0.044 A 
ATOM     31  C   UNL     1      -0.570   4.635  24.847  0.00  0.00    +0.180 A 
ATOM     32  O   UNL     1      -0.745   3.855  24.642  0.00  0.00    -0.446 OA
ENDBRANCH  26  28
BRANCH   2   3
ATOM      3  C   UNL     1      -2.101  -1.670  24.751  0.00  0.00    +0.184 C 
ATOM      4  O   UNL     1      -1.580  -2.302  24.855  0.00  0.00    -0.220 OA
ENDBRANCH   2   3
BRANCH  11  12
ATOM     12  C   UNL     1      -4.269   0.662  24.183  0.00  0.00    +0.093 C 
BRANCH  12  13
ATOM     13  C   UNL     1      -4.693   1.037  24.784  0.00  0.00    +0.242 C 
ATOM     14  O   UNL     1      -4.632   0.769  25.561  0.00  0.00    -0.273 OA
ATOM     15  N   UNL     1      -5.178   1.680  24.606  0.00  0.00    -0.207 NA
BRANCH  15  16
ATOM     16  C   UNL     1      -5.602   2.055  25.206  0.00  0.00    +0.095 C 
ATOM     17  C   UNL     1      -5.792   2.740  25.625  0.00  0.00    +0.023 C 
ATOM     18  C   UNL     1      -6.146   2.023  25.825  0.00  0.00    +0.023 C 
ENDBRANCH  15  16
ENDBRANCH  12  13
ENDBRANCH  11  12
TORSDOF 5
ENDMDL
MODEL 2
REMARK VINA RESULT:     -13.5      1.018      4.583
REMARK  Name = 
REMARK  5 active torsions:
REMARK  status: ('A' for Active; 'I' for Inactive)
REMARK    1  A    between atoms: C_2  and  C_3
REMARK    2  A    between atoms: C_11  and  C_12
REMARK    3  A    between atoms: C_12  and  C_13
REMARK    4  A    between atoms: N_15  and  C_16
REMARK    5  A    between atoms: C_26  and  C_28
REMARK                            x       y       z     vdW  Elec       q    Type
REMARK                         _______ _______ _______ _____ _____    ______ ____
ROOT
ATOM      1  C   UNL     1      -0.577   4.033  25.405  0.00  0.00    +0.005 C 
ATOM      2  C   UNL     1      -1.248   3.604  25.190  0.00  0.00    +0.059 C 
ATOM      5  C   UNL     1      -1.529   4.372  25.086  0.00  0.00    +0.154 C 
ATOM      6  O   UNL     1      -1.037   5.017  25.239  0.00  0.00    -0.223 OA
ATOM      7  C   UNL     1      -2.304   4.496  24.829  0.00  0.00    +0.033 C 
ATOM      8  C   UNL     1      -2.796   3.853  24.677  0.00  0.00    +0.003 C 
ATOM      9  C   UNL     1      -2.514   3.085  24.780  0.00  0.00    +0.006 C 
ATOM     10  C   UNL     1      -3.288   3.209  24.524  0.00  0.00    +0.000 C 
ATOM     11  C   UNL     1      -3.006   2.440  24.628  0.00  0.00    +0.050 C 
ATOM     19  C   UNL     1      -2.725   1.672  24.731  0.00  0.00    +0.063 A 
ATOM     20  C   UNL     1      -1.949   1.548  24.988  0.00  0.00    +0.023 A 
ATOM     21  C   UNL     1      -1.458   2.192  25.141  0.00  0.00    +0.034 C 
ATOM     22  C   UNL     1      -1.739   2.961  25.037  0.00  0.00    +0.010 C 
ATOM     23  S   UNL     1      -1.827   0.734  25.040  0.00  0.00    -0.054 S 
ATOM     24  C   UNL     1      -2.524   0.355  24.816  0.00  0.00    +0.186 A 
ATOM     25  N   UNL     1      -2.645  -0.461  24.788  0.00  0.00    -0.148 NA
ATOM     26  C   UNL     1      -3.376  -0.761  24.552  0.00  0.00    +0.305 C 
ATOM     27  O   UNL     1      -3.986  -0.246  24.343  0.00  0.00    -0.265 OA
ATOM     33  N   UNL     1      -3.078   0.934  24.625  0.00  0.00    -0.227 NA
ENDROOT
BRANCH  26  28
ATOM     28  C   UNL     1      -3.497  -1.576  24.523  0.00  0.00    +0.201 A 
ATOM     29  C   UNL     1      -3.930  -1.983  23.950  0.00  0.00    +0.046 A 
ATOM     30  C   UNL     1      -3.907  -2.786  24.135  0.00  0.00    +0.044 A 
ATOM     31  C   UNL     1      -3.461  -2.877  24.823  0.00  0.00    +0.180 A 
ATOM     32  O   UNL     1      -3.208  -2.129  25.063  0.00  0.00    -0.446 OA
ENDBRANCH  26  28
BRANCH   2   3
ATOM      3  C   UNL     1      -0.732   2.985  25.368  0.00  0.00    +0.184 C 
ATOM      4  O   UNL     1       0.021   3.148  25.663  0.00  0.00    -0.220 OA
ENDBRANCH   2   3
BRANCH  11  12
ATOM     12  C   UNL     1      -3.780   2.564  24.371  0.00  0.00    +0.093 C 
BRANCH  12  13
ATOM     13  C   UNL     1      -4.411   2.448  24.890  0.00  0.00    +0.242 C 
ATOM     14  O   UNL     1      -4.286   2.483  25.705  0.00  0.00    -0.273 OA
ATOM     15  N   UNL     1      -5.166   2.296  24.595  0.00  0.00    -0.207 NA
BRANCH  15  16
ATOM     16  C   UNL     1      -5.796   2.180  25.114  0.00  0.00    +0.095 C 
ATOM     17  C   UNL     1      -6.512   1.813  25.297  0.00  0.00    +0.023 C 
ATOM     18  C   UNL     1      -6.174   2.344  25.829  0.00  0.00    +0.023 C 
ENDBRANCH  15  16
ENDBRANCH  12  13
ENDBRANCH  11  12
TORSDOF 5
ENDMDL
MODEL 3
REMARK VINA RESULT:     -13.2      1.824      3.943
REMARK  Name = 
REMARK  5 active torsions:
REMARK  status: ('A' for Active; 'I' for Inactive)
REMARK    1  A    between atoms: C_2  and  C_3
REMARK    2  A    between atoms: C_11  and  C_12
REMARK    3  A    between atoms: C_12  and  C_13
REMARK    4  A    between atoms: N_15  and  C_16
REMARK    5  A    between atoms: C_26  and  C_28
REMARK                            x       y       z     vdW  Elec       q    Type
REMARK                         _______ _______ _______ _____ _____    ______ ____
ROOT
ATOM      1  C   UNL     1      -5.035   3.514  25.677  0.00  0.00    +0.005 C 
ATOM      2  C   UNL     1      -4.691   2.843  25.343  0.00  0.00    +0.059 C 
ATOM      5  C   UNL     1      -5.477   2.598  25.377  0.00  0.00    +0.154 C 
ATOM      6  O   UNL     1      -6.054   3.103  25.683  0.00  0.00    -0.223 OA
ATOM      7  C   UNL     1      -5.688   1.848  25.105  0.00  0.00    +0.033 C 
ATOM      8  C   UNL     1      -5.112   1.343  24.799  0.00  0.00    +0.003 C 
ATOM      9  C   UNL     1      -4.325   1.588  24.765  0.00  0.00    +0.006 C 
ATOM     10  C   UNL     1      -4.535   0.839  24.494  0.00  0.00    +0.000 C 
ATOM     11  C   UNL     1      -3.748   1.084  24.459  0.00  0.00    +0.050 C 
ATOM     19  C   UNL     1      -2.962   1.329  24.426  0.00  0.00    +0.063 A 
ATOM     20  C   UNL     1      -2.751   2.079  24.698  0.00  0.00    +0.023 A 
ATOM     21  C   UNL     1      -3.327   2.584  25.003  0.00  0.00    +0.034 C 
ATOM     22  C   UNL     1      -4.114   2.339  25.037  0.00  0.00    +0.010 C 
ATOM     23  S   UNL     1      -1.937   2.168  24.595  0.00  0.00    -0.054 S 
ATOM     24  C   UNL     1      -1.644   1.473  24.260  0.00  0.00    +0.186 A 
ATOM     25  N   UNL     1      -0.857   1.323  24.064  0.00  0.00    -0.148 NA
ATOM     26  C   UNL     1      -0.646   0.600  23.730  0.00  0.00    +0.305 C 
ATOM     27  O   UNL     1      -1.222   0.024  23.593  0.00  0.00    -0.265 OA
ATOM     33  N   UNL     1      -2.277   0.955  24.155  0.00  0.00    -0.227 NA
ENDROOT
BRANCH  26  28
ATOM     28  C   UNL     1       0.141   0.450  23.534  0.00  0.00    +0.201 A 
ATOM     29  C   UNL     1       0.437  -0.254  23.219  0.00  0.00    +0.046 A 
ATOM     30  C   UNL     1       1.250  -0.161  23.109  0.00  0.00    +0.044 A 
ATOM     31  C   UNL     1       1.456   0.598  23.355  0.00  0.00    +0.180 A 
ATOM     32  O   UNL     1       0.770   0.976  23.618  0.00  0.00    -0.446 OA
ENDBRANCH  26  28
BRANCH   2   3
ATOM      3  C   UNL     1      -4.024   3.321  25.425  0.00  0.00    +0.184 C 
ATOM      4  O   UNL     1      -4.089   4.064  25.781  0.00  0.00    -0.220 OA
ENDBRANCH   2   3
BRANCH  11  12
ATOM     12  C   UNL     1      -3.959   0.334  24.188  0.00  0.00    +0.093 C 
BRANCH  12  13
ATOM     13  C   UNL     1      -3.776  -0.335  24.637  0.00  0.00    +0.242 C 
ATOM     14  O   UNL     1      -3.606  -0.257  25.440  0.00  0.00    -0.273 OA
ATOM     15  N   UNL     1      -3.765  -1.079  24.283  0.00  0.00    -0.207 NA
BRANCH  15  16
ATOM     16  C   UNL     1      -3.583  -1.747  24.732  0.00  0.00    +0.095 C 
ATOM     17  C   UNL     1      -3.408  -2.552  24.775  0.00  0.00    +0.023 C 
ATOM     18  C   UNL     1      -3.443  -2.100  25.464  0.00  0.00    +0.023 C 
ENDBRANCH  15  16
ENDBRANCH  12  13
ENDBRANCH  11  12
TORSDOF 5
ENDMDL
MODEL 4
REMARK VINA RESULT:     -12.5      1.547      5.452
REMARK  Name = 
REMARK  5 active torsions:
REMARK  status: ('A' for Active; 'I' for Inactive)
REMARK    1  A    between atoms: C_2  and  C_3
REMARK    2  A    between atoms: C_11  and  C_12
REMARK    3  A    between atoms: C_12  and  C_13
REMARK    4  A    between atoms: N_15  and  C_16
REMARK    5  A    between atoms: C_26  and  C_28
REMARK                            x       y       z     vdW  Elec       q    Type
REMARK                         _______ _______ _______ _____ _____    ______ ____
ROOT
ATOM      1  C   UNL     1      -2.569   4.625  25.252  0.00  0.00    +0.005 C 
ATOM      2  C   UNL     1      -2.271   3.859  25.185  0.00  0.00    +0.059 C 
ATOM      5  C   UNL     1      -1.571   4.273  25.321  0.00  0.00    +0.154 C 
ATOM      6  O   UNL     1      -1.589   5.091  25.429  0.00  0.00    -0.223 OA
ATOM      7  C   UNL     1      -0.852   3.869  25.351  0.00  0.00    +0.033 C 
ATOM      8  C   UNL     1      -0.833   3.052  25.244  0.00  0.00    +0.003 C 
ATOM      9  C   UNL     1      -1.533   2.638  25.107  0.00  0.00    +0.006 C 
ATOM     10  C   UNL     1      -0.815   2.235  25.137  0.00  0.00    +0.000 C 
ATOM     11  C   UNL     1      -1.515   1.820  25.000  0.00  0.00    +0.050 C 
ATOM     19  C   UNL     1      -2.215   1.406  24.863  0.00  0.00    +0.063 A 
ATOM     20  C   UNL     1      -2.935   1.810  24.833  0.00  0.00    +0.023 A 
ATOM     21  C   UNL     1      -2.953   2.627  24.940  0.00  0.00    +0.034 C 
ATOM     22  C   UNL     1      -2.253   3.042  25.077  0.00  0.00    +0.010 C 
ATOM     23  S   UNL     1      -3.530   1.258  24.690  0.00  0.00    -0.054 S 
ATOM     24  C   UNL     1      -3.181   0.513  24.631  0.00  0.00    +0.186 A 
ATOM     25  N   UNL     1      -3.574  -0.198  24.490  0.00  0.00    -0.148 NA
ATOM     26  C   UNL     1      -3.149  -0.903  24.446  0.00  0.00    +0.305 C 
ATOM     27  O   UNL     1      -2.329  -0.897  24.542  0.00  0.00    -0.265 OA
ATOM     33  N   UNL     1      -2.368   0.605  24.738  0.00  0.00    -0.227 NA
ENDROOT
BRANCH  26  28
ATOM     28  C   UNL     1      -3.542  -1.614  24.305  0.00  0.00    +0.201 A 
ATOM     29  C   UNL     1      -3.340  -2.350  24.618  0.00  0.00    +0.046 A 
ATOM     30  C   UNL     1      -3.880  -2.905  24.333  0.00  0.00    +0.044 A 
ATOM     31  C   UNL     1      -4.415  -2.512  23.843  0.00  0.00    +0.180 A 
ATOM     32  O   UNL     1      -4.206  -1.714  23.826  0.00  0.00    -0.446 OA
ENDBRANCH  26  28
BRANCH   2   3
ATOM      3  C   UNL     1      -3.075   3.712  25.071  0.00  0.00    +0.184 C 
ATOM      4  O   UNL     1      -3.616   4.334  25.098  0.00  0.00    -0.220 OA
ENDBRANCH   2   3
BRANCH  11  12
ATOM     12  C   UNL     1      -0.796   1.416  25.030  0.00  0.00    +0.093 C 
BRANCH  12  13
ATOM     13  C   UNL     1      -0.446   1.145  24.333  0.00  0.00    +0.242 C 
ATOM     14  O   UNL     1      -0.661   1.475  23.608  0.00  0.00    -0.273 OA
ATOM     15  N   UNL     1       0.119   0.546  24.362  0.00  0.00    -0.207 NA
BRANCH  15  16
ATOM     16  C   UNL     1       0.470   0.276  23.666  0.00  0.00    +0.095 C 
ATOM     17  C   UNL     1       0.618  -0.335  23.132  0.00  0.00    +0.023 C 
ATOM     18  C   UNL     1       0.929   0.416  22.995  0.00  0.00    +0.023 C 
ENDBRANCH  15  16
ENDBRANCH  12  13
ENDBRANCH  11  12
TORSDOF 5
ENDMDL
MODEL 5
REMARK VINA RESULT:     -12.5      1.499      3.074
REMARK  Name = 
REMARK  5 active torsions:
REMARK  status: ('A' for Active; 'I' for Inactive)
REMARK    1  A    between atoms: C_2  and  C_3
REMARK    2  A    between atoms: C_11  and  C_12
REMARK    3  A    between atoms: C_12  and  C_13
REMARK    4  A    between atoms: N_15  and  C_16
REMARK    5  A    between atoms: C_26  and  C_28
REMARK                            x       y       z     vdW  Elec       q    Type
REMARK                         _______ _______ _______ _____ _____    ______ ____
ROOT
ATOM      1  C   UNL     1      -3.553  -2.932  24.041  0.00  0.00    +0.005 C 
ATOM      2  C   UNL     1      -3.297  -2.207  24.338  0.00  0.00    +0.059 C 
ATOM      5  C   UNL     1      -2.621  -2.660  24.466  0.00  0.00    +0.154 C 
ATOM      6  O   UNL     1      -2.610  -3.456  24.250  0.00  0.00    -0.223 OA
ATOM      7  C   UNL     1      -1.954  -2.317  24.812  0.00  0.00    +0.033 C 
ATOM      8  C   UNL     1      -1.964  -1.522  25.028  0.00  0.00    +0.003 C 
ATOM      9  C   UNL     1      -2.640  -1.069  24.900  0.00  0.00    +0.006 C 
ATOM     10  C   UNL     1      -1.975  -0.727  25.245  0.00  0.00    +0.000 C 
ATOM     11  C   UNL     1      -2.651  -0.272  25.117  0.00  0.00    +0.050 C 
ATOM     19  C   UNL     1      -3.328   0.181  24.988  0.00  0.00    +0.063 A 
ATOM     20  C   UNL     1      -3.995  -0.162  24.643  0.00  0.00    +0.023 A 
ATOM     21  C   UNL     1      -3.985  -0.957  24.426  0.00  0.00    +0.034 C 
ATOM     22  C   UNL     1      -3.308  -1.411  24.555  0.00  0.00    +0.010 C 
ATOM     23  S   UNL     1      -4.578   0.420  24.585  0.00  0.00    -0.054 S 
ATOM     24  C   UNL     1      -4.272   1.120  24.894  0.00  0.00    +0.186 A 
ATOM     25  N   UNL     1      -4.669   1.842  24.945  0.00  0.00    -0.148 NA
ATOM     26  C   UNL     1      -4.290   2.498  25.269  0.00  0.00    +0.305 C 
ATOM     27  O   UNL     1      -3.515   2.435  25.543  0.00  0.00    -0.265 OA
ATOM     33  N   UNL     1      -3.500   0.973  25.143  0.00  0.00    -0.227 NA
ENDROOT
BRANCH  26  28
ATOM     28  C   UNL     1      -4.687   3.220  25.320  0.00  0.00    +0.201 A 
ATOM     29  C   UNL     1      -4.408   3.947  25.047  0.00  0.00    +0.046 A 
ATOM     30  C   UNL     1      -4.981   4.518  25.211  0.00  0.00    +0.044 A 
ATOM     31  C   UNL     1      -5.614   4.144  25.585  0.00  0.00    +0.180 A 
ATOM     32  O   UNL     1      -5.432   3.341  25.652  0.00  0.00    -0.446 OA
ENDBRANCH  26  28
BRANCH   2   3
ATOM      3  C   UNL     1      -4.063  -2.005  24.107  0.00  0.00    +0.184 C 
ATOM      4  O   UNL     1      -4.539  -2.563  23.727  0.00  0.00    -0.220 OA
ENDBRANCH   2   3
BRANCH  11  12
ATOM     12  C   UNL     1      -1.985   0.070  25.462  0.00  0.00    +0.093 C 
BRANCH  12  13
ATOM     13  C   UNL     1      -1.494   0.561  25.014  0.00  0.00    +0.242 C 
ATOM     14  O   UNL     1      -1.539   0.548  24.191  0.00  0.00    -0.273 OA
ATOM     15  N   UNL     1      -0.960   1.062  25.390  0.00  0.00    -0.207 NA
BRANCH  15  16
ATOM     16  C   UNL     1      -0.469   1.553  24.944  0.00  0.00    +0.095 C 
ATOM     17  C   UNL     1      -0.170   2.303  24.777  0.00  0.00    +0.023 C 
ATOM     18  C   UNL     1       0.081   1.653  24.338  0.00  0.00    +0.023 C 
ENDBRANCH  15  16
ENDBRANCH  12  13
ENDBRANCH  11  12
TORSDOF 5
ENDMDL
MODEL 6
REMARK VINA RESULT:     -12.4      1.572      3.163
REMARK  Name = 
REMARK  5 active torsions:
REMARK  status: ('A' for Active; 'I' for Inactive)
REMARK    1  A    between atoms: C_2  and  C_3
REMARK    2  A    between atoms: C_11  and  C_12
REMARK    3  A    between atoms: C_12  and  C_13
REMARK    4  A    between atoms: N_15  and  C_16
REMARK    5  A    between atoms: C_26  and  C_28
REMARK                            x       y       z     vdW  Elec       q    Type
REMARK                         _______ _______ _______ _____ _____    ______ ____
ROOT
ATOM      1  C   UNL     1      -4.157  -2.123  24.327  0.00  0.00    +0.005 C 
ATOM      2  C   UNL     1      -3.488  -1.651  24.422  0.00  0.00    +0.059 C 
ATOM      5  C   UNL     1      -3.134  -2.394  24.381  0.00  0.00    +0.154 C 
ATOM      6  O   UNL     1      -3.598  -3.069  24.283  0.00  0.00    -0.223 OA
ATOM      7  C   UNL     1      -2.312  -2.464  24.438  0.00  0.00    +0.033 C 
ATOM      8  C   UNL     1      -1.848  -1.790  24.536  0.00  0.00    +0.003 C 
ATOM      9  C   UNL     1      -2.202  -1.047  24.577  0.00  0.00    +0.006 C 
ATOM     10  C   UNL     1      -1.383  -1.116  24.634  0.00  0.00    +0.000 C 
ATOM     11  C   UNL     1      -1.737  -0.372  24.675  0.00  0.00    +0.050 C 
ATOM     19  C   UNL     1      -2.091   0.371  24.716  0.00  0.00    +0.063 A 
ATOM     20  C   UNL     1      -2.913   0.441  24.659  0.00  0.00    +0.023 A 
ATOM     21  C   UNL     1      -3.377  -0.233  24.561  0.00  0.00    +0.034 C 
ATOM     22  C   UNL     1      -3.023  -0.977  24.520  0.00  0.00    +0.010 C 
ATOM     23  S   UNL     1      -3.104   1.241  24.717  0.00  0.00    -0.054 S 
ATOM     24  C   UNL     1      -2.404   1.666  24.811  0.00  0.00    +0.186 A 
ATOM     25  N   UNL     1      -2.340   2.485  24.891  0.00  0.00    -0.148 NA
ATOM     26  C   UNL     1      -1.598   2.834  24.980  0.00  0.00    +0.305 C 
ATOM     27  O   UNL     1      -0.919   2.365  24.989  0.00  0.00    -0.265 OA
ATOM     33  N   UNL     1      -1.778   1.129  24.809  0.00  0.00    -0.227 NA
ENDROOT
BRANCH  26  28
ATOM     28  C   UNL     1      -1.535   3.652  25.060  0.00  0.00    +0.201 A 
ATOM     29  C   UNL     1      -0.884   4.112  24.843  0.00  0.00    +0.046 A 
ATOM     30  C   UNL     1      -1.057   4.899  25.020  0.00  0.00    +0.044 A 
ATOM     31  C   UNL     1      -1.814   4.926  25.346  0.00  0.00    +0.180 A 
ATOM     32  O   UNL     1      -2.109   4.155  25.371  0.00  0.00    -0.446 OA
ENDBRANCH  26  28
BRANCH   2   3
ATOM      3  C   UNL     1      -4.075  -1.072  24.430  0.00  0.00    +0.184 C 
ATOM      4  O   UNL     1      -4.846  -1.262  24.204  0.00  0.00    -0.220 OA
ENDBRANCH   2   3
BRANCH  11  12
ATOM     12  C   UNL     1      -0.917  -0.441  24.732  0.00  0.00    +0.093 C 
BRANCH  12  13
ATOM     13  C   UNL     1      -0.441  -0.255  24.083  0.00  0.00    +0.242 C 
ATOM     14  O   UNL     1      -0.784  -0.121  23.345  0.00  0.00    -0.273 OA
ATOM     15  N   UNL     1       0.377  -0.203  24.174  0.00  0.00    -0.207 NA
BRANCH  15  16
ATOM     16  C   UNL     1       0.853  -0.016  23.527  0.00  0.00    +0.095 C 
ATOM     17  C   UNL     1       1.431   0.458  23.179  0.00  0.00    +0.023 C 
ATOM     18  C   UNL     1       1.101  -0.167  22.755  0.00  0.00    +0.023 C 
ENDBRANCH  15  16
ENDBRANCH  12  13
ENDBRANCH  11  12
TORSDOF 5
ENDMDL
MODEL 7
REMARK VINA RESULT:     -12.3      1.612      5.170
REMARK  Name = 
REMARK  5 active torsions:
REMARK  status: ('A' for Active; 'I' for Inactive)
REMARK    1  A    between atoms: C_2  and  C_3
REMARK    2  A    between atoms: C_11  and  C_12
REMARK    3  A    between atoms: C_12  and  C_13
REMARK    4  A    between atoms: N_15  and  C_16
REMARK    5  A    between atoms: C_26  and  C_28
REMARK                            x       y       z     vdW  Elec       q    Type
REMARK                         _______ _______ _______ _____ _____    ______ ____
ROOT
ATOM      1  C   UNL     1      -5.442   3.834  25.633  0.00  0.00    +0.005 C 
ATOM      2  C   UNL     1      -4.918   3.318  25.259  0.00  0.00    +0.059 C 
ATOM      5  C   UNL     1      -4.599   4.041  25.025  0.00  0.00    +0.154 C 
ATOM      6  O   UNL     1      -4.948   4.747  25.272  0.00  0.00    -0.223 OA
ATOM      7  C   UNL     1      -3.929   4.059  24.542  0.00  0.00    +0.033 C 
ATOM      8  C   UNL     1      -3.580   3.354  24.295  0.00  0.00    +0.003 C 
ATOM      9  C   UNL     1      -3.900   2.631  24.529  0.00  0.00    +0.006 C 
ATOM     10  C   UNL     1      -3.231   2.649  24.048  0.00  0.00    +0.000 C 
ATOM     11  C   UNL     1      -3.551   1.925  24.283  0.00  0.00    +0.050 C 
ATOM     19  C   UNL     1      -3.870   1.202  24.517  0.00  0.00    +0.063 A 
ATOM     20  C   UNL     1      -4.540   1.185  25.000  0.00  0.00    +0.023 A 
ATOM     21  C   UNL     1      -4.889   1.889  25.247  0.00  0.00    +0.034 C 
ATOM     22  C   UNL     1      -4.570   2.613  25.012  0.00  0.00    +0.010 C 
ATOM     23  S   UNL     1      -4.730   0.394  25.142  0.00  0.00    -0.054 S 
ATOM     24  C   UNL     1      -4.179  -0.076  24.748  0.00  0.00    +0.186 A 
ATOM     25  N   UNL     1      -4.162  -0.901  24.741  0.00  0.00    -0.148 NA
ATOM     26  C   UNL     1      -3.574  -1.297  24.320  0.00  0.00    +0.305 C 
ATOM     27  O   UNL     1      -3.003  -0.870  23.906  0.00  0.00    -0.265 OA
ATOM     33  N   UNL     1      -3.648   0.423  24.362  0.00  0.00    -0.227 NA
ENDROOT
BRANCH  26  28
ATOM     28  C   UNL     1      -3.557  -2.122  24.313  0.00  0.00    +0.201 A 
ATOM     29  C   UNL     1      -3.009  -2.599  24.704  0.00  0.00    +0.046 A 
ATOM     30  C   UNL     1      -3.198  -3.387  24.546  0.00  0.00    +0.044 A 
ATOM     31  C   UNL     1      -3.864  -3.397  24.059  0.00  0.00    +0.180 A 
ATOM     32  O   UNL     1      -4.086  -2.615  23.915  0.00  0.00    -0.446 OA
ENDBRANCH  26  28
BRANCH   2   3
ATOM      3  C   UNL     1      -5.420   2.775  25.624  0.00  0.00    +0.184 C 
ATOM      4  O   UNL     1      -6.031   3.039  26.112  0.00  0.00    -0.220 OA
ENDBRANCH   2   3
BRANCH  11  12
ATOM     12  C   UNL     1      -2.882   1.943  23.800  0.00  0.00    +0.093 C 
BRANCH  12  13
ATOM     13  C   UNL     1      -2.137   1.788  24.121  0.00  0.00    +0.242 C 
ATOM     14  O   UNL     1      -2.022   1.835  24.937  0.00  0.00    -0.273 OA
ATOM     15  N   UNL     1      -1.509   1.586  23.627  0.00  0.00    -0.207 NA
BRANCH  15  16
ATOM     16  C   UNL     1      -0.765   1.431  23.947  0.00  0.00    +0.095 C 
ATOM     17  C   UNL     1      -0.096   0.952  23.999  0.00  0.00    +0.023 C 
ATOM     18  C   UNL     1      -0.145   1.641  24.449  0.00  0.00    +0.023 C 
ENDBRANCH  15  16
ENDBRANCH  12  13
ENDBRANCH  11  12
TORSDOF 5
ENDMDL
MODEL 8
REMARK VINA RESULT:     -12.0      2.045      4.403
REMARK  Name = 
REMARK  5 active torsions:
REMARK  status: ('A' for Active; 'I' for Inactive)
REMARK    1  A    between atoms: C_2  and  C_3
REMARK    2  A    between atoms: C_11  and  C_12
REMARK    3  A    between atoms: C_12  and  C_13
REMARK    4  A    between atoms: N_15  and  C_16
REMARK    5  A    between atoms: C_26  and  C_28
REMARK                            x       y       z     vdW  Elec       q    Type
REMARK                         _______ _______ _______ _____ _____    ______ ____
ROOT
ATOM      1  C   UNL     1      -6.106   2.511  25.173  0.00  0.00    +0.005 C 
ATOM      2  C   UNL     1      -5.288   2.592  25.236  0.00  0.00    +0.059 C 
ATOM      5  C   UNL     1      -5.530   3.251  25.668  0.00  0.00    +0.154 C 
ATOM      6  O   UNL     1      -6.334   3.409  25.764  0.00  0.00    -0.223 OA
ATOM      7  C   UNL     1      -4.968   3.752  26.006  0.00  0.00    +0.033 C 
ATOM      8  C   UNL     1      -4.164   3.594  25.911  0.00  0.00    +0.003 C 
ATOM      9  C   UNL     1      -3.922   2.935  25.479  0.00  0.00    +0.006 C 
ATOM     10  C   UNL     1      -3.361   3.436  25.816  0.00  0.00    +0.000 C 
ATOM     11  C   UNL     1      -3.118   2.777  25.383  0.00  0.00    +0.050 C 
ATOM     19  C   UNL     1      -2.875   2.118  24.950  0.00  0.00    +0.063 A 
ATOM     20  C   UNL     1      -3.438   1.617  24.612  0.00  0.00    +0.023 A 
ATOM     21  C   UNL     1      -4.241   1.775  24.707  0.00  0.00    +0.034 C 
ATOM     22  C   UNL     1      -4.484   2.434  25.140  0.00  0.00    +0.010 C 
ATOM     23  S   UNL     1      -3.036   1.013  24.218  0.00  0.00    -0.054 S 
ATOM     24  C   UNL     1      -2.227   1.141  24.312  0.00  0.00    +0.186 A 
ATOM     25  N   UNL     1      -1.623   0.669  24.007  0.00  0.00    -0.148 NA
ATOM     26  C   UNL     1      -0.835   0.867  24.147  0.00  0.00    +0.305 C 
ATOM     27  O   UNL     1      -0.650   1.537  24.592  0.00  0.00    -0.265 OA
ATOM     33  N   UNL     1      -2.128   1.823  24.764  0.00  0.00    -0.227 NA
ENDROOT
BRANCH  26  28
ATOM     28  C   UNL     1      -0.231   0.395  23.842  0.00  0.00    +0.201 A 
ATOM     29  C   UNL     1       0.389   0.652  23.360  0.00  0.00    +0.046 A 
ATOM     30  C   UNL     1       0.863  -0.001  23.185  0.00  0.00    +0.044 A 
ATOM     31  C   UNL     1       0.537  -0.660  23.559  0.00  0.00    +0.180 A 
ATOM     32  O   UNL     1      -0.139  -0.415  23.965  0.00  0.00    -0.446 OA
ENDBRANCH  26  28
BRANCH   2   3
ATOM      3  C   UNL     1      -5.330   1.905  24.781  0.00  0.00    +0.184 C 
ATOM      4  O   UNL     1      -6.064   1.568  24.610  0.00  0.00    -0.220 OA
ENDBRANCH   2   3
BRANCH  11  12
ATOM     12  C   UNL     1      -2.556   3.278  25.721  0.00  0.00    +0.093 C 
BRANCH  12  13
ATOM     13  C   UNL     1      -2.163   3.832  25.253  0.00  0.00    +0.242 C 
ATOM     14  O   UNL     1      -2.464   4.034  24.512  0.00  0.00    -0.273 OA
ATOM     15  N   UNL     1      -1.469   4.184  25.525  0.00  0.00    -0.207 NA
BRANCH  15  16
ATOM     16  C   UNL     1      -1.076   4.739  25.058  0.00  0.00    +0.095 C 
ATOM     17  C   UNL     1      -0.420   4.956  24.607  0.00  0.00    +0.023 C 
ATOM     18  C   UNL     1      -1.049   5.481  24.698  0.00  0.00    +0.023 C 
ENDBRANCH  15  16
ENDBRANCH  12  13
ENDBRANCH  11  12
TORSDOF 5
ENDMDL
