MODEL 1
REMARK VINA RESULT:     -14.8      0.000      0.000
REMARK  Name = 
REMARK  3 active torsions:
REMARK  status: ('A' for Active; 'I' for Inactive)
REMARK    1  A    between atoms: S_2  and  C_3
REMARK    2  A    between atoms: C_6  and  C_9
REMARK    3  A    between atoms: N_17  and  C_19
REMARK                            x       y       z     vdW  Elec       q    Type
REMARK                         _______ _______ _______ _____ _____    ______ ____
ROOT
ATOM      9  C   UNL     1      -4.451   0.712  24.965  0.00  0.00    +0.056 A 
ATOM     10  C   UNL     1      -5.186   0.857  25.312  0.00  0.00    +0.006 A 
ATOM     11  C   UNL     1      -5.433   1.632  25.446  0.00  0.00    +0.013 A 
ATOM     12  C   UNL     1      -4.946   2.263  25.234  0.00  0.00    +0.041 A 
ATOM     13  C   UNL     1      -4.922   3.181  25.245  0.00  0.00    +0.054 C 
ATOM     14  C   UNL     1      -5.302   3.739  25.436  0.00  0.00    +0.011 C 
ATOM     15  C   UNL     1      -4.577   3.593  25.094  0.00  0.00    +0.039 C 
ATOM     16  C   UNL     1      -3.682   3.621  24.676  0.00  0.00    +0.074 C 
ATOM     17  N   UNL     1      -3.542   2.802  24.591  0.00  0.00    -0.273 NA
ATOM     18  C   UNL     1      -4.057   3.225  24.842  0.00  0.00    +0.078 C 
ATOM     25  C   UNL     1      -4.593   2.633  25.078  0.00  0.00    +0.110 C 
ATOM     26  N   UNL     1      -4.211   2.118  24.887  0.00  0.00    -0.299 N 
ATOM     27  C   UNL     1      -3.964   1.342  24.753  0.00  0.00    +0.261 A 
ATOM     28  O   UNL     1      -3.452   0.748  24.499  0.00  0.00    -0.267 OA
ENDROOT
BRANCH   9   6
ATOM      3  C   UNL     1      -3.711  -1.615  24.564  0.00  0.00    +0.025 A 
ATOM      4  C   UNL     1      -4.128  -1.209  23.979  0.00  0.00    +0.006 A 
ATOM      5  C   UNL     1      -4.375  -0.433  24.113  0.00  0.00    +0.001 A 
ATOM      6  C   UNL     1      -4.205  -0.064  24.831  0.00  0.00    +0.005 A 
ATOM      7  C   UNL     1      -3.788  -0.470  25.415  0.00  0.00    +0.001 A 
ATOM      8  C   UNL     1      -3.541  -1.246  25.282  0.00  0.00    +0.006 A 
BRANCH   3   2
ATOM      1  C   UNL     1      -2.697  -2.619  24.628  0.00  0.00    +0.074 C 
ATOM      2  S   UNL     1      -3.464  -2.392  24.431  0.00  0.00    -0.113 S 
ENDBRANCH   3   2
ENDBRANCH   9   6
BRANCH  17  19
ATOM     19  C   UNL     1      -3.148   2.105  24.390  0.00  0.00    +0.063 C 
ATOM     20  C   UNL     1      -3.256   1.771  23.644  0.00  0.00    +0.048 C 
ATOM     21  C   UNL     1      -2.862   1.074  23.442  0.00  0.00    +0.144 C 
ATOM     22  O   UNL     1      -2.359   0.712  23.988  0.00  0.00    -0.354 OA
ATOM     23  C   UNL     1      -2.251   1.047  24.734  0.00  0.00    +0.144 C 
ATOM     24  C   UNL     1      -2.645   1.743  24.935  0.00  0.00    +0.048 C 
ENDBRANCH  17  19
TORSDOF 3
ENDMDL
MODEL 2
REMARK VINA RESULT:     -13.9      1.756      3.977
REMARK  Name = 
REMARK  3 active torsions:
REMARK  status: ('A' for Active; 'I' for Inactive)
REMARK    1  A    between atoms: S_2  and  C_3
REMARK    2  A    between atoms: C_6  and  C_9
REMARK    3  A    between atoms: N_17  and  C_19
REMARK                            x       y       z     vdW  Elec       q    Type
REMARK                         _______ _______ _______ _____ _____    ______ ____
ROOT
ATOM      9  C   UNL     1      -3.641   0.113  24.304  0.00  0.00    +0.056 A 
ATOM     10  C   UNL     1      -4.332  -0.299  24.120  0.00  0.00    +0.006 A 
ATOM     11  C   UNL     1      -4.338  -1.124  24.138  0.00  0.00    +0.013 A 
ATOM     12  C   UNL     1      -3.652  -1.536  24.340  0.00  0.00    +0.041 A 
ATOM     13  C   UNL     1      -3.342  -2.394  24.447  0.00  0.00    +0.054 C 
ATOM     14  C   UNL     1      -3.548  -3.064  24.405  0.00  0.00    +0.011 C 
ATOM     15  C   UNL     1      -2.868  -2.653  24.586  0.00  0.00    +0.039 C 
ATOM     16  C   UNL     1      -1.962  -2.344  24.833  0.00  0.00    +0.074 C 
ATOM     17  N   UNL     1      -2.078  -1.518  24.781  0.00  0.00    -0.273 NA
ATOM     18  C   UNL     1      -2.462  -2.111  24.687  0.00  0.00    +0.078 C 
ATOM     25  C   UNL     1      -3.183  -1.753  24.476  0.00  0.00    +0.110 C 
ATOM     26  N   UNL     1      -2.962  -1.124  24.524  0.00  0.00    -0.299 N 
ATOM     27  C   UNL     1      -2.956  -0.299  24.506  0.00  0.00    +0.261 A 
ATOM     28  O   UNL     1      -2.628   0.454  24.579  0.00  0.00    -0.267 OA
ENDROOT
BRANCH   9   6
ATOM      3  C   UNL     1      -3.628   2.587  24.251  0.00  0.00    +0.025 A 
ATOM      4  C   UNL     1      -3.403   2.160  23.582  0.00  0.00    +0.006 A 
ATOM      5  C   UNL     1      -3.408   1.334  23.599  0.00  0.00    +0.001 A 
ATOM      6  C   UNL     1      -3.637   0.938  24.285  0.00  0.00    +0.005 A 
ATOM      7  C   UNL     1      -3.861   1.366  24.954  0.00  0.00    +0.001 A 
ATOM      8  C   UNL     1      -3.856   2.191  24.937  0.00  0.00    +0.006 A 
BRANCH   3   2
ATOM      1  C   UNL     1      -3.414   3.838  24.907  0.00  0.00    +0.074 C 
ATOM      2  S   UNL     1      -3.623   3.413  24.233  0.00  0.00    -0.113 S 
ENDBRANCH   3   2
ENDBRANCH   9   6
BRANCH  17  19
ATOM     19  C   UNL     1      -1.900  -0.713  24.811  0.00  0.00    +0.063 C 
ATOM     20  C   UNL     1      -1.619  -0.327  24.139  0.00  0.00    +0.048 C 
ATOM     21  C   UNL     1      -1.442   0.479  24.169  0.00  0.00    +0.144 C 
ATOM     22  O   UNL     1      -1.545   0.898  24.873  0.00  0.00    -0.354 OA
ATOM     23  C   UNL     1      -1.826   0.511  25.545  0.00  0.00    +0.144 C 
ATOM     24  C   UNL     1      -2.004  -0.294  25.515  0.00  0.00    +0.048 C 
ENDBRANCH  17  19
TORSDOF 3
ENDMDL
MODEL 3
REMARK VINA RESULT:     -13.5      2.097      4.094
REMARK  Name = 
REMARK  3 active torsions:
REMARK  status: ('A' for Active; 'I' for Inactive)
REMARK    1  A    between atoms: S_2  and  C_3
REMARK    2  A    between atoms: C_6  and  C_9
REMARK    3  A    between atoms: N_17  and  C_19
REMARK                            x       y       z     vdW  Elec       q    Type
REMARK                         _______ _______ _______ _____ _____    ______ ____
ROOT
ATOM      9  C   UNL     1      -1.781  -0.482  24.775  0.00  0.00    +0.056 A 
ATOM     10  C   UNL     1      -1.435  -1.223  24.887  0.00  0.00    +0.006 A 
ATOM     11  C   UNL     1      -1.882  -1.908  24.777  0.00  0.00    +0.013 A 
ATOM     12  C   UNL     1      -2.674  -1.852  24.555  0.00  0.00    +0.041 A 
ATOM     13  C   UNL     1      -3.401  -2.381  24.364  0.00  0.00    +0.054 C 
ATOM     14  C   UNL     1      -3.597  -3.053  24.323  0.00  0.00    +0.011 C 
ATOM     15  C   UNL     1      -3.935  -2.320  24.214  0.00  0.00    +0.039 C 
ATOM     16  C   UNL     1      -4.514  -1.540  24.036  0.00  0.00    +0.074 C 
ATOM     17  N   UNL     1      -3.967  -0.924  24.175  0.00  0.00    -0.273 NA
ATOM     18  C   UNL     1      -3.974  -1.636  24.189  0.00  0.00    +0.078 C 
ATOM     25  C   UNL     1      -3.181  -1.760  24.412  0.00  0.00    +0.110 C 
ATOM     26  N   UNL     1      -3.020  -1.111  24.443  0.00  0.00    -0.299 N 
ATOM     27  C   UNL     1      -2.573  -0.426  24.553  0.00  0.00    +0.261 A 
ATOM     28  O   UNL     1      -2.432   0.386  24.575  0.00  0.00    -0.267 OA
ENDROOT
BRANCH   9   6
ATOM      3  C   UNL     1      -0.439   1.570  25.107  0.00  0.00    +0.025 A 
ATOM      4  C   UNL     1      -0.472   1.216  24.363  0.00  0.00    +0.006 A 
ATOM      5  C   UNL     1      -0.920   0.531  24.252  0.00  0.00    +0.001 A 
ATOM      6  C   UNL     1      -1.333   0.201  24.885  0.00  0.00    +0.005 A 
ATOM      7  C   UNL     1      -1.299   0.556  25.629  0.00  0.00    +0.001 A 
ATOM      8  C   UNL     1      -0.852   1.240  25.740  0.00  0.00    +0.006 A 
BRANCH   3   2
ATOM      1  C   UNL     1      -0.016   2.650  25.940  0.00  0.00    +0.074 C 
ATOM      2  S   UNL     1       0.009   2.255  25.218  0.00  0.00    -0.113 S 
ENDBRANCH   3   2
ENDBRANCH   9   6
BRANCH  17  19
ATOM     19  C   UNL     1      -3.673  -0.156  24.241  0.00  0.00    +0.063 C 
ATOM     20  C   UNL     1      -3.334   0.213  23.586  0.00  0.00    +0.048 C 
ATOM     21  C   UNL     1      -3.040   0.982  23.652  0.00  0.00    +0.144 C 
ATOM     22  O   UNL     1      -3.085   1.380  24.373  0.00  0.00    -0.354 OA
ATOM     23  C   UNL     1      -3.424   1.010  25.028  0.00  0.00    +0.144 C 
ATOM     24  C   UNL     1      -3.718   0.243  24.963  0.00  0.00    +0.048 C 
ENDBRANCH  17  19
TORSDOF 3
ENDMDL
MODEL 4
REMARK VINA RESULT:     -13.2      1.310      2.315
REMARK  Name = 
REMARK  3 active torsions:
REMARK  status: ('A' for Active; 'I' for Inactive)
REMARK    1  A    between atoms: S_2  and  C_3
REMARK    2  A    between atoms: C_6  and  C_9
REMARK    3  A    between atoms: N_17  and  C_19
REMARK                            x       y       z     vdW  Elec       q    Type
REMARK                         _______ _______ _______ _____ _____    ______ ____
ROOT
ATOM      9  C   UNL     1      -2.563   1.575  24.800  0.00  0.00    +0.056 A 
ATOM     10  C   UNL     1      -1.754   1.511  24.952  0.00  0.00    +0.006 A 
ATOM     11  C   UNL     1      -1.311   2.187  25.117  0.00  0.00    +0.013 A 
ATOM     12  C   UNL     1      -1.676   2.926  25.131  0.00  0.00    +0.041 A 
ATOM     13  C   UNL     1      -1.484   3.814  25.271  0.00  0.00    +0.054 C 
ATOM     14  C   UNL     1      -0.952   4.245  25.425  0.00  0.00    +0.011 C 
ATOM     15  C   UNL     1      -1.750   4.304  25.275  0.00  0.00    +0.039 C 
ATOM     16  C   UNL     1      -2.687   4.578  25.122  0.00  0.00    +0.074 C 
ATOM     17  N   UNL     1      -3.028   3.831  24.969  0.00  0.00    -0.273 NA
ATOM     18  C   UNL     1      -2.385   4.095  25.126  0.00  0.00    +0.078 C 
ATOM     25  C   UNL     1      -1.960   3.379  25.127  0.00  0.00    +0.110 C 
ATOM     26  N   UNL     1      -2.484   2.990  24.979  0.00  0.00    -0.299 N 
ATOM     27  C   UNL     1      -2.928   2.315  24.814  0.00  0.00    +0.261 A 
ATOM     28  O   UNL     1      -3.608   1.886  24.630  0.00  0.00    -0.267 OA
ENDROOT
BRANCH   9   6
ATOM      3  C   UNL     1      -3.891  -0.453  24.306  0.00  0.00    +0.025 A 
ATOM      4  C   UNL     1      -3.545  -0.028  23.690  0.00  0.00    +0.006 A 
ATOM      5  C   UNL     1      -3.102   0.649  23.855  0.00  0.00    +0.001 A 
ATOM      6  C   UNL     1      -3.005   0.899  24.635  0.00  0.00    +0.005 A 
ATOM      7  C   UNL     1      -3.352   0.473  25.251  0.00  0.00    +0.001 A 
ATOM      8  C   UNL     1      -3.795  -0.203  25.086  0.00  0.00    +0.006 A 
BRANCH   3   2
ATOM      1  C   UNL     1      -3.965  -1.866  24.111  0.00  0.00    +0.074 C 
ATOM      2  S   UNL     1      -4.335  -1.130  24.142  0.00  0.00    -0.113 S 
ENDBRANCH   3   2
ENDBRANCH   9   6
BRANCH  17  19
ATOM     19  C   UNL     1      -3.608   3.271  24.790  0.00  0.00    +0.063 C 
ATOM     20  C   UNL     1      -3.755   3.066  24.005  0.00  0.00    +0.048 C 
ATOM     21  C   UNL     1      -4.335   2.507  23.826  0.00  0.00    +0.144 C 
ATOM     22  O   UNL     1      -4.768   2.153  24.434  0.00  0.00    -0.354 OA
ATOM     23  C   UNL     1      -4.621   2.359  25.218  0.00  0.00    +0.144 C 
ATOM     24  C   UNL     1      -4.041   2.918  25.397  0.00  0.00    +0.048 C 
ENDBRANCH  17  19
TORSDOF 3
ENDMDL
MODEL 5
REMARK VINA RESULT:     -13.0      1.545      2.333
REMARK  Name = 
REMARK  3 active torsions:
REMARK  status: ('A' for Active; 'I' for Inactive)
REMARK    1  A    between atoms: S_2  and  C_3
REMARK    2  A    between atoms: C_6  and  C_9
REMARK    3  A    between atoms: N_17  and  C_19
REMARK                            x       y       z     vdW  Elec       q    Type
REMARK                         _______ _______ _______ _____ _____    ______ ____
ROOT
ATOM      9  C   UNL     1      -3.295   1.345  24.630  0.00  0.00    +0.056 A 
ATOM     10  C   UNL     1      -3.800   0.692  24.644  0.00  0.00    +0.006 A 
ATOM     11  C   UNL     1      -4.597   0.791  24.833  0.00  0.00    +0.013 A 
ATOM     12  C   UNL     1      -4.888   1.543  25.008  0.00  0.00    +0.041 A 
ATOM     13  C   UNL     1      -5.668   1.969  25.243  0.00  0.00    +0.054 C 
ATOM     14  C   UNL     1      -6.346   1.843  25.373  0.00  0.00    +0.011 C 
ATOM     15  C   UNL     1      -5.845   2.485  25.358  0.00  0.00    +0.039 C 
ATOM     16  C   UNL     1      -5.405   3.369  25.392  0.00  0.00    +0.074 C 
ATOM     17  N   UNL     1      -4.626   3.147  25.189  0.00  0.00    -0.273 NA
ATOM     18  C   UNL     1      -5.258   2.830  25.280  0.00  0.00    +0.078 C 
ATOM     25  C   UNL     1      -5.025   2.049  25.113  0.00  0.00    +0.110 C 
ATOM     26  N   UNL     1      -4.383   2.195  24.994  0.00  0.00    -0.299 N 
ATOM     27  C   UNL     1      -3.586   2.096  24.805  0.00  0.00    +0.261 A 
ATOM     28  O   UNL     1      -2.809   2.334  24.670  0.00  0.00    -0.267 OA
ENDROOT
BRANCH   9   6
ATOM      3  C   UNL     1      -0.905   1.044  24.063  0.00  0.00    +0.025 A 
ATOM      4  C   UNL     1      -1.450   1.217  23.468  0.00  0.00    +0.006 A 
ATOM      5  C   UNL     1      -2.248   1.317  23.658  0.00  0.00    +0.001 A 
ATOM      6  C   UNL     1      -2.498   1.245  24.440  0.00  0.00    +0.005 A 
ATOM      7  C   UNL     1      -1.952   1.072  25.034  0.00  0.00    +0.001 A 
ATOM      8  C   UNL     1      -1.155   0.972  24.845  0.00  0.00    +0.006 A 
BRANCH   3   2
ATOM      1  C   UNL     1       0.155   0.226  23.565  0.00  0.00    +0.074 C 
ATOM      2  S   UNL     1      -0.107   0.944  23.873  0.00  0.00    -0.113 S 
ENDBRANCH   3   2
ENDBRANCH   9   6
BRANCH  17  19
ATOM     19  C   UNL     1      -3.821   3.226  25.024  0.00  0.00    +0.063 C 
ATOM     20  C   UNL     1      -3.570   3.357  24.249  0.00  0.00    +0.048 C 
ATOM     21  C   UNL     1      -2.765   3.436  24.084  0.00  0.00    +0.144 C 
ATOM     22  O   UNL     1      -2.212   3.383  24.695  0.00  0.00    -0.354 OA
ATOM     23  C   UNL     1      -2.464   3.252  25.469  0.00  0.00    +0.144 C 
ATOM     24  C   UNL     1      -3.268   3.173  25.634  0.00  0.00    +0.048 C 
ENDBRANCH  17  19
TORSDOF 3
ENDMDL
