MODEL 1
REMARK VINA RESULT:     -11.7      0.000      0.000
REMARK  Name = 
REMARK  7 active torsions:
REMARK  status: ('A' for Active; 'I' for Inactive)
REMARK    1  A    between atoms: C_2  and  C_3
REMARK    2  A    between atoms: C_3  and  N_4
REMARK    3  A    between atoms: C_5  and  C_7
REMARK    4  A    between atoms: N_11  and  C_12
REMARK    5  A    between atoms: C_12  and  C_13
REMARK    6  A    between atoms: C_25  and  C_26
REMARK    7  A    between atoms: C_26  and  C_27
REMARK                            x       y       z     vdW  Elec       q    Type
REMARK                         _______ _______ _______ _____ _____    ______ ____
ROOT
ATOM      7  C   UNL     1      -1.690   1.843  25.039  0.00  0.00    +0.155 C 
ATOM      8  C   UNL     1      -2.043   1.099  24.989  0.00  0.00    +0.055 C 
ATOM      9  C   UNL     1      -2.842   0.913  24.904  0.00  0.00    -0.002 A 
ATOM     10  C   UNL     1      -3.128   0.141  24.861  0.00  0.00    +0.072 A 
ATOM     11  N   UNL     1      -3.948   0.176  24.779  0.00  0.00    -0.322 N 
ATOM     19  C   UNL     1      -4.170   0.970  24.772  0.00  0.00    +0.060 A 
ATOM     20  C   UNL     1      -3.487   1.427  24.849  0.00  0.00    +0.011 A 
ATOM     21  C   UNL     1      -3.489   2.252  24.865  0.00  0.00    -0.005 A 
ATOM     22  C   UNL     1      -4.274   2.617  24.793  0.00  0.00    -0.003 A 
ATOM     23  C   UNL     1      -4.958   2.161  24.715  0.00  0.00    +0.001 A 
ATOM     24  C   UNL     1      -4.905   1.338  24.704  0.00  0.00    +0.017 A 
ATOM     25  C   UNL     1      -2.851   2.767  24.939  0.00  0.00    +0.095 C 
ATOM     30  N   UNL     1      -2.050   2.585  25.017  0.00  0.00    -0.207 NA
ENDROOT
BRANCH   7   5
ATOM      4  N   UNL     1      -0.387   1.797  24.454  0.00  0.00    -0.204 NA
ATOM      5  C   UNL     1      -0.869   1.845  25.122  0.00  0.00    +0.258 C 
ATOM      6  O   UNL     1      -0.531   1.896  25.873  0.00  0.00    -0.272 OA
BRANCH   4   3
ATOM      3  C   UNL     1       0.434   1.799  24.538  0.00  0.00    +0.115 C 
BRANCH   3   2
ATOM      1  C   UNL     1       1.360   1.192  23.634  0.00  0.00    +0.002 C 
ATOM      2  C   UNL     1       0.916   1.846  23.870  0.00  0.00    +0.023 C 
ENDBRANCH   3   2
ENDBRANCH   4   3
ENDBRANCH   7   5
BRANCH  11  12
ATOM     12  C   UNL     1      -4.457  -0.470  24.715  0.00  0.00    +0.134 C 
BRANCH  12  13
ATOM     13  C   UNL     1      -4.151  -1.232  24.638  0.00  0.00    +0.020 A 
ATOM     14  C   UNL     1      -4.185  -1.617  23.910  0.00  0.00    +0.001 A 
ATOM     15  C   UNL     1      -3.878  -2.380  23.832  0.00  0.00    +0.020 A 
ATOM     16  C   UNL     1      -3.539  -2.756  24.484  0.00  0.00    +0.099 A 
ATOM     17  N   UNL     1      -3.506  -2.369  25.212  0.00  0.00    -0.243 NA
ATOM     18  C   UNL     1      -3.812  -1.607  25.289  0.00  0.00    +0.096 A 
ENDBRANCH  12  13
ENDBRANCH  11  12
BRANCH  25  26
ATOM     26  C   UNL     1      -3.036   3.571  24.936  0.00  0.00    +0.022 C 
BRANCH  26  27
ATOM     27  C   UNL     1      -2.622   4.091  25.425  0.00  0.00    +0.002 C 
ATOM     28  C   UNL     1      -2.035   4.577  25.108  0.00  0.00    +0.000 C 
ATOM     29  C   UNL     1      -2.796   4.126  26.231  0.00  0.00    +0.000 C 
ENDBRANCH  26  27
ENDBRANCH  25  26
TORSDOF 7
ENDMDL
MODEL 2
REMARK VINA RESULT:     -11.7      1.220      4.137
REMARK  Name = 
REMARK  7 active torsions:
REMARK  status: ('A' for Active; 'I' for Inactive)
REMARK    1  A    between atoms: C_2  and  C_3
REMARK    2  A    between atoms: C_3  and  N_4
REMARK    3  A    between atoms: C_5  and  C_7
REMARK    4  A    between atoms: N_11  and  C_12
REMARK    5  A    between atoms: C_12  and  C_13
REMARK    6  A    between atoms: C_25  and  C_26
REMARK    7  A    between atoms: C_26  and  C_27
REMARK                            x       y       z     vdW  Elec       q    Type
REMARK                         _______ _______ _______ _____ _____    ______ ____
ROOT
ATOM      7  C   UNL     1      -2.034  -0.081  24.867  0.00  0.00    +0.155 C 
ATOM      8  C   UNL     1      -2.067   0.743  24.861  0.00  0.00    +0.055 C 
ATOM      9  C   UNL     1      -2.730   1.232  24.898  0.00  0.00    -0.002 A 
ATOM     10  C   UNL     1      -2.689   2.056  24.888  0.00  0.00    +0.072 A 
ATOM     11  N   UNL     1      -3.458   2.351  24.933  0.00  0.00    -0.322 N 
ATOM     19  C   UNL     1      -3.975   1.710  24.972  0.00  0.00    +0.060 A 
ATOM     20  C   UNL     1      -3.525   1.018  24.950  0.00  0.00    +0.011 A 
ATOM     21  C   UNL     1      -3.853   0.261  24.978  0.00  0.00    -0.005 A 
ATOM     22  C   UNL     1      -4.719   0.238  25.032  0.00  0.00    -0.003 A 
ATOM     23  C   UNL     1      -5.170   0.929  25.054  0.00  0.00    +0.001 A 
ATOM     24  C   UNL     1      -4.797   1.665  25.024  0.00  0.00    +0.017 A 
ATOM     25  C   UNL     1      -3.467  -0.467  24.961  0.00  0.00    +0.095 C 
ATOM     30  N   UNL     1      -2.658  -0.620  24.911  0.00  0.00    -0.207 NA
ENDROOT
BRANCH   7   5
ATOM      4  N   UNL     1      -0.833  -0.327  24.135  0.00  0.00    -0.204 NA
ATOM      5  C   UNL     1      -1.279  -0.410  24.823  0.00  0.00    +0.258 C 
ATOM      6  O   UNL     1      -0.971  -0.823  25.468  0.00  0.00    -0.272 OA
BRANCH   4   3
ATOM      3  C   UNL     1      -0.077  -0.656  24.091  0.00  0.00    +0.115 C 
BRANCH   3   2
ATOM      1  C   UNL     1       0.940  -0.188  23.202  0.00  0.00    +0.002 C 
ATOM      2  C   UNL     1       0.313  -0.699  23.366  0.00  0.00    +0.023 C 
ENDBRANCH   3   2
ENDBRANCH   4   3
ENDBRANCH   7   5
BRANCH  11  12
ATOM     12  C   UNL     1      -3.673   3.147  24.939  0.00  0.00    +0.134 C 
BRANCH  12  13
ATOM     13  C   UNL     1      -3.115   3.725  25.126  0.00  0.00    +0.020 A 
ATOM     14  C   UNL     1      -3.020   3.968  25.909  0.00  0.00    +0.001 A 
ATOM     15  C   UNL     1      -2.461   4.546  26.097  0.00  0.00    +0.020 A 
ATOM     16  C   UNL     1      -1.998   4.880  25.501  0.00  0.00    +0.099 A 
ATOM     17  N   UNL     1      -2.094   4.636  24.718  0.00  0.00    -0.243 NA
ATOM     18  C   UNL     1      -2.652   4.059  24.531  0.00  0.00    +0.096 A 
ENDBRANCH  12  13
ENDBRANCH  11  12
BRANCH  25  26
ATOM     26  C   UNL     1      -3.954  -1.132  24.997  0.00  0.00    +0.022 C 
BRANCH  26  27
ATOM     27  C   UNL     1      -3.770  -1.803  24.553  0.00  0.00    +0.002 C 
ATOM     28  C   UNL     1      -3.430  -2.460  24.919  0.00  0.00    +0.000 C 
ATOM     29  C   UNL     1      -3.927  -1.817  23.743  0.00  0.00    +0.000 C 
ENDBRANCH  26  27
ENDBRANCH  25  26
TORSDOF 7
ENDMDL
MODEL 3
REMARK VINA RESULT:     -11.5      1.241      4.301
REMARK  Name = 
REMARK  7 active torsions:
REMARK  status: ('A' for Active; 'I' for Inactive)
REMARK    1  A    between atoms: C_2  and  C_3
REMARK    2  A    between atoms: C_3  and  N_4
REMARK    3  A    between atoms: C_5  and  C_7
REMARK    4  A    between atoms: N_11  and  C_12
REMARK    5  A    between atoms: C_12  and  C_13
REMARK    6  A    between atoms: C_25  and  C_26
REMARK    7  A    between atoms: C_26  and  C_27
REMARK                            x       y       z     vdW  Elec       q    Type
REMARK                         _______ _______ _______ _____ _____    ______ ____
ROOT
ATOM      7  C   UNL     1      -3.968   0.669  24.884  0.00  0.00    +0.155 C 
ATOM      8  C   UNL     1      -3.182   0.917  24.865  0.00  0.00    +0.055 C 
ATOM      9  C   UNL     1      -2.886   1.682  24.782  0.00  0.00    -0.002 A 
ATOM     10  C   UNL     1      -2.081   1.860  24.771  0.00  0.00    +0.072 A 
ATOM     11  N   UNL     1      -2.000   2.676  24.679  0.00  0.00    -0.322 N 
ATOM     19  C   UNL     1      -2.756   3.003  24.633  0.00  0.00    +0.060 A 
ATOM     20  C   UNL     1      -3.304   2.389  24.697  0.00  0.00    +0.011 A 
ATOM     21  C   UNL     1      -4.121   2.504  24.675  0.00  0.00    -0.005 A 
ATOM     22  C   UNL     1      -4.372   3.330  24.578  0.00  0.00    -0.003 A 
ATOM     23  C   UNL     1      -3.825   3.944  24.515  0.00  0.00    +0.001 A 
ATOM     24  C   UNL     1      -3.017   3.780  24.542  0.00  0.00    +0.017 A 
ATOM     25  C   UNL     1      -4.721   1.942  24.731  0.00  0.00    +0.095 C 
ATOM     30  N   UNL     1      -4.654   1.125  24.825  0.00  0.00    -0.207 NA
ENDROOT
BRANCH   7   5
ATOM      4  N   UNL     1      -4.119  -0.631  24.312  0.00  0.00    -0.204 NA
ATOM      5  C   UNL     1      -4.086  -0.143  24.975  0.00  0.00    +0.258 C 
ATOM      6  O   UNL     1      -4.170  -0.466  25.731  0.00  0.00    -0.272 OA
BRANCH   4   3
ATOM      3  C   UNL     1      -4.237  -1.443  24.403  0.00  0.00    +0.115 C 
BRANCH   3   2
ATOM      1  C   UNL     1      -4.065  -2.733  23.810  0.00  0.00    +0.002 C 
ATOM      2  C   UNL     1      -4.260  -1.934  23.740  0.00  0.00    +0.023 C 
ENDBRANCH   3   2
ENDBRANCH   4   3
ENDBRANCH   7   5
BRANCH  11  12
ATOM     12  C   UNL     1      -1.289   3.092  24.640  0.00  0.00    +0.134 C 
BRANCH  12  13
ATOM     13  C   UNL     1      -0.645   2.854  25.098  0.00  0.00    +0.020 A 
ATOM     14  C   UNL     1      -0.599   3.077  25.890  0.00  0.00    +0.001 A 
ATOM     15  C   UNL     1       0.046   2.839  26.348  0.00  0.00    +0.020 A 
ATOM     16  C   UNL     1       0.642   2.379  26.013  0.00  0.00    +0.099 A 
ATOM     17  N   UNL     1       0.595   2.156  25.219  0.00  0.00    -0.243 NA
ATOM     18  C   UNL     1      -0.049   2.394  24.762  0.00  0.00    +0.096 A 
ENDBRANCH  12  13
ENDBRANCH  11  12
BRANCH  25  26
ATOM     26  C   UNL     1      -5.491   2.234  24.689  0.00  0.00    +0.022 C 
BRANCH  26  27
ATOM     27  C   UNL     1      -6.078   1.922  25.179  0.00  0.00    +0.002 C 
ATOM     28  C   UNL     1      -6.067   2.079  25.989  0.00  0.00    +0.000 C 
ATOM     29  C   UNL     1      -6.676   1.452  24.857  0.00  0.00    +0.000 C 
ENDBRANCH  26  27
ENDBRANCH  25  26
TORSDOF 7
ENDMDL
MODEL 4
REMARK VINA RESULT:     -11.0      1.821      3.547
REMARK  Name = 
REMARK  7 active torsions:
REMARK  status: ('A' for Active; 'I' for Inactive)
REMARK    1  A    between atoms: C_2  and  C_3
REMARK    2  A    between atoms: C_3  and  N_4
REMARK    3  A    between atoms: C_5  and  C_7
REMARK    4  A    between atoms: N_11  and  C_12
REMARK    5  A    between atoms: C_12  and  C_13
REMARK    6  A    between atoms: C_25  and  C_26
REMARK    7  A    between atoms: C_26  and  C_27
REMARK                            x       y       z     vdW  Elec       q    Type
REMARK                         _______ _______ _______ _____ _____    ______ ____
ROOT
ATOM      7  C   UNL     1      -3.011   2.509  24.745  0.00  0.00    +0.155 C 
ATOM      8  C   UNL     1      -2.678   1.775  24.568  0.00  0.00    +0.055 C 
ATOM      9  C   UNL     1      -1.920   1.499  24.741  0.00  0.00    -0.002 A 
ATOM     10  C   UNL     1      -1.651   0.747  24.532  0.00  0.00    +0.072 A 
ATOM     11  N   UNL     1      -0.873   0.671  24.796  0.00  0.00    -0.322 N 
ATOM     19  C   UNL     1      -0.661   1.376  25.168  0.00  0.00    +0.060 A 
ATOM     20  C   UNL     1      -1.308   1.888  25.134  0.00  0.00    +0.011 A 
ATOM     21  C   UNL     1      -1.303   2.650  25.452  0.00  0.00    -0.005 A 
ATOM     22  C   UNL     1      -0.558   2.883  25.832  0.00  0.00    -0.003 A 
ATOM     23  C   UNL     1       0.089   2.373  25.866  0.00  0.00    +0.001 A 
ATOM     24  C   UNL     1       0.037   1.619  25.534  0.00  0.00    +0.017 A 
ATOM     25  C   UNL     1      -1.908   3.210  25.454  0.00  0.00    +0.095 C 
ATOM     30  N   UNL     1      -2.668   3.147  25.140  0.00  0.00    -0.207 NA
ENDROOT
BRANCH   7   5
ATOM      4  N   UNL     1      -4.415   2.396  24.984  0.00  0.00    -0.204 NA
ATOM      5  C   UNL     1      -3.789   2.619  24.495  0.00  0.00    +0.258 C 
ATOM      6  O   UNL     1      -3.941   2.953  23.755  0.00  0.00    -0.272 OA
BRANCH   4   3
ATOM      3  C   UNL     1      -5.193   2.506  24.733  0.00  0.00    +0.115 C 
BRANCH   3   2
ATOM      1  C   UNL     1      -6.356   1.811  25.189  0.00  0.00    +0.002 C 
ATOM      2  C   UNL     1      -5.815   2.429  25.270  0.00  0.00    +0.023 C 
ENDBRANCH   3   2
ENDBRANCH   4   3
ENDBRANCH   7   5
BRANCH  11  12
ATOM     12  C   UNL     1      -0.392   0.008  24.704  0.00  0.00    +0.134 C 
BRANCH  12  13
ATOM     13  C   UNL     1      -0.724  -0.747  24.710  0.00  0.00    +0.020 A 
ATOM     14  C   UNL     1      -0.843  -1.139  25.425  0.00  0.00    +0.001 A 
ATOM     15  C   UNL     1      -1.175  -1.895  25.431  0.00  0.00    +0.020 A 
ATOM     16  C   UNL     1      -1.387  -2.257  24.720  0.00  0.00    +0.099 A 
ATOM     17  N   UNL     1      -1.268  -1.864  24.005  0.00  0.00    -0.243 NA
ATOM     18  C   UNL     1      -0.936  -1.109  23.999  0.00  0.00    +0.096 A 
ENDBRANCH  12  13
ENDBRANCH  11  12
BRANCH  25  26
ATOM     26  C   UNL     1      -1.730   3.928  25.819  0.00  0.00    +0.022 C 
BRANCH  26  27
ATOM     27  C   UNL     1      -1.989   4.636  25.483  0.00  0.00    +0.002 C 
ATOM     28  C   UNL     1      -2.669   5.004  25.772  0.00  0.00    +0.000 C 
ATOM     29  C   UNL     1      -1.568   4.976  24.861  0.00  0.00    +0.000 C 
ENDBRANCH  26  27
ENDBRANCH  25  26
TORSDOF 7
ENDMDL
MODEL 5
REMARK VINA RESULT:     -10.8      1.392      1.750
REMARK  Name = 
REMARK  7 active torsions:
REMARK  status: ('A' for Active; 'I' for Inactive)
REMARK    1  A    between atoms: C_2  and  C_3
REMARK    2  A    between atoms: C_3  and  N_4
REMARK    3  A    between atoms: C_5  and  C_7
REMARK    4  A    between atoms: N_11  and  C_12
REMARK    5  A    between atoms: C_12  and  C_13
REMARK    6  A    between atoms: C_25  and  C_26
REMARK    7  A    between atoms: C_26  and  C_27
REMARK                            x       y       z     vdW  Elec       q    Type
REMARK                         _______ _______ _______ _____ _____    ______ ____
ROOT
ATOM      7  C   UNL     1      -2.501   2.148  24.363  0.00  0.00    +0.155 C 
ATOM      8  C   UNL     1      -2.376   1.364  24.586  0.00  0.00    +0.055 C 
ATOM      9  C   UNL     1      -2.930   0.802  24.827  0.00  0.00    -0.002 A 
ATOM     10  C   UNL     1      -2.732   0.029  25.037  0.00  0.00    +0.072 A 
ATOM     11  N   UNL     1      -3.427  -0.364  25.246  0.00  0.00    -0.322 N 
ATOM     19  C   UNL     1      -4.054   0.166  25.166  0.00  0.00    +0.060 A 
ATOM     20  C   UNL     1      -3.747   0.887  24.907  0.00  0.00    +0.011 A 
ATOM     21  C   UNL     1      -4.211   1.555  24.764  0.00  0.00    -0.005 A 
ATOM     22  C   UNL     1      -5.061   1.447  24.906  0.00  0.00    -0.003 A 
ATOM     23  C   UNL     1      -5.369   0.727  25.164  0.00  0.00    +0.001 A 
ATOM     24  C   UNL     1      -4.865   0.086  25.294  0.00  0.00    +0.017 A 
ATOM     25  C   UNL     1      -3.973   2.301  24.506  0.00  0.00    +0.095 C 
ATOM     30  N   UNL     1      -3.212   2.565  24.328  0.00  0.00    -0.207 NA
ENDROOT
BRANCH   7   5
ATOM      4  N   UNL     1      -1.472   3.085  24.688  0.00  0.00    -0.204 NA
ATOM      5  C   UNL     1      -1.827   2.572  24.148  0.00  0.00    +0.258 C 
ATOM      6  O   UNL     1      -1.508   2.482  23.392  0.00  0.00    -0.272 OA
BRANCH   4   3
ATOM      3  C   UNL     1      -0.797   3.508  24.471  0.00  0.00    +0.115 C 
BRANCH   3   2
ATOM      1  C   UNL     1      -0.576   4.875  24.827  0.00  0.00    +0.002 C 
ATOM      2  C   UNL     1      -0.481   4.071  24.985  0.00  0.00    +0.023 C 
ENDBRANCH   3   2
ENDBRANCH   4   3
ENDBRANCH   7   5
BRANCH  11  12
ATOM     12  C   UNL     1      -3.485  -1.149  25.492  0.00  0.00    +0.134 C 
BRANCH  12  13
ATOM     13  C   UNL     1      -3.097  -1.743  25.072  0.00  0.00    +0.020 A 
ATOM     14  C   UNL     1      -3.519  -2.220  24.548  0.00  0.00    +0.001 A 
ATOM     15  C   UNL     1      -3.131  -2.815  24.127  0.00  0.00    +0.020 A 
ATOM     16  C   UNL     1      -2.321  -2.932  24.232  0.00  0.00    +0.099 A 
ATOM     17  N   UNL     1      -1.899  -2.455  24.757  0.00  0.00    -0.243 NA
ATOM     18  C   UNL     1      -2.287  -1.861  25.177  0.00  0.00    +0.096 A 
ENDBRANCH  12  13
ENDBRANCH  11  12
BRANCH  25  26
ATOM     26  C   UNL     1      -4.575   2.857  24.415  0.00  0.00    +0.022 C 
BRANCH  26  27
ATOM     27  C   UNL     1      -4.446   3.644  24.629  0.00  0.00    +0.002 C 
ATOM     28  C   UNL     1      -4.456   3.861  25.425  0.00  0.00    +0.000 C 
ATOM     29  C   UNL     1      -4.307   4.212  24.047  0.00  0.00    +0.000 C 
ENDBRANCH  26  27
ENDBRANCH  25  26
TORSDOF 7
ENDMDL
MODEL 6
REMARK VINA RESULT:     -10.8      1.592      3.628
REMARK  Name = 
REMARK  7 active torsions:
REMARK  status: ('A' for Active; 'I' for Inactive)
REMARK    1  A    between atoms: C_2  and  C_3
REMARK    2  A    between atoms: C_3  and  N_4
REMARK    3  A    between atoms: C_5  and  C_7
REMARK    4  A    between atoms: N_11  and  C_12
REMARK    5  A    between atoms: C_12  and  C_13
REMARK    6  A    between atoms: C_25  and  C_26
REMARK    7  A    between atoms: C_26  and  C_27
REMARK                            x       y       z     vdW  Elec       q    Type
REMARK                         _______ _______ _______ _____ _____    ______ ____
ROOT
ATOM      7  C   UNL     1      -1.502   0.864  24.680  0.00  0.00    +0.155 C 
ATOM      8  C   UNL     1      -2.228   1.256  24.687  0.00  0.00    +0.055 C 
ATOM      9  C   UNL     1      -2.987   0.935  24.642  0.00  0.00    -0.002 A 
ATOM     10  C   UNL     1      -3.674   1.390  24.655  0.00  0.00    +0.072 A 
ATOM     11  N   UNL     1      -4.320   0.879  24.600  0.00  0.00    -0.322 N 
ATOM     19  C   UNL     1      -4.031   0.108  24.553  0.00  0.00    +0.060 A 
ATOM     20  C   UNL     1      -3.207   0.142  24.579  0.00  0.00    +0.011 A 
ATOM     21  C   UNL     1      -2.722  -0.525  24.546  0.00  0.00    -0.005 A 
ATOM     22  C   UNL     1      -3.144  -1.281  24.480  0.00  0.00    -0.003 A 
ATOM     23  C   UNL     1      -3.968  -1.316  24.453  0.00  0.00    +0.001 A 
ATOM     24  C   UNL     1      -4.411  -0.621  24.490  0.00  0.00    +0.017 A 
ATOM     25  C   UNL     1      -1.899  -0.564  24.567  0.00  0.00    +0.095 C 
ATOM     30  N   UNL     1      -1.356   0.053  24.626  0.00  0.00    -0.207 NA
ENDROOT
BRANCH   7   5
ATOM      4  N   UNL     1      -0.625   1.681  25.457  0.00  0.00    -0.204 NA
ATOM      5  C   UNL     1      -0.834   1.346  24.734  0.00  0.00    +0.258 C 
ATOM      6  O   UNL     1      -0.376   1.491  24.062  0.00  0.00    -0.272 OA
BRANCH   4   3
ATOM      3  C   UNL     1       0.044   2.162  25.510  0.00  0.00    +0.115 C 
BRANCH   3   2
ATOM      1  C   UNL     1       0.462   2.515  26.831  0.00  0.00    +0.002 C 
ATOM      2  C   UNL     1       0.104   2.719  26.116  0.00  0.00    +0.023 C 
ENDBRANCH   3   2
ENDBRANCH   4   3
ENDBRANCH   7   5
BRANCH  11  12
ATOM     12  C   UNL     1      -5.115   1.100  24.592  0.00  0.00    +0.134 C 
BRANCH  12  13
ATOM     13  C   UNL     1      -5.360   1.773  25.000  0.00  0.00    +0.020 A 
ATOM     14  C   UNL     1      -5.716   1.700  25.741  0.00  0.00    +0.001 A 
ATOM     15  C   UNL     1      -5.962   2.374  26.149  0.00  0.00    +0.020 A 
ATOM     16  C   UNL     1      -5.851   3.120  25.816  0.00  0.00    +0.099 A 
ATOM     17  N   UNL     1      -5.495   3.194  25.075  0.00  0.00    -0.243 NA
ATOM     18  C   UNL     1      -5.250   2.520  24.667  0.00  0.00    +0.096 A 
ENDBRANCH  12  13
ENDBRANCH  11  12
BRANCH  25  26
ATOM     26  C   UNL     1      -1.575  -1.322  24.522  0.00  0.00    +0.022 C 
BRANCH  26  27
ATOM     27  C   UNL     1      -0.828  -1.470  24.840  0.00  0.00    +0.002 C 
ATOM     28  C   UNL     1      -0.743  -1.597  25.652  0.00  0.00    +0.000 C 
ATOM     29  C   UNL     1      -0.167  -1.491  24.347  0.00  0.00    +0.000 C 
ENDBRANCH  26  27
ENDBRANCH  25  26
TORSDOF 7
ENDMDL
MODEL 7
REMARK VINA RESULT:     -10.5      1.694      3.303
REMARK  Name = 
REMARK  7 active torsions:
REMARK  status: ('A' for Active; 'I' for Inactive)
REMARK    1  A    between atoms: C_2  and  C_3
REMARK    2  A    between atoms: C_3  and  N_4
REMARK    3  A    between atoms: C_5  and  C_7
REMARK    4  A    between atoms: N_11  and  C_12
REMARK    5  A    between atoms: C_12  and  C_13
REMARK    6  A    between atoms: C_25  and  C_26
REMARK    7  A    between atoms: C_26  and  C_27
REMARK                            x       y       z     vdW  Elec       q    Type
REMARK                         _______ _______ _______ _____ _____    ______ ____
ROOT
ATOM      7  C   UNL     1      -1.667   1.337  24.608  0.00  0.00    +0.155 C 
ATOM      8  C   UNL     1      -2.482   1.454  24.558  0.00  0.00    +0.055 C 
ATOM      9  C   UNL     1      -2.922   2.117  24.775  0.00  0.00    -0.002 A 
ATOM     10  C   UNL     1      -3.742   2.165  24.697  0.00  0.00    +0.072 A 
ATOM     11  N   UNL     1      -3.981   2.907  24.969  0.00  0.00    -0.322 N 
ATOM     19  C   UNL     1      -3.309   3.317  25.216  0.00  0.00    +0.060 A 
ATOM     20  C   UNL     1      -2.654   2.829  25.096  0.00  0.00    +0.011 A 
ATOM     21  C   UNL     1      -1.881   3.052  25.278  0.00  0.00    -0.005 A 
ATOM     22  C   UNL     1      -1.799   3.850  25.611  0.00  0.00    -0.003 A 
ATOM     23  C   UNL     1      -2.453   4.338  25.732  0.00  0.00    +0.001 A 
ATOM     24  C   UNL     1      -3.208   4.071  25.534  0.00  0.00    +0.017 A 
ATOM     25  C   UNL     1      -1.185   2.620  25.185  0.00  0.00    +0.095 C 
ATOM     30  N   UNL     1      -1.090   1.857  24.887  0.00  0.00    -0.207 NA
ENDROOT
BRANCH   7   5
ATOM      4  N   UNL     1      -1.483  -0.064  24.817  0.00  0.00    -0.204 NA
ATOM      5  C   UNL     1      -1.393   0.605  24.344  0.00  0.00    +0.258 C 
ATOM      6  O   UNL     1      -1.028   0.544  23.606  0.00  0.00    -0.272 OA
BRANCH   4   3
ATOM      3  C   UNL     1      -1.208  -0.796  24.552  0.00  0.00    +0.115 C 
BRANCH   3   2
ATOM      1  C   UNL     1      -1.423  -2.190  24.786  0.00  0.00    +0.002 C 
ATOM      2  C   UNL     1      -1.203  -1.444  25.063  0.00  0.00    +0.023 C 
ENDBRANCH   3   2
ENDBRANCH   4   3
ENDBRANCH   7   5
BRANCH  11  12
ATOM     12  C   UNL     1      -4.756   3.189  24.992  0.00  0.00    +0.134 C 
BRANCH  12  13
ATOM     13  C   UNL     1      -5.359   2.716  25.296  0.00  0.00    +0.020 A 
ATOM     14  C   UNL     1      -5.762   2.193  24.802  0.00  0.00    +0.001 A 
ATOM     15  C   UNL     1      -6.366   1.720  25.107  0.00  0.00    +0.020 A 
ATOM     16  C   UNL     1      -6.565   1.770  25.906  0.00  0.00    +0.099 A 
ATOM     17  N   UNL     1      -6.162   2.293  26.400  0.00  0.00    -0.243 NA
ATOM     18  C   UNL     1      -5.558   2.766  26.095  0.00  0.00    +0.096 A 
ENDBRANCH  12  13
ENDBRANCH  11  12
BRANCH  25  26
ATOM     26  C   UNL     1      -0.493   3.000  25.422  0.00  0.00    +0.022 C 
BRANCH  26  27
ATOM     27  C   UNL     1       0.123   2.564  25.758  0.00  0.00    +0.002 C 
ATOM     28  C   UNL     1       0.107   2.379  26.562  0.00  0.00    +0.000 C 
ATOM     29  C   UNL     1       0.754   2.314  25.289  0.00  0.00    +0.000 C 
ENDBRANCH  26  27
ENDBRANCH  25  26
TORSDOF 7
ENDMDL
