MODEL 1
REMARK VINA RESULT:     -13.5      0.000      0.000
REMARK  Name = 
REMARK  2 active torsions:
REMARK  status: ('A' for Active; 'I' for Inactive)
REMARK    1  A    between atoms: C_2  and  C_21
REMARK    2  A    between atoms: N_3  and  C_4
REMARK                            x       y       z     vdW  Elec       q    Type
REMARK                         _______ _______ _______ _____ _____    ______ ____
ROOT
ATOM      4  C   UNL     1      -3.137   0.820  24.379  0.00  0.00    +0.099 C 
ATOM      5  C   UNL     1      -3.738   1.309  24.661  0.00  0.00    +0.043 C 
ATOM      6  C   UNL     1      -3.576   2.094  24.854  0.00  0.00    +0.096 C 
ATOM      7  N   UNL     1      -2.811   2.390  24.766  0.00  0.00    -0.269 N 
ATOM      8  C   UNL     1      -2.209   1.901  24.485  0.00  0.00    +0.156 C 
ATOM      9  C   UNL     1      -2.372   1.116  24.291  0.00  0.00    +0.051 C 
ATOM     10  C   UNL     1      -1.415   2.085  24.357  0.00  0.00    +0.264 C 
ATOM     11  O   UNL     1      -0.947   1.470  24.069  0.00  0.00    -0.271 OA
ATOM     12  N   UNL     1      -1.026   2.803  24.479  0.00  0.00    -0.178 NA
ATOM     13  C   UNL     1      -1.336   3.514  24.759  0.00  0.00    +0.078 A 
ATOM     14  C   UNL     1      -0.757   4.101  24.799  0.00  0.00    +0.017 A 
ATOM     15  C   UNL     1      -0.953   4.856  25.066  0.00  0.00    +0.001 A 
ATOM     16  C   UNL     1      -1.727   5.025  25.293  0.00  0.00    +0.000 A 
ATOM     17  C   UNL     1      -2.307   4.439  25.254  0.00  0.00    +0.006 A 
ATOM     18  C   UNL     1      -2.111   3.684  24.986  0.00  0.00    +0.069 A 
ATOM     19  C   UNL     1      -2.767   3.183  24.989  0.00  0.00    +0.251 C 
ATOM     20  O   UNL     1      -3.473   3.521  25.250  0.00  0.00    -0.270 OA
ENDROOT
BRANCH   4   3
ATOM      1  O   UNL     1      -3.468  -0.272  25.571  0.00  0.00    -0.268 OA
ATOM      2  C   UNL     1      -3.466  -0.511  24.781  0.00  0.00    +0.265 C 
ATOM      3  N   UNL     1      -3.300   0.035  24.186  0.00  0.00    -0.203 NA
BRANCH   2  21
ATOM     21  C   UNL     1      -3.629  -1.296  24.588  0.00  0.00    +0.058 A 
ATOM     22  C   UNL     1      -4.135  -1.470  23.960  0.00  0.00    +0.025 A 
ATOM     23  C   UNL     1      -4.298  -2.255  23.767  0.00  0.00    +0.099 A 
ATOM     24  N   UNL     1      -3.954  -2.867  24.201  0.00  0.00    -0.242 NA
ATOM     25  C   UNL     1      -3.448  -2.693  24.829  0.00  0.00    +0.099 A 
ATOM     26  C   UNL     1      -3.285  -1.909  25.023  0.00  0.00    +0.025 A 
ENDBRANCH   2  21
ENDBRANCH   4   3
TORSDOF 2
ENDMDL
MODEL 2
REMARK VINA RESULT:     -13.1      1.027      5.112
REMARK  Name = 
REMARK  2 active torsions:
REMARK  status: ('A' for Active; 'I' for Inactive)
REMARK    1  A    between atoms: C_2  and  C_21
REMARK    2  A    between atoms: N_3  and  C_4
REMARK                            x       y       z     vdW  Elec       q    Type
REMARK                         _______ _______ _______ _____ _____    ______ ____
ROOT
ATOM      4  C   UNL     1      -2.771   1.639  24.979  0.00  0.00    +0.099 C 
ATOM      5  C   UNL     1      -3.502   1.609  24.598  0.00  0.00    +0.043 C 
ATOM      6  C   UNL     1      -3.830   0.881  24.390  0.00  0.00    +0.096 C 
ATOM      7  N   UNL     1      -3.426   0.182  24.566  0.00  0.00    -0.269 N 
ATOM      8  C   UNL     1      -2.696   0.213  24.947  0.00  0.00    +0.156 C 
ATOM      9  C   UNL     1      -2.368   0.941  25.154  0.00  0.00    +0.051 C 
ATOM     10  C   UNL     1      -2.206  -0.413  25.171  0.00  0.00    +0.264 C 
ATOM     11  O   UNL     1      -1.504  -0.201  25.547  0.00  0.00    -0.271 OA
ATOM     12  N   UNL     1      -2.327  -1.223  25.068  0.00  0.00    -0.178 NA
ATOM     13  C   UNL     1      -2.966  -1.607  24.716  0.00  0.00    +0.078 A 
ATOM     14  C   UNL     1      -2.868  -2.427  24.726  0.00  0.00    +0.017 A 
ATOM     15  C   UNL     1      -3.447  -2.915  24.400  0.00  0.00    +0.001 A 
ATOM     16  C   UNL     1      -4.124  -2.585  24.064  0.00  0.00    +0.000 A 
ATOM     17  C   UNL     1      -4.223  -1.765  24.054  0.00  0.00    +0.006 A 
ATOM     18  C   UNL     1      -3.643  -1.277  24.380  0.00  0.00    +0.069 A 
ATOM     19  C   UNL     1      -3.848  -0.480  24.313  0.00  0.00    +0.251 C 
ATOM     20  O   UNL     1      -4.570  -0.326  23.945  0.00  0.00    -0.270 OA
ENDROOT
BRANCH   4   3
ATOM      1  O   UNL     1      -2.173   2.637  23.810  0.00  0.00    -0.268 OA
ATOM      2  C   UNL     1      -2.145   2.866  24.601  0.00  0.00    +0.265 C 
ATOM      3  N   UNL     1      -2.444   2.367  25.186  0.00  0.00    -0.203 NA
BRANCH   2  21
ATOM     21  C   UNL     1      -1.817   3.594  24.808  0.00  0.00    +0.058 A 
ATOM     22  C   UNL     1      -2.304   4.206  25.073  0.00  0.00    +0.025 A 
ATOM     23  C   UNL     1      -1.976   4.934  25.280  0.00  0.00    +0.099 A 
ATOM     24  N   UNL     1      -1.161   5.051  25.222  0.00  0.00    -0.242 NA
ATOM     25  C   UNL     1      -0.674   4.440  24.957  0.00  0.00    +0.099 A 
ATOM     26  C   UNL     1      -1.002   3.712  24.751  0.00  0.00    +0.025 A 
ENDBRANCH   2  21
ENDBRANCH   4   3
TORSDOF 2
ENDMDL
MODEL 3
REMARK VINA RESULT:     -11.0      1.695      2.306
REMARK  Name = 
REMARK  2 active torsions:
REMARK  status: ('A' for Active; 'I' for Inactive)
REMARK    1  A    between atoms: C_2  and  C_21
REMARK    2  A    between atoms: N_3  and  C_4
REMARK                            x       y       z     vdW  Elec       q    Type
REMARK                         _______ _______ _______ _____ _____    ______ ____
ROOT
ATOM      4  C   UNL     1      -3.927   0.100  24.582  0.00  0.00    +0.099 C 
ATOM      5  C   UNL     1      -4.718   0.081  24.816  0.00  0.00    +0.043 C 
ATOM      6  C   UNL     1      -5.104   0.779  25.026  0.00  0.00    +0.096 C 
ATOM      7  N   UNL     1      -4.697   1.498  25.003  0.00  0.00    -0.269 N 
ATOM      8  C   UNL     1      -3.907   1.516  24.770  0.00  0.00    +0.156 C 
ATOM      9  C   UNL     1      -3.522   0.818  24.559  0.00  0.00    +0.051 C 
ATOM     10  C   UNL     1      -3.404   2.168  24.709  0.00  0.00    +0.264 C 
ATOM     11  O   UNL     1      -2.636   2.005  24.457  0.00  0.00    -0.271 OA
ATOM     12  N   UNL     1      -3.568   2.961  24.867  0.00  0.00    -0.178 NA
ATOM     13  C   UNL     1      -4.276   3.298  25.124  0.00  0.00    +0.078 A 
ATOM     14  C   UNL     1      -4.205   4.116  25.215  0.00  0.00    +0.017 A 
ATOM     15  C   UNL     1      -4.851   4.560  25.469  0.00  0.00    +0.001 A 
ATOM     16  C   UNL     1      -5.569   4.188  25.633  0.00  0.00    +0.000 A 
ATOM     17  C   UNL     1      -5.641   3.370  25.542  0.00  0.00    +0.006 A 
ATOM     18  C   UNL     1      -4.993   2.927  25.288  0.00  0.00    +0.069 A 
ATOM     19  C   UNL     1      -5.181   2.125  25.234  0.00  0.00    +0.251 C 
ATOM     20  O   UNL     1      -5.955   1.924  25.438  0.00  0.00    -0.270 OA
ENDROOT
BRANCH   4   3
ATOM      1  O   UNL     1      -3.541  -1.010  25.739  0.00  0.00    -0.268 OA
ATOM      2  C   UNL     1      -3.349  -1.154  24.950  0.00  0.00    +0.265 C 
ATOM      3  N   UNL     1      -3.543  -0.598  24.371  0.00  0.00    -0.203 NA
BRANCH   2  21
ATOM     21  C   UNL     1      -2.964  -1.852  24.739  0.00  0.00    +0.058 A 
ATOM     22  C   UNL     1      -2.142  -1.867  24.676  0.00  0.00    +0.025 A 
ATOM     23  C   UNL     1      -1.757  -2.565  24.465  0.00  0.00    +0.099 A 
ATOM     24  N   UNL     1      -2.195  -3.250  24.317  0.00  0.00    -0.242 NA
ATOM     25  C   UNL     1      -3.017  -3.234  24.380  0.00  0.00    +0.099 A 
ATOM     26  C   UNL     1      -3.402  -2.536  24.591  0.00  0.00    +0.025 A 
ENDBRANCH   2  21
ENDBRANCH   4   3
TORSDOF 2
ENDMDL
MODEL 4
REMARK VINA RESULT:     -10.7      1.982      3.766
REMARK  Name = 
REMARK  2 active torsions:
REMARK  status: ('A' for Active; 'I' for Inactive)
REMARK    1  A    between atoms: C_2  and  C_21
REMARK    2  A    between atoms: N_3  and  C_4
REMARK                            x       y       z     vdW  Elec       q    Type
REMARK                         _______ _______ _______ _____ _____    ______ ____
ROOT
ATOM      4  C   UNL     1      -1.776   1.647  23.942  0.00  0.00    +0.099 C 
ATOM      5  C   UNL     1      -1.748   2.400  24.276  0.00  0.00    +0.043 C 
ATOM      6  C   UNL     1      -2.422   2.724  24.624  0.00  0.00    +0.096 C 
ATOM      7  N   UNL     1      -3.126   2.293  24.638  0.00  0.00    -0.269 N 
ATOM      8  C   UNL     1      -3.155   1.540  24.303  0.00  0.00    +0.156 C 
ATOM      9  C   UNL     1      -2.480   1.216  23.955  0.00  0.00    +0.051 C 
ATOM     10  C   UNL     1      -3.796   1.021  24.258  0.00  0.00    +0.264 C 
ATOM     11  O   UNL     1      -3.647   0.301  23.886  0.00  0.00    -0.271 OA
ATOM     12  N   UNL     1      -4.565   1.129  24.536  0.00  0.00    -0.178 NA
ATOM     13  C   UNL     1      -4.884   1.781  24.928  0.00  0.00    +0.078 A 
ATOM     14  C   UNL     1      -5.680   1.663  25.111  0.00  0.00    +0.017 A 
ATOM     15  C   UNL     1      -6.103   2.251  25.505  0.00  0.00    +0.001 A 
ATOM     16  C   UNL     1      -5.732   2.957  25.715  0.00  0.00    +0.000 A 
ATOM     17  C   UNL     1      -4.936   3.075  25.532  0.00  0.00    +0.006 A 
ATOM     18  C   UNL     1      -4.513   2.487  25.138  0.00  0.00    +0.069 A 
ATOM     19  C   UNL     1      -3.730   2.715  25.009  0.00  0.00    +0.251 C 
ATOM     20  O   UNL     1      -3.524   3.463  25.288  0.00  0.00    -0.270 OA
ENDROOT
BRANCH   4   3
ATOM      1  O   UNL     1      -0.555   1.072  24.889  0.00  0.00    -0.268 OA
ATOM      2  C   UNL     1      -0.491   1.036  24.068  0.00  0.00    +0.265 C 
ATOM      3  N   UNL     1      -1.102   1.323  23.594  0.00  0.00    -0.203 NA
BRANCH   2  21
ATOM     21  C   UNL     1       0.183   0.713  23.720  0.00  0.00    +0.058 A 
ATOM     22  C   UNL     1       0.880   1.152  23.684  0.00  0.00    +0.025 A 
ATOM     23  C   UNL     1       1.555   0.829  23.336  0.00  0.00    +0.099 A 
ATOM     24  N   UNL     1       1.533   0.065  23.024  0.00  0.00    -0.242 NA
ATOM     25  C   UNL     1       0.835  -0.375  23.060  0.00  0.00    +0.099 A 
ATOM     26  C   UNL     1       0.161  -0.051  23.407  0.00  0.00    +0.025 A 
ENDBRANCH   2  21
ENDBRANCH   4   3
TORSDOF 2
ENDMDL
MODEL 5
REMARK VINA RESULT:     -10.4      2.059      4.937
REMARK  Name = 
REMARK  2 active torsions:
REMARK  status: ('A' for Active; 'I' for Inactive)
REMARK    1  A    between atoms: C_2  and  C_21
REMARK    2  A    between atoms: N_3  and  C_4
REMARK                            x       y       z     vdW  Elec       q    Type
REMARK                         _______ _______ _______ _____ _____    ______ ____
ROOT
ATOM      4  C   UNL     1      -4.086   1.046  24.675  0.00  0.00    +0.099 C 
ATOM      5  C   UNL     1      -4.667   0.512  24.433  0.00  0.00    +0.043 C 
ATOM      6  C   UNL     1      -4.481  -0.286  24.338  0.00  0.00    +0.096 C 
ATOM      7  N   UNL     1      -3.713  -0.551  24.485  0.00  0.00    -0.269 N 
ATOM      8  C   UNL     1      -3.132  -0.017  24.727  0.00  0.00    +0.156 C 
ATOM      9  C   UNL     1      -3.319   0.781  24.822  0.00  0.00    +0.051 C 
ATOM     10  C   UNL     1      -2.339  -0.164  24.901  0.00  0.00    +0.264 C 
ATOM     11  O   UNL     1      -1.896   0.493  25.130  0.00  0.00    -0.271 OA
ATOM     12  N   UNL     1      -1.931  -0.881  24.877  0.00  0.00    -0.178 NA
ATOM     13  C   UNL     1      -2.216  -1.627  24.672  0.00  0.00    +0.078 A 
ATOM     14  C   UNL     1      -1.623  -2.200  24.720  0.00  0.00    +0.017 A 
ATOM     15  C   UNL     1      -1.792  -2.985  24.537  0.00  0.00    +0.001 A 
ATOM     16  C   UNL     1      -2.554  -3.200  24.306  0.00  0.00    +0.000 A 
ATOM     17  C   UNL     1      -3.148  -2.628  24.258  0.00  0.00    +0.006 A 
ATOM     18  C   UNL     1      -2.977  -1.842  24.441  0.00  0.00    +0.069 A 
ATOM     19  C   UNL     1      -3.644  -1.363  24.358  0.00  0.00    +0.251 C 
ATOM     20  O   UNL     1      -4.333  -1.746  24.115  0.00  0.00    -0.270 OA
ENDROOT
BRANCH   4   3
ATOM      1  O   UNL     1      -5.248   1.498  25.755  0.00  0.00    -0.268 OA
ATOM      2  C   UNL     1      -4.854   2.070  25.310  0.00  0.00    +0.265 C 
ATOM      3  N   UNL     1      -4.273   1.843  24.769  0.00  0.00    -0.203 NA
BRANCH   2  21
ATOM     21  C   UNL     1      -5.041   2.867  25.405  0.00  0.00    +0.058 A 
ATOM     22  C   UNL     1      -4.457   3.442  25.309  0.00  0.00    +0.025 A 
ATOM     23  C   UNL     1      -4.643   4.240  25.404  0.00  0.00    +0.099 A 
ATOM     24  N   UNL     1      -5.415   4.464  25.595  0.00  0.00    -0.242 NA
ATOM     25  C   UNL     1      -5.999   3.889  25.690  0.00  0.00    +0.099 A 
ATOM     26  C   UNL     1      -5.812   3.091  25.595  0.00  0.00    +0.025 A 
ENDBRANCH   2  21
ENDBRANCH   4   3
TORSDOF 2
ENDMDL
MODEL 6
REMARK VINA RESULT:      -9.7      2.060      4.032
REMARK  Name = 
REMARK  2 active torsions:
REMARK  status: ('A' for Active; 'I' for Inactive)
REMARK    1  A    between atoms: C_2  and  C_21
REMARK    2  A    between atoms: N_3  and  C_4
REMARK                            x       y       z     vdW  Elec       q    Type
REMARK                         _______ _______ _______ _____ _____    ______ ____
ROOT
ATOM      4  C   UNL     1      -2.530   2.069  24.987  0.00  0.00    +0.099 C 
ATOM      5  C   UNL     1      -1.968   2.645  24.803  0.00  0.00    +0.043 C 
ATOM      6  C   UNL     1      -1.239   2.425  24.488  0.00  0.00    +0.096 C 
ATOM      7  N   UNL     1      -1.071   1.628  24.355  0.00  0.00    -0.269 N 
ATOM      8  C   UNL     1      -1.632   1.052  24.538  0.00  0.00    +0.156 C 
ATOM      9  C   UNL     1      -2.362   1.273  24.854  0.00  0.00    +0.051 C 
ATOM     10  C   UNL     1      -1.577   0.233  24.450  0.00  0.00    +0.264 C 
ATOM     11  O   UNL     1      -2.239  -0.197  24.686  0.00  0.00    -0.271 OA
ATOM     12  N   UNL     1      -0.947  -0.211  24.157  0.00  0.00    -0.178 NA
ATOM     13  C   UNL     1      -0.216   0.053  23.880  0.00  0.00    +0.078 A 
ATOM     14  C   UNL     1       0.259  -0.576  23.635  0.00  0.00    +0.017 A 
ATOM     15  C   UNL     1       1.014  -0.430  23.338  0.00  0.00    +0.001 A 
ATOM     16  C   UNL     1       1.296   0.343  23.285  0.00  0.00    +0.000 A 
ATOM     17  C   UNL     1       0.821   0.973  23.530  0.00  0.00    +0.006 A 
ATOM     18  C   UNL     1       0.065   0.827  23.827  0.00  0.00    +0.069 A 
ATOM     19  C   UNL     1      -0.316   1.528  24.039  0.00  0.00    +0.251 C 
ATOM     20  O   UNL     1       0.116   2.220  23.918  0.00  0.00    -0.270 OA
ENDROOT
BRANCH   4   3
ATOM      1  O   UNL     1      -3.706   2.676  24.001  0.00  0.00    -0.268 OA
ATOM      2  C   UNL     1      -3.847   2.593  24.809  0.00  0.00    +0.265 C 
ATOM      3  N   UNL     1      -3.259   2.290  25.302  0.00  0.00    -0.203 NA
BRANCH   2  21
ATOM     21  C   UNL     1      -4.577   2.814  25.125  0.00  0.00    +0.058 A 
ATOM     22  C   UNL     1      -5.164   2.247  25.242  0.00  0.00    +0.025 A 
ATOM     23  C   UNL     1      -5.893   2.467  25.558  0.00  0.00    +0.099 A 
ATOM     24  N   UNL     1      -6.036   3.256  25.757  0.00  0.00    -0.242 NA
ATOM     25  C   UNL     1      -5.448   3.823  25.639  0.00  0.00    +0.099 A 
ATOM     26  C   UNL     1      -4.719   3.603  25.324  0.00  0.00    +0.025 A 
ENDBRANCH   2  21
ENDBRANCH   4   3
TORSDOF 2
ENDMDL
