MODEL 1
REMARK VINA RESULT:      -9.6      0.000      0.000
REMARK  Name = 
REMARK  7 active torsions:
REMARK  status: ('A' for Active; 'I' for Inactive)
REMARK    1  A    between atoms: C_2  and  C_4
REMARK    2  A    between atoms: C_6  and  C_7
REMARK    3  A    between atoms: C_7  and  C_8
REMARK    4  A    between atoms: C_11  and  C_13
REMARK    5  A    between atoms: C_22  and  C_23
REMARK    6  A    between atoms: C_23  and  N_24
REMARK    7  A    between atoms: N_27  and  C_28
REMARK                            x       y       z     vdW  Elec       q    Type
REMARK                         _______ _______ _______ _____ _____    ______ ____
ROOT
ATOM      4  C   UNL     1      -0.800   1.215  24.461  0.00  0.00    +0.006 C 
ATOM      5  C   UNL     1      -1.518   0.941  24.758  0.00  0.00    +0.005 C 
ATOM      6  C   UNL     1      -1.688   0.133  24.751  0.00  0.00    +0.027 C 
ATOM     19  C   UNL     1      -1.138  -0.400  24.446  0.00  0.00    -0.048 C 
ATOM     20  C   UNL     1      -1.306  -1.208  24.438  0.00  0.00    +0.026 C 
ATOM     21  C   UNL     1      -0.418  -0.126  24.148  0.00  0.00    -0.033 C 
ATOM     22  C   UNL     1      -0.249   0.681  24.156  0.00  0.00    +0.043 C 
ENDROOT
BRANCH   4   2
ATOM      1  C   UNL     1      -0.815   2.489  23.814  0.00  0.00    +0.000 C 
ATOM      2  C   UNL     1      -0.630   2.022  24.468  0.00  0.00    +0.000 C 
ATOM      3  C   UNL     1      -0.275   2.363  25.131  0.00  0.00    +0.000 C 
ENDBRANCH   4   2
BRANCH   6   7
ATOM      7  C   UNL     1      -2.407  -0.140  25.048  0.00  0.00    +0.091 C 
BRANCH   7   8
ATOM      8  C   UNL     1      -3.110   0.234  24.834  0.00  0.00    +0.227 A 
ATOM      9  N   UNL     1      -3.573   0.057  24.175  0.00  0.00    -0.111 NA
ATOM     10  N   UNL     1      -4.224   0.564  24.176  0.00  0.00    -0.107 NA
ATOM     11  C   UNL     1      -4.163   1.056  24.836  0.00  0.00    +0.250 A 
ATOM     12  O   UNL     1      -3.474   0.852  25.243  0.00  0.00    -0.420 OA
BRANCH  11  13
ATOM     13  C   UNL     1      -4.696   1.647  25.052  0.00  0.00    +0.058 A 
ATOM     14  C   UNL     1      -4.522   2.438  24.889  0.00  0.00    +0.025 A 
ATOM     15  C   UNL     1      -5.055   3.029  25.105  0.00  0.00    +0.099 A 
ATOM     16  N   UNL     1      -5.762   2.831  25.483  0.00  0.00    -0.242 NA
ATOM     17  C   UNL     1      -5.934   2.040  25.645  0.00  0.00    +0.099 A 
ATOM     18  C   UNL     1      -5.402   1.449  25.429  0.00  0.00    +0.025 A 
ENDBRANCH  11  13
ENDBRANCH   7   8
ENDBRANCH   6   7
BRANCH  22  23
ATOM     23  C   UNL     1       0.470   0.955  23.858  0.00  0.00    +0.121 C 
BRANCH  23  24
ATOM     24  N   UNL     1       0.946   0.456  23.405  0.00  0.00    -0.187 NA
ATOM     25  C   UNL     1       1.759   0.587  23.364  0.00  0.00    +0.344 C 
ATOM     26  O   UNL     1       2.098   1.217  23.776  0.00  0.00    -0.249 OA
ATOM     27  N   UNL     1       2.235   0.088  22.911  0.00  0.00    -0.161 NA
BRANCH  27  28
ATOM     28  C   UNL     1       3.049   0.219  22.869  0.00  0.00    +0.075 A 
ATOM     29  C   UNL     1       3.567  -0.276  23.278  0.00  0.00    +0.017 A 
ATOM     30  C   UNL     1       4.380  -0.145  23.236  0.00  0.00    +0.001 A 
ATOM     31  C   UNL     1       4.675   0.480  22.787  0.00  0.00    +0.000 A 
ATOM     32  C   UNL     1       4.156   0.975  22.378  0.00  0.00    +0.001 A 
ATOM     33  C   UNL     1       3.343   0.844  22.419  0.00  0.00    +0.017 A 
ENDBRANCH  27  28
ENDBRANCH  23  24
ENDBRANCH  22  23
TORSDOF 7
ENDMDL
MODEL 2
REMARK VINA RESULT:      -9.1      0.944      6.630
REMARK  Name = 
REMARK  7 active torsions:
REMARK  status: ('A' for Active; 'I' for Inactive)
REMARK    1  A    between atoms: C_2  and  C_4
REMARK    2  A    between atoms: C_6  and  C_7
REMARK    3  A    between atoms: C_7  and  C_8
REMARK    4  A    between atoms: C_11  and  C_13
REMARK    5  A    between atoms: C_22  and  C_23
REMARK    6  A    between atoms: C_23  and  N_24
REMARK    7  A    between atoms: N_27  and  C_28
REMARK                            x       y       z     vdW  Elec       q    Type
REMARK                         _______ _______ _______ _____ _____    ______ ____
ROOT
ATOM      4  C   UNL     1      -0.449   1.368  24.447  0.00  0.00    +0.006 C 
ATOM      5  C   UNL     1       0.106   0.806  24.211  0.00  0.00    +0.005 C 
ATOM      6  C   UNL     1      -0.138   0.043  24.010  0.00  0.00    +0.027 C 
ATOM     19  C   UNL     1      -0.938  -0.156  24.045  0.00  0.00    -0.048 C 
ATOM     20  C   UNL     1      -1.182  -0.918  23.844  0.00  0.00    +0.026 C 
ATOM     21  C   UNL     1      -1.494   0.407  24.281  0.00  0.00    -0.033 C 
ATOM     22  C   UNL     1      -1.249   1.169  24.481  0.00  0.00    +0.043 C 
ENDROOT
BRANCH   4   2
ATOM      1  C   UNL     1      -0.204   2.727  24.078  0.00  0.00    +0.000 C 
ATOM      2  C   UNL     1      -0.205   2.130  24.648  0.00  0.00    +0.000 C 
ATOM      3  C   UNL     1       0.037   2.295  25.419  0.00  0.00    +0.000 C 
ENDBRANCH   4   2
BRANCH   6   7
ATOM      7  C   UNL     1       0.417  -0.519  23.775  0.00  0.00    +0.091 C 
BRANCH   7   8
ATOM      8  C   UNL     1       1.047  -0.299  23.290  0.00  0.00    +0.227 A 
ATOM      9  N   UNL     1       1.016  -0.192  22.473  0.00  0.00    -0.111 NA
ATOM     10  N   UNL     1       1.769   0.026  22.215  0.00  0.00    -0.107 NA
ATOM     11  C   UNL     1       2.266   0.054  22.873  0.00  0.00    +0.250 A 
ATOM     12  O   UNL     1       1.820  -0.147  23.538  0.00  0.00    -0.420 OA
BRANCH  11  13
ATOM     13  C   UNL     1       3.067   0.248  22.868  0.00  0.00    +0.058 A 
ATOM     14  C   UNL     1       3.630  -0.319  23.074  0.00  0.00    +0.025 A 
ATOM     15  C   UNL     1       4.432  -0.125  23.069  0.00  0.00    +0.099 A 
ATOM     16  N   UNL     1       4.671   0.636  22.857  0.00  0.00    -0.242 NA
ATOM     17  C   UNL     1       4.108   1.203  22.651  0.00  0.00    +0.099 A 
ATOM     18  C   UNL     1       3.306   1.008  22.656  0.00  0.00    +0.025 A 
ENDBRANCH  11  13
ENDBRANCH   7   8
ENDBRANCH   6   7
BRANCH  22  23
ATOM     23  C   UNL     1      -1.805   1.732  24.717  0.00  0.00    +0.121 C 
BRANCH  23  24
ATOM     24  N   UNL     1      -2.562   1.725  24.390  0.00  0.00    -0.187 NA
ATOM     25  C   UNL     1      -3.195   2.048  24.809  0.00  0.00    +0.344 C 
ATOM     26  O   UNL     1      -3.071   2.378  25.556  0.00  0.00    -0.249 OA
ATOM     27  N   UNL     1      -3.952   2.042  24.482  0.00  0.00    -0.161 NA
BRANCH  27  28
ATOM     28  C   UNL     1      -4.586   2.365  24.902  0.00  0.00    +0.075 A 
ATOM     29  C   UNL     1      -4.672   3.184  24.953  0.00  0.00    +0.017 A 
ATOM     30  C   UNL     1      -5.305   3.506  25.372  0.00  0.00    +0.001 A 
ATOM     31  C   UNL     1      -5.851   3.011  25.740  0.00  0.00    +0.000 A 
ATOM     32  C   UNL     1      -5.764   2.192  25.689  0.00  0.00    +0.001 A 
ATOM     33  C   UNL     1      -5.132   1.869  25.270  0.00  0.00    +0.017 A 
ENDBRANCH  27  28
ENDBRANCH  23  24
ENDBRANCH  22  23
TORSDOF 7
ENDMDL
MODEL 3
REMARK VINA RESULT:      -8.8      2.694      4.435
REMARK  Name = 
REMARK  7 active torsions:
REMARK  status: ('A' for Active; 'I' for Inactive)
REMARK    1  A    between atoms: C_2  and  C_4
REMARK    2  A    between atoms: C_6  and  C_7
REMARK    3  A    between atoms: C_7  and  C_8
REMARK    4  A    between atoms: C_11  and  C_13
REMARK    5  A    between atoms: C_22  and  C_23
REMARK    6  A    between atoms: C_23  and  N_24
REMARK    7  A    between atoms: N_27  and  C_28
REMARK                            x       y       z     vdW  Elec       q    Type
REMARK                         _______ _______ _______ _____ _____    ______ ____
ROOT
ATOM      4  C   UNL     1      -0.187   0.244  24.212  0.00  0.00    +0.006 C 
ATOM      5  C   UNL     1      -0.331  -0.537  24.433  0.00  0.00    +0.005 C 
ATOM      6  C   UNL     1      -0.663  -0.703  25.170  0.00  0.00    +0.027 C 
ATOM     19  C   UNL     1      -0.850  -0.087  25.686  0.00  0.00    -0.048 C 
ATOM     20  C   UNL     1      -1.182  -0.252  26.423  0.00  0.00    +0.026 C 
ATOM     21  C   UNL     1      -0.705   0.695  25.465  0.00  0.00    -0.033 C 
ATOM     22  C   UNL     1      -0.374   0.860  24.728  0.00  0.00    +0.043 C 
ENDROOT
BRANCH   4   2
ATOM      1  C   UNL     1      -0.342   0.536  22.822  0.00  0.00    +0.000 C 
ATOM      2  C   UNL     1       0.145   0.410  23.475  0.00  0.00    +0.000 C 
ATOM      3  C   UNL     1       0.965   0.451  23.392  0.00  0.00    +0.000 C 
ENDBRANCH   4   2
BRANCH   6   7
ATOM      7  C   UNL     1      -0.808  -1.484  25.392  0.00  0.00    +0.091 C 
BRANCH   7   8
ATOM      8  C   UNL     1      -1.364  -1.933  24.980  0.00  0.00    +0.227 A 
ATOM      9  N   UNL     1      -1.225  -2.655  24.606  0.00  0.00    -0.111 NA
ATOM     10  N   UNL     1      -1.933  -2.906  24.265  0.00  0.00    -0.107 NA
ATOM     11  C   UNL     1      -2.510  -2.340  24.427  0.00  0.00    +0.250 A 
ATOM     12  O   UNL     1      -2.159  -1.738  24.869  0.00  0.00    -0.420 OA
BRANCH  11  13
ATOM     13  C   UNL     1      -3.299  -2.369  24.190  0.00  0.00    +0.058 A 
ATOM     14  C   UNL     1      -3.712  -1.670  24.044  0.00  0.00    +0.025 A 
ATOM     15  C   UNL     1      -4.501  -1.700  23.806  0.00  0.00    +0.099 A 
ATOM     16  N   UNL     1      -4.878  -2.428  23.714  0.00  0.00    -0.242 NA
ATOM     17  C   UNL     1      -4.465  -3.127  23.861  0.00  0.00    +0.099 A 
ATOM     18  C   UNL     1      -3.675  -3.097  24.098  0.00  0.00    +0.025 A 
ENDBRANCH  11  13
ENDBRANCH   7   8
ENDBRANCH   6   7
BRANCH  22  23
ATOM     23  C   UNL     1      -0.229   1.642  24.507  0.00  0.00    +0.121 C 
BRANCH  23  24
ATOM     24  N   UNL     1      -0.249   2.242  25.073  0.00  0.00    -0.187 NA
ATOM     25  C   UNL     1      -0.620   2.958  24.902  0.00  0.00    +0.344 C 
ATOM     26  O   UNL     1      -0.970   3.076  24.164  0.00  0.00    -0.249 OA
ATOM     27  N   UNL     1      -0.640   3.558  25.469  0.00  0.00    -0.161 NA
BRANCH  27  28
ATOM     28  C   UNL     1      -1.011   4.275  25.297  0.00  0.00    +0.075 A 
ATOM     29  C   UNL     1      -0.595   4.872  24.907  0.00  0.00    +0.017 A 
ATOM     30  C   UNL     1      -0.966   5.588  24.736  0.00  0.00    +0.001 A 
ATOM     31  C   UNL     1      -1.751   5.708  24.955  0.00  0.00    +0.000 A 
ATOM     32  C   UNL     1      -2.167   5.112  25.345  0.00  0.00    +0.001 A 
ATOM     33  C   UNL     1      -1.797   4.395  25.516  0.00  0.00    +0.017 A 
ENDBRANCH  27  28
ENDBRANCH  23  24
ENDBRANCH  22  23
TORSDOF 7
ENDMDL
MODEL 4
REMARK VINA RESULT:      -8.8      1.289      2.180
REMARK  Name = 
REMARK  7 active torsions:
REMARK  status: ('A' for Active; 'I' for Inactive)
REMARK    1  A    between atoms: C_2  and  C_4
REMARK    2  A    between atoms: C_6  and  C_7
REMARK    3  A    between atoms: C_7  and  C_8
REMARK    4  A    between atoms: C_11  and  C_13
REMARK    5  A    between atoms: C_22  and  C_23
REMARK    6  A    between atoms: C_23  and  N_24
REMARK    7  A    between atoms: N_27  and  C_28
REMARK                            x       y       z     vdW  Elec       q    Type
REMARK                         _______ _______ _______ _____ _____    ______ ____
ROOT
ATOM      4  C   UNL     1      -1.058   1.655  24.911  0.00  0.00    +0.006 C 
ATOM      5  C   UNL     1      -1.621   2.171  25.223  0.00  0.00    +0.005 C 
ATOM      6  C   UNL     1      -1.473   2.983  25.239  0.00  0.00    +0.027 C 
ATOM     19  C   UNL     1      -0.761   3.278  24.944  0.00  0.00    -0.048 C 
ATOM     20  C   UNL     1      -0.613   4.089  24.959  0.00  0.00    +0.026 C 
ATOM     21  C   UNL     1      -0.198   2.761  24.632  0.00  0.00    -0.033 C 
ATOM     22  C   UNL     1      -0.347   1.950  24.616  0.00  0.00    +0.043 C 
ENDROOT
BRANCH   4   2
ATOM      1  C   UNL     1      -1.544   0.498  24.227  0.00  0.00    +0.000 C 
ATOM      2  C   UNL     1      -1.206   0.843  24.895  0.00  0.00    +0.000 C 
ATOM      3  C   UNL     1      -1.015   0.376  25.548  0.00  0.00    +0.000 C 
ENDBRANCH   4   2
BRANCH   6   7
ATOM      7  C   UNL     1      -2.036   3.499  25.550  0.00  0.00    +0.091 C 
BRANCH   7   8
ATOM      8  C   UNL     1      -2.812   3.478  25.272  0.00  0.00    +0.227 A 
ATOM      9  N   UNL     1      -3.123   3.945  24.668  0.00  0.00    -0.111 NA
ATOM     10  N   UNL     1      -3.917   3.743  24.572  0.00  0.00    -0.107 NA
ATOM     11  C   UNL     1      -4.097   3.151  25.117  0.00  0.00    +0.250 A 
ATOM     12  O   UNL     1      -3.414   2.987  25.551  0.00  0.00    -0.420 OA
BRANCH  11  13
ATOM     13  C   UNL     1      -4.831   2.787  25.213  0.00  0.00    +0.058 A 
ATOM     14  C   UNL     1      -5.371   3.085  25.762  0.00  0.00    +0.025 A 
ATOM     15  C   UNL     1      -6.104   2.721  25.858  0.00  0.00    +0.099 A 
ATOM     16  N   UNL     1      -6.299   2.058  25.406  0.00  0.00    -0.242 NA
ATOM     17  C   UNL     1      -5.759   1.761  24.858  0.00  0.00    +0.099 A 
ATOM     18  C   UNL     1      -5.026   2.125  24.762  0.00  0.00    +0.025 A 
ENDBRANCH  11  13
ENDBRANCH   7   8
ENDBRANCH   6   7
BRANCH  22  23
ATOM     23  C   UNL     1       0.217   1.433  24.304  0.00  0.00    +0.121 C 
BRANCH  23  24
ATOM     24  N   UNL     1       0.940   1.725  24.034  0.00  0.00    -0.187 NA
ATOM     25  C   UNL     1       1.472   1.222  23.657  0.00  0.00    +0.344 C 
ATOM     26  O   UNL     1       1.283   0.426  23.549  0.00  0.00    -0.249 OA
ATOM     27  N   UNL     1       2.195   1.514  23.387  0.00  0.00    -0.161 NA
BRANCH  27  28
ATOM     28  C   UNL     1       2.729   1.010  23.009  0.00  0.00    +0.075 A 
ATOM     29  C   UNL     1       3.534   1.053  23.186  0.00  0.00    +0.017 A 
ATOM     30  C   UNL     1       4.066   0.550  22.809  0.00  0.00    +0.001 A 
ATOM     31  C   UNL     1       3.795   0.004  22.254  0.00  0.00    +0.000 A 
ATOM     32  C   UNL     1       2.991  -0.039  22.077  0.00  0.00    +0.001 A 
ATOM     33  C   UNL     1       2.457   0.464  22.454  0.00  0.00    +0.017 A 
ENDBRANCH  27  28
ENDBRANCH  23  24
ENDBRANCH  22  23
TORSDOF 7
ENDMDL
MODEL 5
REMARK VINA RESULT:      -8.6      1.377      2.420
REMARK  Name = 
REMARK  7 active torsions:
REMARK  status: ('A' for Active; 'I' for Inactive)
REMARK    1  A    between atoms: C_2  and  C_4
REMARK    2  A    between atoms: C_6  and  C_7
REMARK    3  A    between atoms: C_7  and  C_8
REMARK    4  A    between atoms: C_11  and  C_13
REMARK    5  A    between atoms: C_22  and  C_23
REMARK    6  A    between atoms: C_23  and  N_24
REMARK    7  A    between atoms: N_27  and  C_28
REMARK                            x       y       z     vdW  Elec       q    Type
REMARK                         _______ _______ _______ _____ _____    ______ ____
ROOT
ATOM      4  C   UNL     1      -1.045   1.384  24.714  0.00  0.00    +0.006 C 
ATOM      5  C   UNL     1      -1.869   1.407  24.699  0.00  0.00    +0.005 C 
ATOM      6  C   UNL     1      -2.268   1.469  23.980  0.00  0.00    +0.027 C 
ATOM     19  C   UNL     1      -1.842   1.507  23.274  0.00  0.00    -0.048 C 
ATOM     20  C   UNL     1      -2.240   1.569  22.554  0.00  0.00    +0.026 C 
ATOM     21  C   UNL     1      -1.017   1.484  23.289  0.00  0.00    -0.033 C 
ATOM     22  C   UNL     1      -0.619   1.423  24.009  0.00  0.00    +0.043 C 
ENDROOT
BRANCH   4   2
ATOM      1  C   UNL     1      -0.546   0.585  25.789  0.00  0.00    +0.000 C 
ATOM      2  C   UNL     1      -0.646   1.322  25.434  0.00  0.00    +0.000 C 
ATOM      3  C   UNL     1      -0.346   1.999  25.798  0.00  0.00    +0.000 C 
ENDBRANCH   4   2
BRANCH   6   7
ATOM      7  C   UNL     1      -3.092   1.492  23.965  0.00  0.00    +0.091 C 
BRANCH   7   8
ATOM      8  C   UNL     1      -3.527   0.836  24.213  0.00  0.00    +0.227 A 
ATOM      9  N   UNL     1      -4.234   0.855  24.637  0.00  0.00    -0.111 NA
ATOM     10  N   UNL     1      -4.476   0.076  24.766  0.00  0.00    -0.107 NA
ATOM     11  C   UNL     1      -3.918  -0.424  24.421  0.00  0.00    +0.250 A 
ATOM     12  O   UNL     1      -3.332   0.045  24.078  0.00  0.00    -0.420 OA
BRANCH  11  13
ATOM     13  C   UNL     1      -3.942  -1.248  24.418  0.00  0.00    +0.058 A 
ATOM     14  C   UNL     1      -3.579  -1.674  25.024  0.00  0.00    +0.025 A 
ATOM     15  C   UNL     1      -3.603  -2.498  25.021  0.00  0.00    +0.099 A 
ATOM     16  N   UNL     1      -3.990  -2.898  24.412  0.00  0.00    -0.242 NA
ATOM     17  C   UNL     1      -4.353  -2.472  23.806  0.00  0.00    +0.099 A 
ATOM     18  C   UNL     1      -4.329  -1.648  23.809  0.00  0.00    +0.025 A 
ENDBRANCH  11  13
ENDBRANCH   7   8
ENDBRANCH   6   7
BRANCH  22  23
ATOM     23  C   UNL     1       0.206   1.400  24.023  0.00  0.00    +0.121 C 
BRANCH  23  24
ATOM     24  N   UNL     1       0.615   0.925  23.486  0.00  0.00    -0.187 NA
ATOM     25  C   UNL     1       1.439   0.941  23.467  0.00  0.00    +0.344 C 
ATOM     26  O   UNL     1       1.856   1.430  23.984  0.00  0.00    -0.249 OA
ATOM     27  N   UNL     1       1.848   0.467  22.929  0.00  0.00    -0.161 NA
BRANCH  27  28
ATOM     28  C   UNL     1       2.673   0.482  22.910  0.00  0.00    +0.075 A 
ATOM     29  C   UNL     1       3.068   1.161  22.656  0.00  0.00    +0.017 A 
ATOM     30  C   UNL     1       3.892   1.176  22.637  0.00  0.00    +0.001 A 
ATOM     31  C   UNL     1       4.322   0.513  22.871  0.00  0.00    +0.000 A 
ATOM     32  C   UNL     1       3.928  -0.166  23.125  0.00  0.00    +0.001 A 
ATOM     33  C   UNL     1       3.103  -0.182  23.144  0.00  0.00    +0.017 A 
ENDBRANCH  27  28
ENDBRANCH  23  24
ENDBRANCH  22  23
TORSDOF 7
ENDMDL
MODEL 6
REMARK VINA RESULT:      -8.5      3.603      5.502
REMARK  Name = 
REMARK  7 active torsions:
REMARK  status: ('A' for Active; 'I' for Inactive)
REMARK    1  A    between atoms: C_2  and  C_4
REMARK    2  A    between atoms: C_6  and  C_7
REMARK    3  A    between atoms: C_7  and  C_8
REMARK    4  A    between atoms: C_11  and  C_13
REMARK    5  A    between atoms: C_22  and  C_23
REMARK    6  A    between atoms: C_23  and  N_24
REMARK    7  A    between atoms: N_27  and  C_28
REMARK                            x       y       z     vdW  Elec       q    Type
REMARK                         _______ _______ _______ _____ _____    ______ ____
ROOT
ATOM      4  C   UNL     1      -3.552   1.909  23.805  0.00  0.00    +0.006 C 
ATOM      5  C   UNL     1      -3.643   2.654  24.145  0.00  0.00    +0.005 C 
ATOM      6  C   UNL     1      -4.195   2.769  24.748  0.00  0.00    +0.027 C 
ATOM     19  C   UNL     1      -4.655   2.137  25.011  0.00  0.00    -0.048 C 
ATOM     20  C   UNL     1      -5.207   2.250  25.613  0.00  0.00    +0.026 C 
ATOM     21  C   UNL     1      -4.565   1.390  24.670  0.00  0.00    -0.033 C 
ATOM     22  C   UNL     1      -4.013   1.277  24.067  0.00  0.00    +0.043 C 
ENDROOT
BRANCH   4   2
ATOM      1  C   UNL     1      -3.202   1.964  22.420  0.00  0.00    +0.000 C 
ATOM      2  C   UNL     1      -3.001   1.795  23.202  0.00  0.00    +0.000 C 
ATOM      3  C   UNL     1      -2.247   1.512  23.381  0.00  0.00    +0.000 C 
ENDBRANCH   4   2
BRANCH   6   7
ATOM      7  C   UNL     1      -4.286   3.514  25.089  0.00  0.00    +0.091 C 
BRANCH   7   8
ATOM      8  C   UNL     1      -3.626   3.922  25.371  0.00  0.00    +0.227 A 
ATOM      9  N   UNL     1      -3.509   4.176  26.147  0.00  0.00    -0.111 NA
ATOM     10  N   UNL     1      -2.778   4.558  26.182  0.00  0.00    -0.107 NA
ATOM     11  C   UNL     1      -2.444   4.540  25.428  0.00  0.00    +0.250 A 
ATOM     12  O   UNL     1      -2.968   4.146  24.927  0.00  0.00    -0.420 OA
BRANCH  11  13
ATOM     13  C   UNL     1      -1.715   4.859  25.213  0.00  0.00    +0.058 A 
ATOM     14  C   UNL     1      -1.047   4.375  25.179  0.00  0.00    +0.025 A 
ATOM     15  C   UNL     1      -0.317   4.693  24.963  0.00  0.00    +0.099 A 
ATOM     16  N   UNL     1      -0.255   5.496  24.782  0.00  0.00    -0.242 NA
ATOM     17  C   UNL     1      -0.922   5.980  24.817  0.00  0.00    +0.099 A 
ATOM     18  C   UNL     1      -1.652   5.661  25.032  0.00  0.00    +0.025 A 
ENDBRANCH  11  13
ENDBRANCH   7   8
ENDBRANCH   6   7
BRANCH  22  23
ATOM     23  C   UNL     1      -3.922   0.531  23.726  0.00  0.00    +0.121 C 
BRANCH  23  24
ATOM     24  N   UNL     1      -4.330  -0.117  24.035  0.00  0.00    -0.187 NA
ATOM     25  C   UNL     1      -3.962  -0.853  24.077  0.00  0.00    +0.344 C 
ATOM     26  O   UNL     1      -3.187  -0.944  23.809  0.00  0.00    -0.249 OA
ATOM     27  N   UNL     1      -4.370  -1.501  24.386  0.00  0.00    -0.161 NA
BRANCH  27  28
ATOM     28  C   UNL     1      -4.002  -2.239  24.427  0.00  0.00    +0.075 A 
ATOM     29  C   UNL     1      -4.125  -2.795  23.831  0.00  0.00    +0.017 A 
ATOM     30  C   UNL     1      -3.757  -3.532  23.873  0.00  0.00    +0.001 A 
ATOM     31  C   UNL     1      -3.267  -3.713  24.510  0.00  0.00    +0.000 A 
ATOM     32  C   UNL     1      -3.144  -3.156  25.107  0.00  0.00    +0.001 A 
ATOM     33  C   UNL     1      -3.511  -2.419  25.066  0.00  0.00    +0.017 A 
ENDBRANCH  27  28
ENDBRANCH  23  24
ENDBRANCH  22  23
TORSDOF 7
ENDMDL
MODEL 7
REMARK VINA RESULT:      -8.1      2.720      4.097
REMARK  Name = 
REMARK  7 active torsions:
REMARK  status: ('A' for Active; 'I' for Inactive)
REMARK    1  A    between atoms: C_2  and  C_4
REMARK    2  A    between atoms: C_6  and  C_7
REMARK    3  A    between atoms: C_7  and  C_8
REMARK    4  A    between atoms: C_11  and  C_13
REMARK    5  A    between atoms: C_22  and  C_23
REMARK    6  A    between atoms: C_23  and  N_24
REMARK    7  A    between atoms: N_27  and  C_28
REMARK                            x       y       z     vdW  Elec       q    Type
REMARK                         _______ _______ _______ _____ _____    ______ ____
ROOT
ATOM      4  C   UNL     1      -0.978   2.131  25.136  0.00  0.00    +0.006 C 
ATOM      5  C   UNL     1      -1.553   2.468  24.650  0.00  0.00    +0.005 C 
ATOM      6  C   UNL     1      -1.761   3.261  24.745  0.00  0.00    +0.027 C 
ATOM     19  C   UNL     1      -1.393   3.717  25.326  0.00  0.00    -0.048 C 
ATOM     20  C   UNL     1      -1.601   4.510  25.421  0.00  0.00    +0.026 C 
ATOM     21  C   UNL     1      -0.818   3.380  25.813  0.00  0.00    -0.033 C 
ATOM     22  C   UNL     1      -0.611   2.587  25.718  0.00  0.00    +0.043 C 
ENDROOT
BRANCH   4   2
ATOM      1  C   UNL     1      -1.160   0.755  25.475  0.00  0.00    +0.000 C 
ATOM      2  C   UNL     1      -0.770   1.338  25.042  0.00  0.00    +0.000 C 
ATOM      3  C   UNL     1      -0.171   1.130  24.514  0.00  0.00    +0.000 C 
ENDBRANCH   4   2
BRANCH   6   7
ATOM      7  C   UNL     1      -2.335   3.598  24.259  0.00  0.00    +0.091 C 
BRANCH   7   8
ATOM      8  C   UNL     1      -3.075   3.241  24.187  0.00  0.00    +0.227 A 
ATOM      9  N   UNL     1      -3.412   2.958  23.490  0.00  0.00    -0.111 NA
ATOM     10  N   UNL     1      -4.154   2.647  23.672  0.00  0.00    -0.107 NA
ATOM     11  C   UNL     1      -4.276   2.738  24.483  0.00  0.00    +0.250 A 
ATOM     12  O   UNL     1      -3.610   3.105  24.802  0.00  0.00    -0.420 OA
BRANCH  11  13
ATOM     13  C   UNL     1      -4.947   2.503  24.902  0.00  0.00    +0.058 A 
ATOM     14  C   UNL     1      -5.216   1.724  24.847  0.00  0.00    +0.025 A 
ATOM     15  C   UNL     1      -5.886   1.489  25.266  0.00  0.00    +0.099 A 
ATOM     16  N   UNL     1      -6.288   2.032  25.740  0.00  0.00    -0.242 NA
ATOM     17  C   UNL     1      -6.019   2.810  25.795  0.00  0.00    +0.099 A 
ATOM     18  C   UNL     1      -5.348   3.045  25.376  0.00  0.00    +0.025 A 
ENDBRANCH  11  13
ENDBRANCH   7   8
ENDBRANCH   6   7
BRANCH  22  23
ATOM     23  C   UNL     1      -0.036   2.250  26.205  0.00  0.00    +0.121 C 
BRANCH  23  24
ATOM     24  N   UNL     1       0.489   2.733  26.619  0.00  0.00    -0.187 NA
ATOM     25  C   UNL     1       0.761   2.504  27.363  0.00  0.00    +0.344 C 
ATOM     26  O   UNL     1       0.508   1.791  27.693  0.00  0.00    -0.249 OA
ATOM     27  N   UNL     1       1.285   2.987  27.778  0.00  0.00    -0.161 NA
BRANCH  27  28
ATOM     28  C   UNL     1       1.557   2.758  28.523  0.00  0.00    +0.075 A 
ATOM     29  C   UNL     1       1.021   2.620  29.134  0.00  0.00    +0.017 A 
ATOM     30  C   UNL     1       1.293   2.390  29.877  0.00  0.00    +0.001 A 
ATOM     31  C   UNL     1       2.101   2.299  30.010  0.00  0.00    +0.000 A 
ATOM     32  C   UNL     1       2.638   2.438  29.399  0.00  0.00    +0.001 A 
ATOM     33  C   UNL     1       2.366   2.667  28.655  0.00  0.00    +0.017 A 
ENDBRANCH  27  28
ENDBRANCH  23  24
ENDBRANCH  22  23
TORSDOF 7
ENDMDL
MODEL 8
REMARK VINA RESULT:      -6.8      2.472      4.282
REMARK  Name = 
REMARK  7 active torsions:
REMARK  status: ('A' for Active; 'I' for Inactive)
REMARK    1  A    between atoms: C_2  and  C_4
REMARK    2  A    between atoms: C_6  and  C_7
REMARK    3  A    between atoms: C_7  and  C_8
REMARK    4  A    between atoms: C_11  and  C_13
REMARK    5  A    between atoms: C_22  and  C_23
REMARK    6  A    between atoms: C_23  and  N_24
REMARK    7  A    between atoms: N_27  and  C_28
REMARK                            x       y       z     vdW  Elec       q    Type
REMARK                         _______ _______ _______ _____ _____    ______ ____
ROOT
ATOM      4  C   UNL     1      -0.436   1.455  24.263  0.00  0.00    +0.006 C 
ATOM      5  C   UNL     1      -0.435   2.243  24.506  0.00  0.00    +0.005 C 
ATOM      6  C   UNL     1      -0.464   2.427  25.310  0.00  0.00    +0.027 C 
ATOM     19  C   UNL     1      -0.494   1.823  25.871  0.00  0.00    -0.048 C 
ATOM     20  C   UNL     1      -0.523   2.006  26.674  0.00  0.00    +0.026 C 
ATOM     21  C   UNL     1      -0.496   1.034  25.627  0.00  0.00    -0.033 C 
ATOM     22  C   UNL     1      -0.467   0.850  24.824  0.00  0.00    +0.043 C 
ENDROOT
BRANCH   4   2
ATOM      1  C   UNL     1      -1.074   1.379  22.986  0.00  0.00    +0.000 C 
ATOM      2  C   UNL     1      -0.407   1.270  23.459  0.00  0.00    +0.000 C 
ATOM      3  C   UNL     1       0.289   0.976  23.129  0.00  0.00    +0.000 C 
ENDBRANCH   4   2
BRANCH   6   7
ATOM      7  C   UNL     1      -0.462   3.215  25.553  0.00  0.00    +0.091 C 
BRANCH   7   8
ATOM      8  C   UNL     1      -1.136   3.680  25.449  0.00  0.00    +0.227 A 
ATOM      9  N   UNL     1      -1.146   4.488  25.286  0.00  0.00    -0.111 NA
ATOM     10  N   UNL     1      -1.934   4.726  25.226  0.00  0.00    -0.107 NA
ATOM     11  C   UNL     1      -2.411   4.064  25.352  0.00  0.00    +0.250 A 
ATOM     12  O   UNL     1      -1.917   3.417  25.490  0.00  0.00    -0.420 OA
BRANCH  11  13
ATOM     13  C   UNL     1      -3.235   4.051  25.342  0.00  0.00    +0.058 A 
ATOM     14  C   UNL     1      -3.639   4.042  24.621  0.00  0.00    +0.025 A 
ATOM     15  C   UNL     1      -4.463   4.029  24.611  0.00  0.00    +0.099 A 
ATOM     16  N   UNL     1      -4.885   4.025  25.321  0.00  0.00    -0.242 NA
ATOM     17  C   UNL     1      -4.481   4.035  26.040  0.00  0.00    +0.099 A 
ATOM     18  C   UNL     1      -3.657   4.048  26.050  0.00  0.00    +0.025 A 
ENDBRANCH  11  13
ENDBRANCH   7   8
ENDBRANCH   6   7
BRANCH  22  23
ATOM     23  C   UNL     1      -0.468   0.061  24.581  0.00  0.00    +0.121 C 
BRANCH  23  24
ATOM     24  N   UNL     1      -0.772  -0.523  25.078  0.00  0.00    -0.187 NA
ATOM     25  C   UNL     1      -1.364  -1.028  24.807  0.00  0.00    +0.344 C 
ATOM     26  O   UNL     1      -1.655  -0.949  24.038  0.00  0.00    -0.249 OA
ATOM     27  N   UNL     1      -1.668  -1.612  25.304  0.00  0.00    -0.161 NA
BRANCH  27  28
ATOM     28  C   UNL     1      -2.261  -2.118  25.033  0.00  0.00    +0.075 A 
ATOM     29  C   UNL     1      -2.069  -2.757  24.547  0.00  0.00    +0.017 A 
ATOM     30  C   UNL     1      -2.662  -3.262  24.277  0.00  0.00    +0.001 A 
ATOM     31  C   UNL     1      -3.447  -3.128  24.491  0.00  0.00    +0.000 A 
ATOM     32  C   UNL     1      -3.639  -2.489  24.976  0.00  0.00    +0.001 A 
ATOM     33  C   UNL     1      -3.046  -1.984  25.247  0.00  0.00    +0.017 A 
ENDBRANCH  27  28
ENDBRANCH  23  24
ENDBRANCH  22  23
TORSDOF 7
ENDMDL
MODEL 9
REMARK VINA RESULT:      -6.6      2.702      4.138
REMARK  Name = 
REMARK  7 active torsions:
REMARK  status: ('A' for Active; 'I' for Inactive)
REMARK    1  A    between atoms: C_2  and  C_4
REMARK    2  A    between atoms: C_6  and  C_7
REMARK    3  A    between atoms: C_7  and  C_8
REMARK    4  A    between atoms: C_11  and  C_13
REMARK    5  A    between atoms: C_22  and  C_23
REMARK    6  A    between atoms: C_23  and  N_24
REMARK    7  A    between atoms: N_27  and  C_28
REMARK                            x       y       z     vdW  Elec       q    Type
REMARK                         _______ _______ _______ _____ _____    ______ ____
ROOT
ATOM      4  C   UNL     1      -0.742   2.143  24.945  0.00  0.00    +0.006 C 
ATOM      5  C   UNL     1      -1.435   2.116  24.499  0.00  0.00    +0.005 C 
ATOM      6  C   UNL     1      -2.122   2.478  24.780  0.00  0.00    +0.027 C 
ATOM     19  C   UNL     1      -2.115   2.868  25.507  0.00  0.00    -0.048 C 
ATOM     20  C   UNL     1      -2.800   3.230  25.788  0.00  0.00    +0.026 C 
ATOM     21  C   UNL     1      -1.421   2.895  25.954  0.00  0.00    -0.033 C 
ATOM     22  C   UNL     1      -0.735   2.533  25.673  0.00  0.00    +0.043 C 
ENDROOT
BRANCH   4   2
ATOM      1  C   UNL     1       0.063   0.974  24.783  0.00  0.00    +0.000 C 
ATOM      2  C   UNL     1      -0.056   1.781  24.665  0.00  0.00    +0.000 C 
ATOM      3  C   UNL     1       0.512   2.228  24.266  0.00  0.00    +0.000 C 
ENDBRANCH   4   2
BRANCH   6   7
ATOM      7  C   UNL     1      -2.814   2.452  24.334  0.00  0.00    +0.091 C 
BRANCH   7   8
ATOM      8  C   UNL     1      -3.096   1.729  24.053  0.00  0.00    +0.227 A 
ATOM      9  N   UNL     1      -3.292   1.556  23.270  0.00  0.00    -0.111 NA
ATOM     10  N   UNL     1      -3.548   0.772  23.239  0.00  0.00    -0.107 NA
ATOM     11  C   UNL     1      -3.510   0.460  24.002  0.00  0.00    +0.250 A 
ATOM     12  O   UNL     1      -3.231   1.052  24.505  0.00  0.00    -0.420 OA
BRANCH  11  13
ATOM     13  C   UNL     1      -3.716  -0.307  24.223  0.00  0.00    +0.058 A 
ATOM     14  C   UNL     1      -3.984  -0.842  23.654  0.00  0.00    +0.025 A 
ATOM     15  C   UNL     1      -4.189  -1.610  23.875  0.00  0.00    +0.099 A 
ATOM     16  N   UNL     1      -4.127  -1.843  24.665  0.00  0.00    -0.242 NA
ATOM     17  C   UNL     1      -3.859  -1.307  25.233  0.00  0.00    +0.099 A 
ATOM     18  C   UNL     1      -3.654  -0.540  25.011  0.00  0.00    +0.025 A 
ENDBRANCH  11  13
ENDBRANCH   7   8
ENDBRANCH   6   7
BRANCH  22  23
ATOM     23  C   UNL     1      -0.042   2.560  26.120  0.00  0.00    +0.121 C 
BRANCH  23  24
ATOM     24  N   UNL     1      -0.081   2.554  26.944  0.00  0.00    -0.187 NA
ATOM     25  C   UNL     1       0.612   2.579  27.390  0.00  0.00    +0.344 C 
ATOM     26  O   UNL     1       1.345   2.610  27.013  0.00  0.00    -0.249 OA
ATOM     27  N   UNL     1       0.572   2.574  28.214  0.00  0.00    -0.161 NA
BRANCH  27  28
ATOM     28  C   UNL     1       1.266   2.599  28.661  0.00  0.00    +0.075 A 
ATOM     29  C   UNL     1       1.300   2.218  29.392  0.00  0.00    +0.017 A 
ATOM     30  C   UNL     1       1.993   2.243  29.838  0.00  0.00    +0.001 A 
ATOM     31  C   UNL     1       2.651   2.649  29.554  0.00  0.00    +0.000 A 
ATOM     32  C   UNL     1       2.617   3.030  28.823  0.00  0.00    +0.001 A 
ATOM     33  C   UNL     1       1.924   3.005  28.376  0.00  0.00    +0.017 A 
ENDBRANCH  27  28
ENDBRANCH  23  24
ENDBRANCH  22  23
TORSDOF 7
ENDMDL
MODEL 10
REMARK VINA RESULT:      -6.6      3.326      5.091
REMARK  Name = 
REMARK  7 active torsions:
REMARK  status: ('A' for Active; 'I' for Inactive)
REMARK    1  A    between atoms: C_2  and  C_4
REMARK    2  A    between atoms: C_6  and  C_7
REMARK    3  A    between atoms: C_7  and  C_8
REMARK    4  A    between atoms: C_11  and  C_13
REMARK    5  A    between atoms: C_22  and  C_23
REMARK    6  A    between atoms: C_23  and  N_24
REMARK    7  A    between atoms: N_27  and  C_28
REMARK                            x       y       z     vdW  Elec       q    Type
REMARK                         _______ _______ _______ _____ _____    ______ ____
ROOT
ATOM      4  C   UNL     1      -3.471   1.212  23.574  0.00  0.00    +0.006 C 
ATOM      5  C   UNL     1      -3.738   0.435  23.644  0.00  0.00    +0.005 C 
ATOM      6  C   UNL     1      -4.223   0.221  24.276  0.00  0.00    +0.027 C 
ATOM     19  C   UNL     1      -4.441   0.784  24.839  0.00  0.00    -0.048 C 
ATOM     20  C   UNL     1      -4.926   0.570  25.471  0.00  0.00    +0.026 C 
ATOM     21  C   UNL     1      -4.173   1.562  24.769  0.00  0.00    -0.033 C 
ATOM     22  C   UNL     1      -3.688   1.775  24.137  0.00  0.00    +0.043 C 
ENDROOT
BRANCH   4   2
ATOM      1  C   UNL     1      -2.177   1.271  22.971  0.00  0.00    +0.000 C 
ATOM      2  C   UNL     1      -2.986   1.427  22.942  0.00  0.00    +0.000 C 
ATOM      3  C   UNL     1      -3.311   1.797  22.281  0.00  0.00    +0.000 C 
ENDBRANCH   4   2
BRANCH   6   7
ATOM      7  C   UNL     1      -4.491  -0.556  24.346  0.00  0.00    +0.091 C 
BRANCH   7   8
ATOM      8  C   UNL     1      -3.949  -1.176  24.391  0.00  0.00    +0.227 A 
ATOM      9  N   UNL     1      -4.099  -1.966  24.208  0.00  0.00    -0.111 NA
ATOM     10  N   UNL     1      -3.404  -2.394  24.330  0.00  0.00    -0.107 NA
ATOM     11  C   UNL     1      -2.824  -1.868  24.589  0.00  0.00    +0.250 A 
ATOM     12  O   UNL     1      -3.160  -1.115  24.627  0.00  0.00    -0.420 OA
BRANCH  11  13
ATOM     13  C   UNL     1      -2.044  -2.060  24.777  0.00  0.00    +0.058 A 
ATOM     14  C   UNL     1      -1.661  -2.670  24.374  0.00  0.00    +0.025 A 
ATOM     15  C   UNL     1      -0.881  -2.862  24.562  0.00  0.00    +0.099 A 
ATOM     16  N   UNL     1      -0.484  -2.446  25.154  0.00  0.00    -0.242 NA
ATOM     17  C   UNL     1      -0.868  -1.836  25.557  0.00  0.00    +0.099 A 
ATOM     18  C   UNL     1      -1.648  -1.644  25.368  0.00  0.00    +0.025 A 
ENDBRANCH  11  13
ENDBRANCH   7   8
ENDBRANCH   6   7
BRANCH  22  23
ATOM     23  C   UNL     1      -3.421   2.553  24.067  0.00  0.00    +0.121 C 
BRANCH  23  24
ATOM     24  N   UNL     1      -3.111   2.944  24.725  0.00  0.00    -0.187 NA
ATOM     25  C   UNL     1      -2.612   3.591  24.622  0.00  0.00    +0.344 C 
ATOM     26  O   UNL     1      -2.420   3.849  23.862  0.00  0.00    -0.249 OA
ATOM     27  N   UNL     1      -2.302   3.982  25.279  0.00  0.00    -0.161 NA
BRANCH  27  28
ATOM     28  C   UNL     1      -1.802   4.630  25.177  0.00  0.00    +0.075 A 
ATOM     29  C   UNL     1      -0.999   4.512  25.026  0.00  0.00    +0.017 A 
ATOM     30  C   UNL     1      -0.500   5.160  24.924  0.00  0.00    +0.001 A 
ATOM     31  C   UNL     1      -0.802   5.926  24.972  0.00  0.00    +0.000 A 
ATOM     32  C   UNL     1      -1.604   6.044  25.123  0.00  0.00    +0.001 A 
ATOM     33  C   UNL     1      -2.105   5.396  25.225  0.00  0.00    +0.017 A 
ENDBRANCH  27  28
ENDBRANCH  23  24
ENDBRANCH  22  23
TORSDOF 7
ENDMDL
