MODEL 1
REMARK VINA RESULT:     -10.9      0.000      0.000
REMARK  Name = 
REMARK  3 active torsions:
REMARK  status: ('A' for Active; 'I' for Inactive)
REMARK    1  A    between atoms: C_5  and  N_8
REMARK    2  A    between atoms: C_11  and  C_13
REMARK    3  A    between atoms: C_19  and  C_22
REMARK                            x       y       z     vdW  Elec       q    Type
REMARK                         _______ _______ _______ _____ _____    ______ ____
ROOT
ATOM      8  N   UNL     1      -4.039   0.092  24.753  0.00  0.00    -0.273 NA
ATOM      9  C   UNL     1      -4.762   0.486  24.698  0.00  0.00    +0.073 C 
ATOM     10  C   UNL     1      -4.621   1.293  24.796  0.00  0.00    +0.026 C 
ATOM     11  C   UNL     1      -3.811   1.398  24.912  0.00  0.00    +0.076 C 
ATOM     12  C   UNL     1      -3.451   0.656  24.885  0.00  0.00    +0.080 C 
ENDROOT
BRANCH  11  13
ATOM     13  C   UNL     1      -3.428   2.118  25.034  0.00  0.00    +0.140 A 
ATOM     14  N   UNL     1      -3.688   2.729  25.524  0.00  0.00    -0.229 NA
ATOM     15  C   UNL     1      -3.138   3.342  25.479  0.00  0.00    +0.100 A 
ATOM     16  C   UNL     1      -2.539   3.111  24.963  0.00  0.00    +0.101 A 
ATOM     17  N   UNL     1      -2.717   2.354  24.687  0.00  0.00    -0.229 NA
ATOM     18  C   UNL     1      -1.907   3.619  24.810  0.00  0.00    +0.031 A 
ATOM     19  C   UNL     1      -1.875   4.359  25.173  0.00  0.00    +0.070 A 
ATOM     20  C   UNL     1      -2.475   4.590  25.690  0.00  0.00    +0.012 A 
ATOM     21  C   UNL     1      -3.107   4.083  25.844  0.00  0.00    +0.021 A 
BRANCH  19  22
ATOM     22  C   UNL     1      -1.244   4.867  25.021  0.00  0.00    +0.100 C 
ATOM     23  N   UNL     1      -0.612   5.375  24.867  0.00  0.00    -0.191 NA
ENDBRANCH  19  22
ENDBRANCH  11  13
BRANCH   8   5
ATOM      1  C   UNL     1      -3.578  -3.165  24.487  0.00  0.00    +0.090 C 
ATOM      2  N   UNL     1      -3.693  -2.350  24.554  0.00  0.00    -0.271 NA
ATOM      3  C   UNL     1      -4.039  -1.931  23.934  0.00  0.00    +0.074 C 
ATOM      4  C   UNL     1      -4.155  -1.117  24.000  0.00  0.00    +0.033 C 
ATOM      5  C   UNL     1      -3.924  -0.722  24.686  0.00  0.00    +0.060 C 
ATOM      6  C   UNL     1      -3.578  -1.142  25.307  0.00  0.00    +0.033 C 
ATOM      7  C   UNL     1      -3.462  -1.957  25.240  0.00  0.00    +0.074 C 
ENDBRANCH   8   5
TORSDOF 3
ENDMDL
MODEL 2
REMARK VINA RESULT:     -10.1      0.716      5.356
REMARK  Name = 
REMARK  3 active torsions:
REMARK  status: ('A' for Active; 'I' for Inactive)
REMARK    1  A    between atoms: C_5  and  N_8
REMARK    2  A    between atoms: C_11  and  C_13
REMARK    3  A    between atoms: C_19  and  C_22
REMARK                            x       y       z     vdW  Elec       q    Type
REMARK                         _______ _______ _______ _____ _____    ______ ____
ROOT
ATOM      8  N   UNL     1      -2.885   2.838  24.934  0.00  0.00    -0.273 NA
ATOM      9  C   UNL     1      -3.695   2.926  25.062  0.00  0.00    +0.073 C 
ATOM     10  C   UNL     1      -4.047   2.184  24.988  0.00  0.00    +0.026 C 
ATOM     11  C   UNL     1      -3.454   1.636  24.813  0.00  0.00    +0.076 C 
ATOM     12  C   UNL     1      -2.736   2.041  24.780  0.00  0.00    +0.080 C 
ENDROOT
BRANCH  11  13
ATOM     13  C   UNL     1      -3.562   0.827  24.693  0.00  0.00    +0.140 A 
ATOM     14  N   UNL     1      -4.028   0.481  24.108  0.00  0.00    -0.229 NA
ATOM     15  C   UNL     1      -3.976  -0.337  24.191  0.00  0.00    +0.100 A 
ATOM     16  C   UNL     1      -3.476  -0.498  24.827  0.00  0.00    +0.101 A 
ATOM     17  N   UNL     1      -3.220   0.222  25.138  0.00  0.00    -0.229 NA
ATOM     18  C   UNL     1      -3.320  -1.279  25.041  0.00  0.00    +0.031 A 
ATOM     19  C   UNL     1      -3.662  -1.899  24.620  0.00  0.00    +0.070 A 
ATOM     20  C   UNL     1      -4.161  -1.739  23.983  0.00  0.00    +0.012 A 
ATOM     21  C   UNL     1      -4.319  -0.958  23.768  0.00  0.00    +0.021 A 
BRANCH  19  22
ATOM     22  C   UNL     1      -3.505  -2.680  24.834  0.00  0.00    +0.100 C 
ATOM     23  N   UNL     1      -3.348  -3.461  25.048  0.00  0.00    -0.191 NA
ENDBRANCH  19  22
ENDBRANCH  11  13
BRANCH   8   5
ATOM      1  C   UNL     1      -0.631   5.248  25.019  0.00  0.00    +0.090 C 
ATOM      2  N   UNL     1      -1.195   4.645  24.998  0.00  0.00    -0.271 NA
ATOM      3  C   UNL     1      -1.004   3.913  24.671  0.00  0.00    +0.074 C 
ATOM      4  C   UNL     1      -1.567   3.311  24.650  0.00  0.00    +0.033 C 
ATOM      5  C   UNL     1      -2.322   3.440  24.955  0.00  0.00    +0.060 C 
ATOM      6  C   UNL     1      -2.514   4.174  25.282  0.00  0.00    +0.033 C 
ATOM      7  C   UNL     1      -1.950   4.776  25.303  0.00  0.00    +0.074 C 
ENDBRANCH   8   5
TORSDOF 3
ENDMDL
MODEL 3
REMARK VINA RESULT:      -9.6      1.483      2.053
REMARK  Name = 
REMARK  3 active torsions:
REMARK  status: ('A' for Active; 'I' for Inactive)
REMARK    1  A    between atoms: C_5  and  N_8
REMARK    2  A    between atoms: C_11  and  C_13
REMARK    3  A    between atoms: C_19  and  C_22
REMARK                            x       y       z     vdW  Elec       q    Type
REMARK                         _______ _______ _______ _____ _____    ______ ____
ROOT
ATOM      8  N   UNL     1      -1.980  -0.607  25.171  0.00  0.00    -0.273 NA
ATOM      9  C   UNL     1      -1.364  -0.651  25.719  0.00  0.00    +0.073 C 
ATOM     10  C   UNL     1      -1.033   0.102  25.792  0.00  0.00    +0.026 C 
ATOM     11  C   UNL     1      -1.445   0.611  25.289  0.00  0.00    +0.076 C 
ATOM     12  C   UNL     1      -2.030   0.173  24.906  0.00  0.00    +0.080 C 
ENDROOT
BRANCH  11  13
ATOM     13  C   UNL     1      -1.298   1.416  25.188  0.00  0.00    +0.140 A 
ATOM     14  N   UNL     1      -0.625   1.747  24.845  0.00  0.00    -0.229 NA
ATOM     15  C   UNL     1      -0.709   2.567  24.858  0.00  0.00    +0.100 A 
ATOM     16  C   UNL     1      -1.434   2.744  25.209  0.00  0.00    +0.101 A 
ATOM     17  N   UNL     1      -1.799   2.033  25.413  0.00  0.00    -0.229 NA
ATOM     18  C   UNL     1      -1.669   3.530  25.297  0.00  0.00    +0.031 A 
ATOM     19  C   UNL     1      -1.179   4.139  25.034  0.00  0.00    +0.070 A 
ATOM     20  C   UNL     1      -0.453   3.962  24.683  0.00  0.00    +0.012 A 
ATOM     21  C   UNL     1      -0.218   3.177  24.595  0.00  0.00    +0.021 A 
BRANCH  19  22
ATOM     22  C   UNL     1      -1.413   4.924  25.122  0.00  0.00    +0.100 C 
ATOM     23  N   UNL     1      -1.649   5.711  25.210  0.00  0.00    -0.191 NA
ENDBRANCH  19  22
ENDBRANCH  11  13
BRANCH   8   5
ATOM      1  C   UNL     1      -3.907  -3.108  24.211  0.00  0.00    +0.090 C 
ATOM      2  N   UNL     1      -3.425  -2.483  24.451  0.00  0.00    -0.271 NA
ATOM      3  C   UNL     1      -3.763  -1.791  24.745  0.00  0.00    +0.074 C 
ATOM      4  C   UNL     1      -3.282  -1.165  24.985  0.00  0.00    +0.033 C 
ATOM      5  C   UNL     1      -2.461  -1.232  24.931  0.00  0.00    +0.060 C 
ATOM      6  C   UNL     1      -2.122  -1.925  24.637  0.00  0.00    +0.033 C 
ATOM      7  C   UNL     1      -2.605  -2.550  24.397  0.00  0.00    +0.074 C 
ENDBRANCH   8   5
TORSDOF 3
ENDMDL
MODEL 4
REMARK VINA RESULT:      -8.9      2.674      3.759
REMARK  Name = 
REMARK  3 active torsions:
REMARK  status: ('A' for Active; 'I' for Inactive)
REMARK    1  A    between atoms: C_5  and  N_8
REMARK    2  A    between atoms: C_11  and  C_13
REMARK    3  A    between atoms: C_19  and  C_22
REMARK                            x       y       z     vdW  Elec       q    Type
REMARK                         _______ _______ _______ _____ _____    ______ ____
ROOT
ATOM      8  N   UNL     1      -1.094   0.261  24.407  0.00  0.00    -0.273 NA
ATOM      9  C   UNL     1      -1.338  -0.256  25.002  0.00  0.00    +0.073 C 
ATOM     10  C   UNL     1      -2.084  -0.016  25.259  0.00  0.00    +0.026 C 
ATOM     11  C   UNL     1      -2.302   0.649  24.822  0.00  0.00    +0.076 C 
ATOM     12  C   UNL     1      -1.691   0.820  24.296  0.00  0.00    +0.080 C 
ENDROOT
BRANCH  11  13
ATOM     13  C   UNL     1      -3.008   1.070  24.898  0.00  0.00    +0.140 A 
ATOM     14  N   UNL     1      -3.764   0.781  24.739  0.00  0.00    -0.229 NA
ATOM     15  C   UNL     1      -4.304   1.385  24.890  0.00  0.00    +0.100 A 
ATOM     16  C   UNL     1      -3.883   2.048  25.143  0.00  0.00    +0.101 A 
ATOM     17  N   UNL     1      -3.081   1.853  25.148  0.00  0.00    -0.229 NA
ATOM     18  C   UNL     1      -4.284   2.743  25.335  0.00  0.00    +0.031 A 
ATOM     19  C   UNL     1      -5.105   2.776  25.276  0.00  0.00    +0.070 A 
ATOM     20  C   UNL     1      -5.527   2.113  25.023  0.00  0.00    +0.012 A 
ATOM     21  C   UNL     1      -5.127   1.418  24.830  0.00  0.00    +0.021 A 
BRANCH  19  22
ATOM     22  C   UNL     1      -5.505   3.470  25.468  0.00  0.00    +0.100 C 
ATOM     23  N   UNL     1      -5.906   4.166  25.661  0.00  0.00    -0.191 NA
ENDBRANCH  19  22
ENDBRANCH  11  13
BRANCH   8   5
ATOM      1  C   UNL     1       1.761   0.116  22.758  0.00  0.00    +0.090 C 
ATOM      2  N   UNL     1       1.047   0.153  23.170  0.00  0.00    -0.271 NA
ATOM      3  C   UNL     1       0.593  -0.528  23.269  0.00  0.00    +0.074 C 
ATOM      4  C   UNL     1      -0.121  -0.493  23.681  0.00  0.00    +0.033 C 
ATOM      5  C   UNL     1      -0.381   0.225  23.995  0.00  0.00    +0.060 C 
ATOM      6  C   UNL     1       0.074   0.907  23.896  0.00  0.00    +0.033 C 
ATOM      7  C   UNL     1       0.788   0.870  23.483  0.00  0.00    +0.074 C 
ENDBRANCH   8   5
TORSDOF 3
ENDMDL
MODEL 5
REMARK VINA RESULT:      -8.8      2.541      4.356
REMARK  Name = 
REMARK  3 active torsions:
REMARK  status: ('A' for Active; 'I' for Inactive)
REMARK    1  A    between atoms: C_5  and  N_8
REMARK    2  A    between atoms: C_11  and  C_13
REMARK    3  A    between atoms: C_19  and  C_22
REMARK                            x       y       z     vdW  Elec       q    Type
REMARK                         _______ _______ _______ _____ _____    ______ ____
ROOT
ATOM      8  N   UNL     1      -4.135   1.472  24.904  0.00  0.00    -0.273 NA
ATOM      9  C   UNL     1      -4.433   0.711  24.789  0.00  0.00    +0.073 C 
ATOM     10  C   UNL     1      -3.800   0.216  24.599  0.00  0.00    +0.026 C 
ATOM     11  C   UNL     1      -3.112   0.671  24.597  0.00  0.00    +0.076 C 
ATOM     12  C   UNL     1      -3.319   1.447  24.785  0.00  0.00    +0.080 C 
ENDROOT
BRANCH  11  13
ATOM     13  C   UNL     1      -2.351   0.398  24.434  0.00  0.00    +0.140 A 
ATOM     14  N   UNL     1      -1.991  -0.263  24.771  0.00  0.00    -0.229 NA
ATOM     15  C   UNL     1      -1.234  -0.332  24.451  0.00  0.00    +0.100 A 
ATOM     16  C   UNL     1      -1.126   0.287  23.916  0.00  0.00    +0.101 A 
ATOM     17  N   UNL     1      -1.816   0.739  23.906  0.00  0.00    -0.229 NA
ATOM     18  C   UNL     1      -0.412   0.360  23.509  0.00  0.00    +0.031 A 
ATOM     19  C   UNL     1       0.193  -0.186  23.635  0.00  0.00    +0.070 A 
ATOM     20  C   UNL     1       0.085  -0.805  24.170  0.00  0.00    +0.012 A 
ATOM     21  C   UNL     1      -0.628  -0.878  24.578  0.00  0.00    +0.021 A 
BRANCH  19  22
ATOM     22  C   UNL     1       0.906  -0.114  23.227  0.00  0.00    +0.100 C 
ATOM     23  N   UNL     1       1.620  -0.041  22.819  0.00  0.00    -0.191 NA
ENDBRANCH  19  22
ENDBRANCH  11  13
BRANCH   8   5
ATOM      1  C   UNL     1      -5.898   4.146  25.701  0.00  0.00    +0.090 C 
ATOM      2  N   UNL     1      -5.457   3.477  25.502  0.00  0.00    -0.271 NA
ATOM      3  C   UNL     1      -5.758   2.725  25.653  0.00  0.00    +0.074 C 
ATOM      4  C   UNL     1      -5.317   2.056  25.454  0.00  0.00    +0.033 C 
ATOM      5  C   UNL     1      -4.575   2.140  25.103  0.00  0.00    +0.060 C 
ATOM      6  C   UNL     1      -4.274   2.894  24.952  0.00  0.00    +0.033 C 
ATOM      7  C   UNL     1      -4.716   3.563  25.151  0.00  0.00    +0.074 C 
ENDBRANCH   8   5
TORSDOF 3
ENDMDL
MODEL 6
REMARK VINA RESULT:      -8.6      1.824      2.643
REMARK  Name = 
REMARK  3 active torsions:
REMARK  status: ('A' for Active; 'I' for Inactive)
REMARK    1  A    between atoms: C_5  and  N_8
REMARK    2  A    between atoms: C_11  and  C_13
REMARK    3  A    between atoms: C_19  and  C_22
REMARK                            x       y       z     vdW  Elec       q    Type
REMARK                         _______ _______ _______ _____ _____    ______ ____
ROOT
ATOM      8  N   UNL     1      -2.985  -0.755  24.728  0.00  0.00    -0.273 NA
ATOM      9  C   UNL     1      -3.746  -0.991  24.515  0.00  0.00    +0.073 C 
ATOM     10  C   UNL     1      -4.228  -0.321  24.509  0.00  0.00    +0.026 C 
ATOM     11  C   UNL     1      -3.765   0.329  24.718  0.00  0.00    +0.076 C 
ATOM     12  C   UNL     1      -2.996   0.061  24.853  0.00  0.00    +0.080 C 
ENDROOT
BRANCH  11  13
ATOM     13  C   UNL     1      -4.024   1.109  24.780  0.00  0.00    +0.140 A 
ATOM     14  N   UNL     1      -3.685   1.764  24.411  0.00  0.00    -0.229 NA
ATOM     15  C   UNL     1      -4.120   2.431  24.626  0.00  0.00    +0.100 A 
ATOM     16  C   UNL     1      -4.728   2.189  25.128  0.00  0.00    +0.101 A 
ATOM     17  N   UNL     1      -4.669   1.372  25.223  0.00  0.00    -0.229 NA
ATOM     18  C   UNL     1      -5.257   2.744  25.433  0.00  0.00    +0.031 A 
ATOM     19  C   UNL     1      -5.178   3.541  25.236  0.00  0.00    +0.070 A 
ATOM     20  C   UNL     1      -4.570   3.783  24.734  0.00  0.00    +0.012 A 
ATOM     21  C   UNL     1      -4.041   3.229  24.429  0.00  0.00    +0.021 A 
BRANCH  19  22
ATOM     22  C   UNL     1      -5.707   4.095  25.541  0.00  0.00    +0.100 C 
ATOM     23  N   UNL     1      -6.236   4.650  25.846  0.00  0.00    -0.191 NA
ENDBRANCH  19  22
ENDBRANCH  11  13
BRANCH   8   5
ATOM      1  C   UNL     1      -0.353  -2.724  25.026  0.00  0.00    +0.090 C 
ATOM      2  N   UNL     1      -1.011  -2.231  24.951  0.00  0.00    -0.271 NA
ATOM      3  C   UNL     1      -0.973  -1.450  25.211  0.00  0.00    +0.074 C 
ATOM      4  C   UNL     1      -1.631  -0.958  25.137  0.00  0.00    +0.033 C 
ATOM      5  C   UNL     1      -2.327  -1.247  24.802  0.00  0.00    +0.060 C 
ATOM      6  C   UNL     1      -2.365  -2.030  24.542  0.00  0.00    +0.033 C 
ATOM      7  C   UNL     1      -1.707  -2.522  24.616  0.00  0.00    +0.074 C 
ENDBRANCH   8   5
TORSDOF 3
ENDMDL
MODEL 7
REMARK VINA RESULT:      -8.3      1.966      4.867
REMARK  Name = 
REMARK  3 active torsions:
REMARK  status: ('A' for Active; 'I' for Inactive)
REMARK    1  A    between atoms: C_5  and  N_8
REMARK    2  A    between atoms: C_11  and  C_13
REMARK    3  A    between atoms: C_19  and  C_22
REMARK                            x       y       z     vdW  Elec       q    Type
REMARK                         _______ _______ _______ _____ _____    ______ ____
ROOT
ATOM      8  N   UNL     1      -3.901   1.976  24.452  0.00  0.00    -0.273 NA
ATOM      9  C   UNL     1      -3.627   1.975  23.674  0.00  0.00    +0.073 C 
ATOM     10  C   UNL     1      -3.136   1.319  23.577  0.00  0.00    +0.026 C 
ATOM     11  C   UNL     1      -3.108   0.914  24.296  0.00  0.00    +0.076 C 
ATOM     12  C   UNL     1      -3.581   1.320  24.836  0.00  0.00    +0.080 C 
ENDROOT
BRANCH  11  13
ATOM     13  C   UNL     1      -2.682   0.224  24.447  0.00  0.00    +0.140 A 
ATOM     14  N   UNL     1      -2.958  -0.548  24.353  0.00  0.00    -0.229 NA
ATOM     15  C   UNL     1      -2.352  -1.064  24.566  0.00  0.00    +0.100 A 
ATOM     16  C   UNL     1      -1.700  -0.611  24.794  0.00  0.00    +0.101 A 
ATOM     17  N   UNL     1      -1.904   0.184  24.720  0.00  0.00    -0.229 NA
ATOM     18  C   UNL     1      -1.006  -0.984  25.038  0.00  0.00    +0.031 A 
ATOM     19  C   UNL     1      -0.962  -1.807  25.056  0.00  0.00    +0.070 A 
ATOM     20  C   UNL     1      -1.614  -2.259  24.828  0.00  0.00    +0.012 A 
ATOM     21  C   UNL     1      -2.308  -1.888  24.584  0.00  0.00    +0.021 A 
BRANCH  19  22
ATOM     22  C   UNL     1      -0.268  -2.178  25.300  0.00  0.00    +0.100 C 
ATOM     23  N   UNL     1       0.428  -2.550  25.545  0.00  0.00    -0.191 NA
ENDBRANCH  19  22
ENDBRANCH  11  13
BRANCH   8   5
ATOM      1  C   UNL     1      -5.926   4.211  25.792  0.00  0.00    +0.090 C 
ATOM      2  N   UNL     1      -5.420   3.652  25.457  0.00  0.00    -0.271 NA
ATOM      3  C   UNL     1      -4.662   3.872  25.219  0.00  0.00    +0.074 C 
ATOM      4  C   UNL     1      -4.156   3.314  24.884  0.00  0.00    +0.033 C 
ATOM      5  C   UNL     1      -4.408   2.534  24.787  0.00  0.00    +0.060 C 
ATOM      6  C   UNL     1      -5.166   2.314  25.026  0.00  0.00    +0.033 C 
ATOM      7  C   UNL     1      -5.672   2.873  25.361  0.00  0.00    +0.074 C 
ENDBRANCH   8   5
TORSDOF 3
ENDMDL
MODEL 8
REMARK VINA RESULT:      -7.5      3.325      4.427
REMARK  Name = 
REMARK  3 active torsions:
REMARK  status: ('A' for Active; 'I' for Inactive)
REMARK    1  A    between atoms: C_5  and  N_8
REMARK    2  A    between atoms: C_11  and  C_13
REMARK    3  A    between atoms: C_19  and  C_22
REMARK                            x       y       z     vdW  Elec       q    Type
REMARK                         _______ _______ _______ _____ _____    ______ ____
ROOT
ATOM      8  N   UNL     1      -2.488   1.740  24.834  0.00  0.00    -0.273 NA
ATOM      9  C   UNL     1      -1.991   2.130  25.365  0.00  0.00    +0.073 C 
ATOM     10  C   UNL     1      -1.212   1.938  25.173  0.00  0.00    +0.026 C 
ATOM     11  C   UNL     1      -1.227   1.430  24.522  0.00  0.00    +0.076 C 
ATOM     12  C   UNL     1      -2.015   1.308  24.313  0.00  0.00    +0.080 C 
ENDROOT
BRANCH  11  13
ATOM     13  C   UNL     1      -0.569   1.103  24.147  0.00  0.00    +0.140 A 
ATOM     14  N   UNL     1      -0.538   0.367  23.777  0.00  0.00    -0.229 NA
ATOM     15  C   UNL     1       0.223   0.264  23.478  0.00  0.00    +0.100 A 
ATOM     16  C   UNL     1       0.663   0.936  23.663  0.00  0.00    +0.101 A 
ATOM     17  N   UNL     1       0.174   1.455  24.077  0.00  0.00    -0.229 NA
ATOM     18  C   UNL     1       1.453   0.988  23.431  0.00  0.00    +0.031 A 
ATOM     19  C   UNL     1       1.803   0.369  23.014  0.00  0.00    +0.070 A 
ATOM     20  C   UNL     1       1.363  -0.304  22.829  0.00  0.00    +0.012 A 
ATOM     21  C   UNL     1       0.573  -0.357  23.060  0.00  0.00    +0.021 A 
BRANCH  19  22
ATOM     22  C   UNL     1       2.592   0.422  22.782  0.00  0.00    +0.100 C 
ATOM     23  N   UNL     1       3.383   0.474  22.549  0.00  0.00    -0.191 NA
ENDBRANCH  19  22
ENDBRANCH  11  13
BRANCH   8   5
ATOM      1  C   UNL     1      -5.785   1.883  24.797  0.00  0.00    +0.090 C 
ATOM      2  N   UNL     1      -4.960   1.847  24.807  0.00  0.00    -0.271 NA
ATOM      3  C   UNL     1      -4.516   2.522  24.641  0.00  0.00    +0.074 C 
ATOM      4  C   UNL     1      -3.692   2.486  24.650  0.00  0.00    +0.033 C 
ATOM      5  C   UNL     1      -3.312   1.775  24.825  0.00  0.00    +0.060 C 
ATOM      6  C   UNL     1      -3.756   1.100  24.991  0.00  0.00    +0.033 C 
ATOM      7  C   UNL     1      -4.581   1.136  24.982  0.00  0.00    +0.074 C 
ENDBRANCH   8   5
TORSDOF 3
ENDMDL
