REMARK  Name = 
REMARK  5 active torsions:
REMARK  status: ('A' for Active; 'I' for Inactive)
REMARK    1  A    between atoms: C_7  and  N_10
REMARK    2  A    between atoms: N_10  and  C_11
REMARK    3  A    between atoms: C_11  and  C_12
REMARK    4  A    between atoms: C_12  and  C_13
REMARK    5  A    between atoms: C_16  and  C_18
REMARK                            x       y       z     vdW  Elec       q    Type
REMARK                         _______ _______ _______ _____ _____    ______ ____
ROOT
ATOM     11  C   UNL     1       1.580   3.622   0.000  0.00  0.00    +0.119 C 
ATOM     22  C   UNL     1       2.163   3.038   0.000  0.00  0.00    +0.161 C 
ATOM     23  O   UNL     1       1.580   2.455   0.000  0.00  0.00    -0.351 OA
ATOM     24  C   UNL     1       0.997   3.038   0.000  0.00  0.00    +0.161 C 
ENDROOT
BRANCH  11  10
ATOM     10  N   UNL     1       2.163   4.205   0.000  0.00  0.00    -0.217 NA
BRANCH  10   7
ATOM      1  C   UNL     1       0.512   7.606   0.000  0.00  0.00    +0.095 C 
ATOM      2  C   UNL     1       1.309   7.393   0.000  0.00  0.00    +0.226 C 
ATOM      3  O   UNL     1       1.893   7.976   0.000  0.00  0.00    -0.275 OA
ATOM      4  N   UNL     1       1.523   6.596   0.000  0.00  0.00    -0.279 N 
ATOM      5  C   UNL     1       2.320   6.382   0.000  0.00  0.00    +0.095 C 
ATOM      6  C   UNL     1       2.533   5.585   0.000  0.00  0.00    +0.039 C 
ATOM      7  C   UNL     1       1.950   5.002   0.000  0.00  0.00    +0.076 C 
ATOM      8  C   UNL     1       1.153   5.216   0.000  0.00  0.00    +0.039 C 
ATOM      9  C   UNL     1       0.939   6.013   0.000  0.00  0.00    +0.095 C 
ENDBRANCH  10   7
ENDBRANCH  11  10
BRANCH  11  12
ATOM     12  C   UNL     1       0.997   4.205   0.000  0.00  0.00    +0.070 C 
BRANCH  12  13
ATOM     13  C   UNL     1       0.200   3.992   0.000  0.00  0.00    +0.102 A 
ATOM     14  N   UNL     1      -0.096   3.221   0.000  0.00  0.00    -0.082 NA
ATOM     15  O   UNL     1      -0.920   3.265   0.000  0.00  0.00    -0.356 OA
ATOM     16  C   UNL     1      -1.133   4.061   0.000  0.00  0.00    +0.181 A 
ATOM     17  C   UNL     1      -0.442   4.511   0.000  0.00  0.00    +0.056 A 
BRANCH  16  18
ATOM     18  C   UNL     1      -1.904   4.357   0.000  0.00  0.00    +0.180 C 
ATOM     19  C   UNL     1      -2.674   4.653   0.000  0.00  0.00    +0.041 C 
ATOM     20  C   UNL     1      -1.608   5.127   0.000  0.00  0.00    +0.041 C 
ATOM     21  O   UNL     1      -2.199   3.587   0.000  0.00  0.00    -0.218 OA
ENDBRANCH  16  18
ENDBRANCH  12  13
ENDBRANCH  11  12
TORSDOF 5
