MODEL 1
REMARK VINA RESULT:     -12.4      0.000      0.000
REMARK  Name = 
REMARK  2 active torsions:
REMARK  status: ('A' for Active; 'I' for Inactive)
REMARK    1  A    between atoms: C_6  and  N_10
REMARK    2  A    between atoms: N_13  and  C_14
REMARK                            x       y       z     vdW  Elec       q    Type
REMARK                         _______ _______ _______ _____ _____    ______ ____
ROOT
ATOM     10  N   UNL     1      -4.631   1.173  24.520  0.00  0.00    -0.184 NA
ATOM     11  C   UNL     1      -4.375   0.502  24.923  0.00  0.00    +0.344 C 
ATOM     12  O   UNL     1      -4.550   0.409  25.725  0.00  0.00    -0.249 OA
ATOM     13  N   UNL     1      -3.944  -0.079  24.527  0.00  0.00    -0.161 NA
ENDROOT
BRANCH  13  14
ATOM     14  C   UNL     1      -3.687  -0.751  24.930  0.00  0.00    +0.075 A 
ATOM     15  C   UNL     1      -3.338  -0.678  25.673  0.00  0.00    +0.017 A 
ATOM     16  C   UNL     1      -3.081  -1.351  26.077  0.00  0.00    +0.001 A 
ATOM     17  C   UNL     1      -3.175  -2.096  25.737  0.00  0.00    +0.000 A 
ATOM     18  C   UNL     1      -3.524  -2.169  24.994  0.00  0.00    +0.001 A 
ATOM     19  C   UNL     1      -3.618  -2.915  24.653  0.00  0.00    +0.000 A 
ATOM     20  C   UNL     1      -3.968  -2.989  23.910  0.00  0.00    +0.000 A 
ATOM     21  C   UNL     1      -4.224  -2.315  23.506  0.00  0.00    +0.000 A 
ATOM     22  C   UNL     1      -4.131  -1.570  23.846  0.00  0.00    +0.001 A 
ATOM     23  C   UNL     1      -3.781  -1.496  24.590  0.00  0.00    +0.015 A 
ENDBRANCH  13  14
BRANCH  10   6
ATOM      1  O   UNL     1      -5.702   4.316  25.838  0.00  0.00    -0.218 OA
ATOM      2  C   UNL     1      -5.271   3.735  25.440  0.00  0.00    +0.211 C 
ATOM      3  C   UNL     1      -4.580   3.857  25.008  0.00  0.00    +0.178 C 
ATOM      4  O   UNL     1      -4.336   3.128  24.706  0.00  0.00    -0.349 OA
ATOM      5  C   UNL     1      -4.878   2.558  24.952  0.00  0.00    +0.167 C 
ATOM      6  C   UNL     1      -5.063   1.754  24.918  0.00  0.00    +0.156 C 
ATOM      7  C   UNL     1      -5.755   1.632  25.351  0.00  0.00    +0.166 C 
ATOM      8  O   UNL     1      -5.998   2.361  25.652  0.00  0.00    -0.349 OA
ATOM      9  C   UNL     1      -5.455   2.933  25.406  0.00  0.00    +0.177 C 
ENDBRANCH  10   6
TORSDOF 2
ENDMDL
MODEL 2
REMARK VINA RESULT:     -12.2      1.928      2.343
REMARK  Name = 
REMARK  2 active torsions:
REMARK  status: ('A' for Active; 'I' for Inactive)
REMARK    1  A    between atoms: C_6  and  N_10
REMARK    2  A    between atoms: N_13  and  C_14
REMARK                            x       y       z     vdW  Elec       q    Type
REMARK                         _______ _______ _______ _____ _____    ______ ____
ROOT
ATOM     10  N   UNL     1      -3.003   1.729  24.807  0.00  0.00    -0.184 NA
ATOM     11  C   UNL     1      -2.681   0.971  24.844  0.00  0.00    +0.344 C 
ATOM     12  O   UNL     1      -1.863   0.868  24.807  0.00  0.00    -0.249 OA
ATOM     13  N   UNL     1      -3.176   0.315  24.916  0.00  0.00    -0.161 NA
ENDROOT
BRANCH  13  14
ATOM     14  C   UNL     1      -2.854  -0.443  24.952  0.00  0.00    +0.075 A 
ATOM     15  C   UNL     1      -2.122  -0.563  25.312  0.00  0.00    +0.017 A 
ATOM     16  C   UNL     1      -1.799  -1.323  25.349  0.00  0.00    +0.001 A 
ATOM     17  C   UNL     1      -2.209  -1.960  25.025  0.00  0.00    +0.000 A 
ATOM     18  C   UNL     1      -2.941  -1.841  24.665  0.00  0.00    +0.001 A 
ATOM     19  C   UNL     1      -3.351  -2.479  24.340  0.00  0.00    +0.000 A 
ATOM     20  C   UNL     1      -4.083  -2.359  23.980  0.00  0.00    +0.000 A 
ATOM     21  C   UNL     1      -4.406  -1.599  23.944  0.00  0.00    +0.000 A 
ATOM     22  C   UNL     1      -3.996  -0.962  24.268  0.00  0.00    +0.001 A 
ATOM     23  C   UNL     1      -3.264  -1.081  24.628  0.00  0.00    +0.015 A 
ENDBRANCH  13  14
BRANCH  10   6
ATOM      1  O   UNL     1      -1.517   4.942  25.284  0.00  0.00    -0.218 OA
ATOM      2  C   UNL     1      -2.012   4.286  25.356  0.00  0.00    +0.211 C 
ATOM      3  C   UNL     1      -2.647   4.213  25.877  0.00  0.00    +0.178 C 
ATOM      4  O   UNL     1      -2.986   3.470  25.763  0.00  0.00    -0.349 OA
ATOM      5  C   UNL     1      -2.561   3.084  25.172  0.00  0.00    +0.167 C 
ATOM      6  C   UNL     1      -2.508   2.385  24.735  0.00  0.00    +0.156 C 
ATOM      7  C   UNL     1      -1.872   2.458  24.213  0.00  0.00    +0.166 C 
ATOM      8  O   UNL     1      -1.533   3.201  24.328  0.00  0.00    -0.349 OA
ATOM      9  C   UNL     1      -1.959   3.588  24.920  0.00  0.00    +0.177 C 
ENDBRANCH  10   6
TORSDOF 2
ENDMDL
MODEL 3
REMARK VINA RESULT:     -11.6      1.694      4.974
REMARK  Name = 
REMARK  2 active torsions:
REMARK  status: ('A' for Active; 'I' for Inactive)
REMARK    1  A    between atoms: C_6  and  N_10
REMARK    2  A    between atoms: N_13  and  C_14
REMARK                            x       y       z     vdW  Elec       q    Type
REMARK                         _______ _______ _______ _____ _____    ______ ____
ROOT
ATOM     10  N   UNL     1      -3.255   0.315  24.168  0.00  0.00    -0.184 NA
ATOM     11  C   UNL     1      -3.640   0.952  24.522  0.00  0.00    +0.344 C 
ATOM     12  O   UNL     1      -4.357   0.834  24.914  0.00  0.00    -0.249 OA
ATOM     13  N   UNL     1      -3.310   1.707  24.485  0.00  0.00    -0.161 NA
ENDROOT
BRANCH  13  14
ATOM     14  C   UNL     1      -3.696   2.344  24.840  0.00  0.00    +0.075 A 
ATOM     15  C   UNL     1      -4.520   2.371  24.854  0.00  0.00    +0.017 A 
ATOM     16  C   UNL     1      -4.906   3.009  25.210  0.00  0.00    +0.001 A 
ATOM     17  C   UNL     1      -4.467   3.619  25.550  0.00  0.00    +0.000 A 
ATOM     18  C   UNL     1      -3.643   3.592  25.535  0.00  0.00    +0.001 A 
ATOM     19  C   UNL     1      -3.203   4.201  25.875  0.00  0.00    +0.000 A 
ATOM     20  C   UNL     1      -2.380   4.174  25.861  0.00  0.00    +0.000 A 
ATOM     21  C   UNL     1      -1.994   3.536  25.506  0.00  0.00    +0.000 A 
ATOM     22  C   UNL     1      -2.432   2.927  25.166  0.00  0.00    +0.001 A 
ATOM     23  C   UNL     1      -3.257   2.954  25.180  0.00  0.00    +0.015 A 
ENDBRANCH  13  14
BRANCH  10   6
ATOM      1  O   UNL     1      -3.646  -3.216  24.539  0.00  0.00    -0.218 OA
ATOM      2  C   UNL     1      -3.316  -2.461  24.501  0.00  0.00    +0.211 C 
ATOM      3  C   UNL     1      -2.521  -2.274  24.614  0.00  0.00    +0.178 C 
ATOM      4  O   UNL     1      -2.436  -1.458  24.527  0.00  0.00    -0.349 OA
ATOM      5  C   UNL     1      -3.179  -1.141  24.361  0.00  0.00    +0.167 C 
ATOM      6  C   UNL     1      -3.586  -0.440  24.205  0.00  0.00    +0.156 C 
ATOM      7  C   UNL     1      -4.382  -0.627  24.092  0.00  0.00    +0.166 C 
ATOM      8  O   UNL     1      -4.467  -1.443  24.179  0.00  0.00    -0.349 OA
ATOM      9  C   UNL     1      -3.723  -1.761  24.345  0.00  0.00    +0.177 C 
ENDBRANCH  10   6
TORSDOF 2
ENDMDL
