MODEL 1
REMARK VINA RESULT:     -12.9      0.000      0.000
REMARK  Name = 
REMARK  7 active torsions:
REMARK  status: ('A' for Active; 'I' for Inactive)
REMARK    1  A    between atoms: C_2  and  C_3
REMARK    2  A    between atoms: C_11  and  C_12
REMARK    3  A    between atoms: C_12  and  C_13
REMARK    4  A    between atoms: N_15  and  C_16
REMARK    5  A    between atoms: C_16  and  C_17
REMARK    6  A    between atoms: C_17  and  N_18
REMARK    7  A    between atoms: C_31  and  C_33
REMARK                            x       y       z     vdW  Elec       q    Type
REMARK                         _______ _______ _______ _____ _____    ______ ____
ROOT
ATOM      1  C   UNL     1      -2.707   4.824  25.314  0.00  0.00    +0.005 C 
ATOM      2  C   UNL     1      -2.368   4.077  25.224  0.00  0.00    +0.059 C 
ATOM      5  C   UNL     1      -1.687   4.535  25.306  0.00  0.00    +0.154 C 
ATOM      6  O   UNL     1      -1.748   5.351  25.413  0.00  0.00    -0.223 OA
ATOM      7  C   UNL     1      -0.943   4.177  25.279  0.00  0.00    +0.033 C 
ATOM      8  C   UNL     1      -0.882   3.362  25.172  0.00  0.00    +0.003 C 
ATOM      9  C   UNL     1      -1.563   2.904  25.091  0.00  0.00    +0.006 C 
ATOM     10  C   UNL     1      -0.821   2.547  25.065  0.00  0.00    +0.000 C 
ATOM     11  C   UNL     1      -1.502   2.088  24.983  0.00  0.00    +0.050 C 
ATOM     24  C   UNL     1      -2.183   1.631  24.902  0.00  0.00    +0.063 A 
ATOM     25  C   UNL     1      -2.927   1.989  24.928  0.00  0.00    +0.023 A 
ATOM     26  C   UNL     1      -2.988   2.804  25.036  0.00  0.00    +0.034 C 
ATOM     27  C   UNL     1      -2.307   3.262  25.117  0.00  0.00    +0.010 C 
ATOM     28  S   UNL     1      -3.496   1.399  24.833  0.00  0.00    -0.054 S 
ATOM     29  C   UNL     1      -3.106   0.678  24.748  0.00  0.00    +0.185 A 
ATOM     30  N   UNL     1      -3.464  -0.058  24.639  0.00  0.00    -0.154 NA
ATOM     31  C   UNL     1      -2.999  -0.734  24.562  0.00  0.00    +0.247 C 
ATOM     32  O   UNL     1      -2.177  -0.677  24.593  0.00  0.00    -0.273 OA
ATOM     39  N   UNL     1      -2.295   0.821  24.791  0.00  0.00    -0.227 NA
ENDROOT
BRANCH  31  33
ATOM     33  C   UNL     1      -3.357  -1.470  24.453  0.00  0.00    +0.079 C 
ATOM     34  C   UNL     1      -3.929  -1.568  23.865  0.00  0.00    +0.009 C 
ATOM     35  C   UNL     1      -4.287  -2.303  23.756  0.00  0.00    +0.000 C 
ATOM     36  C   UNL     1      -4.073  -2.940  24.235  0.00  0.00    +0.000 C 
ATOM     37  C   UNL     1      -3.503  -2.843  24.822  0.00  0.00    +0.000 C 
ATOM     38  C   UNL     1      -3.145  -2.107  24.931  0.00  0.00    +0.009 C 
ENDBRANCH  31  33
BRANCH   2   3
ATOM      3  C   UNL     1      -3.167   3.879  25.175  0.00  0.00    +0.184 C 
ATOM      4  O   UNL     1      -3.743   4.464  25.256  0.00  0.00    -0.220 OA
ENDBRANCH   2   3
BRANCH  11  12
ATOM     12  C   UNL     1      -0.759   1.730  24.957  0.00  0.00    +0.093 C 
BRANCH  12  13
ATOM     13  C   UNL     1      -0.439   1.495  24.233  0.00  0.00    +0.242 C 
ATOM     14  O   UNL     1      -0.731   1.815  23.531  0.00  0.00    -0.273 OA
ATOM     15  N   UNL     1       0.170   0.941  24.212  0.00  0.00    -0.204 NA
BRANCH  15  16
ATOM     16  C   UNL     1       0.490   0.706  23.489  0.00  0.00    +0.132 C 
BRANCH  16  17
ATOM     17  C   UNL     1       1.009   0.065  23.456  0.00  0.00    +0.096 C 
BRANCH  17  18
ATOM     18  N   UNL     1       1.599   0.043  22.881  0.00  0.00    -0.267 NA
ATOM     19  C   UNL     1       2.343   0.364  23.038  0.00  0.00    +0.105 C 
ATOM     20  C   UNL     1       2.933   0.341  22.463  0.00  0.00    +0.159 C 
ATOM     21  O   UNL     1       2.781  -0.003  21.729  0.00  0.00    -0.351 OA
ATOM     22  C   UNL     1       2.037  -0.325  21.570  0.00  0.00    +0.159 C 
ATOM     23  C   UNL     1       1.446  -0.302  22.147  0.00  0.00    +0.105 C 
ENDBRANCH  17  18
ENDBRANCH  16  17
ENDBRANCH  15  16
ENDBRANCH  12  13
ENDBRANCH  11  12
TORSDOF 7
ENDMDL
MODEL 2
REMARK VINA RESULT:     -12.0      1.191      4.489
REMARK  Name = 
REMARK  7 active torsions:
REMARK  status: ('A' for Active; 'I' for Inactive)
REMARK    1  A    between atoms: C_2  and  C_3
REMARK    2  A    between atoms: C_11  and  C_12
REMARK    3  A    between atoms: C_12  and  C_13
REMARK    4  A    between atoms: N_15  and  C_16
REMARK    5  A    between atoms: C_16  and  C_17
REMARK    6  A    between atoms: C_17  and  N_18
REMARK    7  A    between atoms: C_31  and  C_33
REMARK                            x       y       z     vdW  Elec       q    Type
REMARK                         _______ _______ _______ _____ _____    ______ ____
ROOT
ATOM      1  C   UNL     1      -4.027  -2.168  24.404  0.00  0.00    +0.005 C 
ATOM      2  C   UNL     1      -3.362  -1.684  24.474  0.00  0.00    +0.059 C 
ATOM      5  C   UNL     1      -2.998  -2.422  24.430  0.00  0.00    +0.154 C 
ATOM      6  O   UNL     1      -3.455  -3.105  24.352  0.00  0.00    -0.223 OA
ATOM      7  C   UNL     1      -2.174  -2.479  24.463  0.00  0.00    +0.033 C 
ATOM      8  C   UNL     1      -1.718  -1.797  24.540  0.00  0.00    +0.003 C 
ATOM      9  C   UNL     1      -2.082  -1.059  24.584  0.00  0.00    +0.006 C 
ATOM     10  C   UNL     1      -1.261  -1.115  24.617  0.00  0.00    +0.000 C 
ATOM     11  C   UNL     1      -1.625  -0.376  24.662  0.00  0.00    +0.050 C 
ATOM     24  C   UNL     1      -1.990   0.362  24.706  0.00  0.00    +0.063 A 
ATOM     25  C   UNL     1      -2.813   0.418  24.674  0.00  0.00    +0.023 A 
ATOM     26  C   UNL     1      -3.270  -0.264  24.596  0.00  0.00    +0.034 C 
ATOM     27  C   UNL     1      -2.906  -1.003  24.552  0.00  0.00    +0.010 C 
ATOM     28  S   UNL     1      -3.016   1.216  24.730  0.00  0.00    -0.054 S 
ATOM     29  C   UNL     1      -2.320   1.653  24.798  0.00  0.00    +0.185 A 
ATOM     30  N   UNL     1      -2.266   2.473  24.869  0.00  0.00    -0.154 NA
ATOM     31  C   UNL     1      -1.528   2.834  24.933  0.00  0.00    +0.247 C 
ATOM     32  O   UNL     1      -0.842   2.376  24.926  0.00  0.00    -0.273 OA
ATOM     39  N   UNL     1      -1.686   1.125  24.784  0.00  0.00    -0.227 NA
ENDROOT
BRANCH  31  33
ATOM     33  C   UNL     1      -1.475   3.654  25.003  0.00  0.00    +0.079 C 
ATOM     34  C   UNL     1      -2.057   4.072  25.413  0.00  0.00    +0.009 C 
ATOM     35  C   UNL     1      -2.003   4.892  25.484  0.00  0.00    +0.000 C 
ATOM     36  C   UNL     1      -1.368   5.295  25.144  0.00  0.00    +0.000 C 
ATOM     37  C   UNL     1      -0.787   4.878  24.734  0.00  0.00    +0.000 C 
ATOM     38  C   UNL     1      -0.840   4.058  24.664  0.00  0.00    +0.009 C 
ENDBRANCH  31  33
BRANCH   2   3
ATOM      3  C   UNL     1      -3.958  -1.114  24.494  0.00  0.00    +0.184 C 
ATOM      4  O   UNL     1      -4.731  -1.318  24.287  0.00  0.00    -0.220 OA
ENDBRANCH   2   3
BRANCH  11  12
ATOM     12  C   UNL     1      -0.803  -0.432  24.695  0.00  0.00    +0.093 C 
BRANCH  12  13
ATOM     13  C   UNL     1      -0.351  -0.272  24.023  0.00  0.00    +0.242 C 
ATOM     14  O   UNL     1      -0.710  -0.253  23.280  0.00  0.00    -0.273 OA
ATOM     15  N   UNL     1       0.458  -0.132  24.094  0.00  0.00    -0.204 NA
BRANCH  15  16
ATOM     16  C   UNL     1       0.910   0.028  23.423  0.00  0.00    +0.132 C 
BRANCH  16  17
ATOM     17  C   UNL     1       1.534   0.566  23.464  0.00  0.00    +0.096 C 
BRANCH  17  18
ATOM     18  N   UNL     1       2.184   0.483  22.963  0.00  0.00    -0.267 NA
ATOM     19  C   UNL     1       2.897   0.855  23.145  0.00  0.00    +0.105 C 
ATOM     20  C   UNL     1       3.547   0.772  22.644  0.00  0.00    +0.159 C 
ATOM     21  O   UNL     1       3.484   0.316  21.959  0.00  0.00    -0.351 OA
ATOM     22  C   UNL     1       2.770  -0.057  21.776  0.00  0.00    +0.159 C 
ATOM     23  C   UNL     1       2.120   0.027  22.278  0.00  0.00    +0.105 C 
ENDBRANCH  17  18
ENDBRANCH  16  17
ENDBRANCH  15  16
ENDBRANCH  12  13
ENDBRANCH  11  12
TORSDOF 7
ENDMDL
MODEL 3
REMARK VINA RESULT:     -11.7      2.305      6.265
REMARK  Name = 
REMARK  7 active torsions:
REMARK  status: ('A' for Active; 'I' for Inactive)
REMARK    1  A    between atoms: C_2  and  C_3
REMARK    2  A    between atoms: C_11  and  C_12
REMARK    3  A    between atoms: C_12  and  C_13
REMARK    4  A    between atoms: N_15  and  C_16
REMARK    5  A    between atoms: C_16  and  C_17
REMARK    6  A    between atoms: C_17  and  N_18
REMARK    7  A    between atoms: C_31  and  C_33
REMARK                            x       y       z     vdW  Elec       q    Type
REMARK                         _______ _______ _______ _____ _____    ______ ____
ROOT
ATOM      1  C   UNL     1      -2.040  -3.012  24.658  0.00  0.00    +0.005 C 
ATOM      2  C   UNL     1      -2.379  -2.265  24.568  0.00  0.00    +0.059 C 
ATOM      5  C   UNL     1      -3.029  -2.739  24.388  0.00  0.00    +0.154 C 
ATOM      6  O   UNL     1      -2.958  -3.561  24.404  0.00  0.00    -0.223 OA
ATOM      7  C   UNL     1      -3.752  -2.391  24.191  0.00  0.00    +0.033 C 
ATOM      8  C   UNL     1      -3.823  -1.570  24.175  0.00  0.00    +0.003 C 
ATOM      9  C   UNL     1      -3.173  -1.096  24.355  0.00  0.00    +0.006 C 
ATOM     10  C   UNL     1      -3.894  -0.749  24.159  0.00  0.00    +0.000 C 
ATOM     11  C   UNL     1      -3.244  -0.274  24.339  0.00  0.00    +0.050 C 
ATOM     24  C   UNL     1      -2.594   0.200  24.519  0.00  0.00    +0.063 A 
ATOM     25  C   UNL     1      -1.871  -0.148  24.715  0.00  0.00    +0.023 A 
ATOM     26  C   UNL     1      -1.800  -0.969  24.732  0.00  0.00    +0.034 C 
ATOM     27  C   UNL     1      -2.450  -1.444  24.552  0.00  0.00    +0.010 C 
ATOM     28  S   UNL     1      -1.331   0.457  24.866  0.00  0.00    -0.054 S 
ATOM     29  C   UNL     1      -1.718   1.178  24.763  0.00  0.00    +0.185 A 
ATOM     30  N   UNL     1      -1.384   1.927  24.857  0.00  0.00    -0.154 NA
ATOM     31  C   UNL     1      -1.842   2.601  24.734  0.00  0.00    +0.247 C 
ATOM     32  O   UNL     1      -2.635   2.528  24.517  0.00  0.00    -0.273 OA
ATOM     39  N   UNL     1      -2.499   1.019  24.548  0.00  0.00    -0.227 NA
ENDROOT
BRANCH  31  33
ATOM     33  C   UNL     1      -1.508   3.349  24.829  0.00  0.00    +0.079 C 
ATOM     34  C   UNL     1      -1.922   3.938  25.233  0.00  0.00    +0.009 C 
ATOM     35  C   UNL     1      -1.588   4.687  25.327  0.00  0.00    +0.000 C 
ATOM     36  C   UNL     1      -0.840   4.846  25.018  0.00  0.00    +0.000 C 
ATOM     37  C   UNL     1      -0.426   4.258  24.615  0.00  0.00    +0.000 C 
ATOM     38  C   UNL     1      -0.760   3.510  24.520  0.00  0.00    +0.009 C 
ENDBRANCH  31  33
BRANCH   2   3
ATOM      3  C   UNL     1      -1.611  -2.050  24.779  0.00  0.00    +0.184 C 
ATOM      4  O   UNL     1      -1.051  -2.633  24.949  0.00  0.00    -0.220 OA
ENDBRANCH   2   3
BRANCH  11  12
ATOM     12  C   UNL     1      -3.966   0.073  24.142  0.00  0.00    +0.093 C 
BRANCH  12  13
ATOM     13  C   UNL     1      -4.434   0.416  24.730  0.00  0.00    +0.242 C 
ATOM     14  O   UNL     1      -4.398   0.129  25.503  0.00  0.00    -0.273 OA
ATOM     15  N   UNL     1      -4.935   1.043  24.546  0.00  0.00    -0.204 NA
BRANCH  15  16
ATOM     16  C   UNL     1      -5.402   1.385  25.133  0.00  0.00    +0.132 C 
BRANCH  16  17
ATOM     17  C   UNL     1      -5.869   2.042  24.959  0.00  0.00    +0.096 C 
BRANCH  17  18
ATOM     18  N   UNL     1      -5.737   2.757  25.348  0.00  0.00    -0.267 NA
ATOM     19  C   UNL     1      -5.667   2.773  26.170  0.00  0.00    +0.105 C 
ATOM     20  C   UNL     1      -5.535   3.489  26.559  0.00  0.00    +0.159 C 
ATOM     21  O   UNL     1      -5.472   4.188  26.127  0.00  0.00    -0.351 OA
ATOM     22  C   UNL     1      -5.542   4.173  25.304  0.00  0.00    +0.159 C 
ATOM     23  C   UNL     1      -5.675   3.457  24.915  0.00  0.00    +0.105 C 
ENDBRANCH  17  18
ENDBRANCH  16  17
ENDBRANCH  15  16
ENDBRANCH  12  13
ENDBRANCH  11  12
TORSDOF 7
ENDMDL
MODEL 4
REMARK VINA RESULT:     -11.5      2.112      5.040
REMARK  Name = 
REMARK  7 active torsions:
REMARK  status: ('A' for Active; 'I' for Inactive)
REMARK    1  A    between atoms: C_2  and  C_3
REMARK    2  A    between atoms: C_11  and  C_12
REMARK    3  A    between atoms: C_12  and  C_13
REMARK    4  A    between atoms: N_15  and  C_16
REMARK    5  A    between atoms: C_16  and  C_17
REMARK    6  A    between atoms: C_17  and  N_18
REMARK    7  A    between atoms: C_31  and  C_33
REMARK                            x       y       z     vdW  Elec       q    Type
REMARK                         _______ _______ _______ _____ _____    ______ ____
ROOT
ATOM      1  C   UNL     1      -3.708  -3.113  23.964  0.00  0.00    +0.005 C 
ATOM      2  C   UNL     1      -3.451  -2.394  24.276  0.00  0.00    +0.059 C 
ATOM      5  C   UNL     1      -2.781  -2.856  24.409  0.00  0.00    +0.154 C 
ATOM      6  O   UNL     1      -2.773  -3.648  24.180  0.00  0.00    -0.223 OA
ATOM      7  C   UNL     1      -2.117  -2.524  24.771  0.00  0.00    +0.033 C 
ATOM      8  C   UNL     1      -2.124  -1.732  25.000  0.00  0.00    +0.003 C 
ATOM      9  C   UNL     1      -2.795  -1.271  24.867  0.00  0.00    +0.006 C 
ATOM     10  C   UNL     1      -2.132  -0.940  25.228  0.00  0.00    +0.000 C 
ATOM     11  C   UNL     1      -2.803  -0.478  25.096  0.00  0.00    +0.050 C 
ATOM     24  C   UNL     1      -3.473  -0.017  24.964  0.00  0.00    +0.063 A 
ATOM     25  C   UNL     1      -4.137  -0.349  24.602  0.00  0.00    +0.023 A 
ATOM     26  C   UNL     1      -4.130  -1.141  24.373  0.00  0.00    +0.034 C 
ATOM     27  C   UNL     1      -3.459  -1.603  24.505  0.00  0.00    +0.010 C 
ATOM     28  S   UNL     1      -4.714   0.238  24.543  0.00  0.00    -0.054 S 
ATOM     29  C   UNL     1      -4.408   0.932  24.868  0.00  0.00    +0.185 A 
ATOM     30  N   UNL     1      -4.800   1.656  24.924  0.00  0.00    -0.154 NA
ATOM     31  C   UNL     1      -4.421   2.304  25.265  0.00  0.00    +0.247 C 
ATOM     32  O   UNL     1      -3.651   2.229  25.551  0.00  0.00    -0.273 OA
ATOM     39  N   UNL     1      -3.642   0.774  25.128  0.00  0.00    -0.227 NA
ENDROOT
BRANCH  31  33
ATOM     33  C   UNL     1      -4.813   3.028  25.321  0.00  0.00    +0.079 C 
ATOM     34  C   UNL     1      -4.463   3.711  25.018  0.00  0.00    +0.009 C 
ATOM     35  C   UNL     1      -4.854   4.435  25.073  0.00  0.00    +0.000 C 
ATOM     36  C   UNL     1      -5.596   4.476  25.432  0.00  0.00    +0.000 C 
ATOM     37  C   UNL     1      -5.946   3.793  25.735  0.00  0.00    +0.000 C 
ATOM     38  C   UNL     1      -5.555   3.069  25.679  0.00  0.00    +0.009 C 
ENDBRANCH  31  33
BRANCH   2   3
ATOM      3  C   UNL     1      -4.211  -2.183  24.035  0.00  0.00    +0.184 C 
ATOM      4  O   UNL     1      -4.679  -2.724  23.623  0.00  0.00    -0.220 OA
ENDBRANCH   2   3
BRANCH  11  12
ATOM     12  C   UNL     1      -2.139  -0.147  25.458  0.00  0.00    +0.093 C 
BRANCH  12  13
ATOM     13  C   UNL     1      -1.656   0.373  25.037  0.00  0.00    +0.242 C 
ATOM     14  O   UNL     1      -1.608   0.317  24.215  0.00  0.00    -0.273 OA
ATOM     15  N   UNL     1      -1.222   0.948  25.437  0.00  0.00    -0.204 NA
BRANCH  15  16
ATOM     16  C   UNL     1      -0.739   1.468  25.017  0.00  0.00    +0.132 C 
BRANCH  16  17
ATOM     17  C   UNL     1      -0.352   2.081  25.410  0.00  0.00    +0.096 C 
BRANCH  17  18
ATOM     18  N   UNL     1      -0.418   2.855  25.132  0.00  0.00    -0.267 NA
ATOM     19  C   UNL     1      -0.157   3.046  24.373  0.00  0.00    +0.105 C 
ATOM     20  C   UNL     1      -0.223   3.820  24.095  0.00  0.00    +0.159 C 
ATOM     21  O   UNL     1      -0.551   4.404  24.577  0.00  0.00    -0.351 OA
ATOM     22  C   UNL     1      -0.812   4.214  25.337  0.00  0.00    +0.159 C 
ATOM     23  C   UNL     1      -0.746   3.439  25.614  0.00  0.00    +0.105 C 
ENDBRANCH  17  18
ENDBRANCH  16  17
ENDBRANCH  15  16
ENDBRANCH  12  13
ENDBRANCH  11  12
TORSDOF 7
ENDMDL
MODEL 5
REMARK VINA RESULT:     -11.2      1.521      2.231
REMARK  Name = 
REMARK  7 active torsions:
REMARK  status: ('A' for Active; 'I' for Inactive)
REMARK    1  A    between atoms: C_2  and  C_3
REMARK    2  A    between atoms: C_11  and  C_12
REMARK    3  A    between atoms: C_12  and  C_13
REMARK    4  A    between atoms: N_15  and  C_16
REMARK    5  A    between atoms: C_16  and  C_17
REMARK    6  A    between atoms: C_17  and  N_18
REMARK    7  A    between atoms: C_31  and  C_33
REMARK                            x       y       z     vdW  Elec       q    Type
REMARK                         _______ _______ _______ _____ _____    ______ ____
ROOT
ATOM      1  C   UNL     1      -5.637   4.011  25.728  0.00  0.00    +0.005 C 
ATOM      2  C   UNL     1      -5.117   3.505  25.335  0.00  0.00    +0.059 C 
ATOM      5  C   UNL     1      -4.809   4.234  25.105  0.00  0.00    +0.154 C 
ATOM      6  O   UNL     1      -5.158   4.933  25.369  0.00  0.00    -0.223 OA
ATOM      7  C   UNL     1      -4.149   4.265  24.609  0.00  0.00    +0.033 C 
ATOM      8  C   UNL     1      -3.799   3.567  24.344  0.00  0.00    +0.003 C 
ATOM      9  C   UNL     1      -4.108   2.838  24.575  0.00  0.00    +0.006 C 
ATOM     10  C   UNL     1      -3.450   2.869  24.080  0.00  0.00    +0.000 C 
ATOM     11  C   UNL     1      -3.758   2.139  24.310  0.00  0.00    +0.050 C 
ATOM     24  C   UNL     1      -4.066   1.410  24.541  0.00  0.00    +0.063 A 
ATOM     25  C   UNL     1      -4.726   1.379  25.037  0.00  0.00    +0.023 A 
ATOM     26  C   UNL     1      -5.075   2.077  25.301  0.00  0.00    +0.034 C 
ATOM     27  C   UNL     1      -4.767   2.807  25.071  0.00  0.00    +0.010 C 
ATOM     28  S   UNL     1      -4.906   0.585  25.171  0.00  0.00    -0.054 S 
ATOM     29  C   UNL     1      -4.359   0.125  24.759  0.00  0.00    +0.185 A 
ATOM     30  N   UNL     1      -4.335  -0.699  24.739  0.00  0.00    -0.154 NA
ATOM     31  C   UNL     1      -3.753  -1.084  24.300  0.00  0.00    +0.247 C 
ATOM     32  O   UNL     1      -3.194  -0.645  23.880  0.00  0.00    -0.273 OA
ATOM     39  N   UNL     1      -3.840   0.635  24.369  0.00  0.00    -0.227 NA
ENDROOT
BRANCH  31  33
ATOM     33  C   UNL     1      -3.729  -1.908  24.280  0.00  0.00    +0.079 C 
ATOM     34  C   UNL     1      -3.180  -2.317  24.743  0.00  0.00    +0.009 C 
ATOM     35  C   UNL     1      -3.156  -3.141  24.724  0.00  0.00    +0.000 C 
ATOM     36  C   UNL     1      -3.681  -3.557  24.241  0.00  0.00    +0.000 C 
ATOM     37  C   UNL     1      -4.228  -3.150  23.779  0.00  0.00    +0.000 C 
ATOM     38  C   UNL     1      -4.252  -2.325  23.799  0.00  0.00    +0.009 C 
ENDBRANCH  31  33
BRANCH   2   3
ATOM      3  C   UNL     1      -5.606   2.952  25.702  0.00  0.00    +0.184 C 
ATOM      4  O   UNL     1      -6.202   3.203  26.216  0.00  0.00    -0.220 OA
ENDBRANCH   2   3
BRANCH  11  12
ATOM     12  C   UNL     1      -3.099   2.170  23.814  0.00  0.00    +0.093 C 
BRANCH  12  13
ATOM     13  C   UNL     1      -2.353   1.969  24.106  0.00  0.00    +0.242 C 
ATOM     14  O   UNL     1      -2.170   2.107  24.898  0.00  0.00    -0.273 OA
ATOM     15  N   UNL     1      -1.792   1.631  23.606  0.00  0.00    -0.204 NA
BRANCH  15  16
ATOM     16  C   UNL     1      -1.047   1.430  23.896  0.00  0.00    +0.132 C 
BRANCH  16  17
ATOM     17  C   UNL     1      -0.425   1.284  23.374  0.00  0.00    +0.096 C 
BRANCH  17  18
ATOM     18  N   UNL     1       0.032   0.604  23.458  0.00  0.00    -0.267 NA
ATOM     19  C   UNL     1      -0.191   0.019  23.995  0.00  0.00    +0.105 C 
ATOM     20  C   UNL     1       0.267  -0.662  24.079  0.00  0.00    +0.159 C 
ATOM     21  O   UNL     1       0.949  -0.759  23.626  0.00  0.00    -0.351 OA
ATOM     22  C   UNL     1       1.174  -0.174  23.088  0.00  0.00    +0.159 C 
ATOM     23  C   UNL     1       0.715   0.508  23.005  0.00  0.00    +0.105 C 
ENDBRANCH  17  18
ENDBRANCH  16  17
ENDBRANCH  15  16
ENDBRANCH  12  13
ENDBRANCH  11  12
TORSDOF 7
ENDMDL
MODEL 6
REMARK VINA RESULT:      -9.9      1.388      4.150
REMARK  Name = 
REMARK  7 active torsions:
REMARK  status: ('A' for Active; 'I' for Inactive)
REMARK    1  A    between atoms: C_2  and  C_3
REMARK    2  A    between atoms: C_11  and  C_12
REMARK    3  A    between atoms: C_12  and  C_13
REMARK    4  A    between atoms: N_15  and  C_16
REMARK    5  A    between atoms: C_16  and  C_17
REMARK    6  A    between atoms: C_17  and  N_18
REMARK    7  A    between atoms: C_31  and  C_33
REMARK                            x       y       z     vdW  Elec       q    Type
REMARK                         _______ _______ _______ _____ _____    ______ ____
ROOT
ATOM      1  C   UNL     1      -4.294   4.427  26.125  0.00  0.00    +0.005 C 
ATOM      2  C   UNL     1      -4.080   3.771  25.672  0.00  0.00    +0.059 C 
ATOM      5  C   UNL     1      -4.901   3.706  25.640  0.00  0.00    +0.154 C 
ATOM      6  O   UNL     1      -5.376   4.260  26.026  0.00  0.00    -0.223 OA
ATOM      7  C   UNL     1      -5.250   3.086  25.220  0.00  0.00    +0.033 C 
ATOM      8  C   UNL     1      -4.777   2.532  24.834  0.00  0.00    +0.003 C 
ATOM      9  C   UNL     1      -3.956   2.598  24.867  0.00  0.00    +0.006 C 
ATOM     10  C   UNL     1      -4.303   1.979  24.448  0.00  0.00    +0.000 C 
ATOM     11  C   UNL     1      -3.481   2.044  24.480  0.00  0.00    +0.050 C 
ATOM     24  C   UNL     1      -2.660   2.109  24.513  0.00  0.00    +0.063 A 
ATOM     25  C   UNL     1      -2.312   2.729  24.933  0.00  0.00    +0.023 A 
ATOM     26  C   UNL     1      -2.785   3.282  25.319  0.00  0.00    +0.034 C 
ATOM     27  C   UNL     1      -3.607   3.218  25.286  0.00  0.00    +0.010 C 
ATOM     28  S   UNL     1      -1.493   2.651  24.867  0.00  0.00    -0.054 S 
ATOM     29  C   UNL     1      -1.335   1.984  24.408  0.00  0.00    +0.185 A 
ATOM     30  N   UNL     1      -0.587   1.702  24.204  0.00  0.00    -0.154 NA
ATOM     31  C   UNL     1      -0.515   1.025  23.739  0.00  0.00    +0.247 C 
ATOM     32  O   UNL     1      -1.190   0.629  23.478  0.00  0.00    -0.273 OA
ATOM     39  N   UNL     1      -2.056   1.649  24.189  0.00  0.00    -0.227 NA
ENDROOT
BRANCH  31  33
ATOM     33  C   UNL     1       0.233   0.743  23.535  0.00  0.00    +0.079 C 
ATOM     34  C   UNL     1       0.901   1.209  23.669  0.00  0.00    +0.009 C 
ATOM     35  C   UNL     1       1.649   0.927  23.465  0.00  0.00    +0.000 C 
ATOM     36  C   UNL     1       1.729   0.178  23.126  0.00  0.00    +0.000 C 
ATOM     37  C   UNL     1       1.062  -0.287  22.992  0.00  0.00    +0.000 C 
ATOM     38  C   UNL     1       0.314  -0.005  23.197  0.00  0.00    +0.009 C 
ENDBRANCH  31  33
BRANCH   2   3
ATOM      3  C   UNL     1      -3.333   4.064  25.862  0.00  0.00    +0.184 C 
ATOM      4  O   UNL     1      -3.259   4.702  26.382  0.00  0.00    -0.220 OA
ENDBRANCH   2   3
BRANCH  11  12
ATOM     12  C   UNL     1      -3.830   1.424  24.061  0.00  0.00    +0.093 C 
BRANCH  12  13
ATOM     13  C   UNL     1      -3.879   0.673  24.400  0.00  0.00    +0.242 C 
ATOM     14  O   UNL     1      -3.909   0.592  25.220  0.00  0.00    -0.273 OA
ATOM     15  N   UNL     1      -3.899   0.004  23.918  0.00  0.00    -0.204 NA
BRANCH  15  16
ATOM     16  C   UNL     1      -3.949  -0.747  24.256  0.00  0.00    +0.132 C 
BRANCH  16  17
ATOM     17  C   UNL     1      -3.831  -1.417  23.791  0.00  0.00    +0.096 C 
BRANCH  17  18
ATOM     18  N   UNL     1      -3.458  -2.080  24.110  0.00  0.00    -0.267 NA
ATOM     19  C   UNL     1      -2.639  -2.086  24.208  0.00  0.00    +0.105 C 
ATOM     20  C   UNL     1      -2.265  -2.749  24.528  0.00  0.00    +0.159 C 
ATOM     21  O   UNL     1      -2.711  -3.406  24.750  0.00  0.00    -0.351 OA
ATOM     22  C   UNL     1      -3.531  -3.401  24.652  0.00  0.00    +0.159 C 
ATOM     23  C   UNL     1      -3.904  -2.737  24.332  0.00  0.00    +0.105 C 
ENDBRANCH  17  18
ENDBRANCH  16  17
ENDBRANCH  15  16
ENDBRANCH  12  13
ENDBRANCH  11  12
TORSDOF 7
ENDMDL
