MODEL 1
REMARK VINA RESULT:     -11.6      0.000      0.000
REMARK  Name = 
REMARK  6 active torsions:
REMARK  status: ('A' for Active; 'I' for Inactive)
REMARK    1  A    between atoms: C_2  and  C_3
REMARK    2  A    between atoms: C_2  and  C_25
REMARK    3  A    between atoms: C_10  and  N_11
REMARK    4  A    between atoms: C_12  and  C_14
REMARK    5  A    between atoms: N_27  and  C_28
REMARK    6  A    between atoms: C_28  and  C_29
REMARK                            x       y       z     vdW  Elec       q    Type
REMARK                         _______ _______ _______ _____ _____    ______ ____
ROOT
ATOM      3  C   UNL     1      -4.392   2.809  24.545  0.00  0.00    +0.039 C 
ATOM      4  C   UNL     1      -5.037   2.774  25.060  0.00  0.00    +0.003 C 
ATOM      5  C   UNL     1      -5.311   2.044  25.327  0.00  0.00    +0.000 C 
ATOM      6  C   UNL     1      -4.942   1.349  25.081  0.00  0.00    +0.002 C 
ATOM      7  C   UNL     1      -5.585   1.314  25.595  0.00  0.00    +0.000 C 
ATOM      8  C   UNL     1      -5.216   0.618  25.349  0.00  0.00    +0.002 C 
ATOM      9  C   UNL     1      -4.847  -0.076  25.103  0.00  0.00    +0.022 C 
ATOM     10  C   UNL     1      -4.202  -0.041  24.588  0.00  0.00    +0.096 C 
ATOM     20  C   UNL     1      -3.928   0.689  24.320  0.00  0.00    +0.022 C 
ATOM     21  C   UNL     1      -3.284   0.724  23.806  0.00  0.00    +0.002 C 
ATOM     22  C   UNL     1      -4.297   1.384  24.566  0.00  0.00    +0.032 C 
ATOM     23  C   UNL     1      -4.023   2.114  24.299  0.00  0.00    +0.152 C 
ATOM     24  O   UNL     1      -3.379   2.149  23.784  0.00  0.00    -0.223 OA
ENDROOT
BRANCH  10  11
ATOM     11  N   UNL     1      -3.832  -0.737  24.342  0.00  0.00    -0.203 NA
ATOM     12  C   UNL     1      -3.590  -1.295  24.899  0.00  0.00    +0.268 C 
ATOM     13  O   UNL     1      -3.716  -1.157  25.703  0.00  0.00    -0.268 OA
BRANCH  12  14
ATOM     14  C   UNL     1      -3.220  -1.990  24.653  0.00  0.00    +0.093 A 
ATOM     15  C   UNL     1      -3.673  -2.632  24.402  0.00  0.00    +0.107 A 
ATOM     16  N   UNL     1      -3.304  -3.328  24.156  0.00  0.00    -0.222 NA
ATOM     17  C   UNL     1      -2.481  -3.381  24.161  0.00  0.00    +0.199 A 
ATOM     18  N   UNL     1      -2.027  -2.739  24.412  0.00  0.00    -0.222 NA
ATOM     19  C   UNL     1      -2.397  -2.044  24.658  0.00  0.00    +0.107 A 
ENDBRANCH  12  14
ENDBRANCH  10  11
BRANCH   3   2
ATOM      1  C   UNL     1      -4.272   3.781  23.503  0.00  0.00    +0.010 C 
ATOM      2  C   UNL     1      -4.118   3.540  24.277  0.00  0.00    +0.081 C 
BRANCH   2  25
ATOM     25  C   UNL     1      -3.690   4.030  24.784  0.00  0.00    +0.241 C 
ATOM     26  O   UNL     1      -4.080   4.449  25.379  0.00  0.00    -0.273 OA
ATOM     27  N   UNL     1      -2.872   4.102  24.696  0.00  0.00    -0.197 NA
BRANCH  27  28
ATOM     28  C   UNL     1      -2.445   4.592  25.203  0.00  0.00    +0.179 C 
BRANCH  28  29
ATOM     29  C   UNL     1      -1.626   4.655  25.123  0.00  0.00    +0.145 A 
ATOM     30  C   UNL     1      -1.208   5.341  24.935  0.00  0.00    +0.038 A 
ATOM     31  C   UNL     1      -0.405   5.152  24.914  0.00  0.00    +0.043 A 
ATOM     32  C   UNL     1      -0.327   4.348  25.088  0.00  0.00    +0.179 A 
ATOM     33  O   UNL     1      -1.082   4.041  25.217  0.00  0.00    -0.453 OA
ENDBRANCH  28  29
ENDBRANCH  27  28
ENDBRANCH   2  25
ENDBRANCH   3   2
TORSDOF 6
ENDMDL
MODEL 2
REMARK VINA RESULT:     -10.3      1.175      5.243
REMARK  Name = 
REMARK  6 active torsions:
REMARK  status: ('A' for Active; 'I' for Inactive)
REMARK    1  A    between atoms: C_2  and  C_3
REMARK    2  A    between atoms: C_2  and  C_25
REMARK    3  A    between atoms: C_10  and  N_11
REMARK    4  A    between atoms: C_12  and  C_14
REMARK    5  A    between atoms: N_27  and  C_28
REMARK    6  A    between atoms: C_28  and  C_29
REMARK                            x       y       z     vdW  Elec       q    Type
REMARK                         _______ _______ _______ _____ _____    ______ ____
ROOT
ATOM      3  C   UNL     1      -4.204   0.191  24.503  0.00  0.00    +0.039 C 
ATOM      4  C   UNL     1      -4.901   0.365  24.912  0.00  0.00    +0.003 C 
ATOM      5  C   UNL     1      -5.038   1.131  25.184  0.00  0.00    +0.000 C 
ATOM      6  C   UNL     1      -4.480   1.723  25.050  0.00  0.00    +0.002 C 
ATOM      7  C   UNL     1      -5.175   1.897  25.457  0.00  0.00    +0.000 C 
ATOM      8  C   UNL     1      -4.617   2.490  25.322  0.00  0.00    +0.002 C 
ATOM      9  C   UNL     1      -4.059   3.082  25.188  0.00  0.00    +0.022 C 
ATOM     10  C   UNL     1      -3.363   2.908  24.779  0.00  0.00    +0.096 C 
ATOM     20  C   UNL     1      -3.226   2.142  24.506  0.00  0.00    +0.022 C 
ATOM     21  C   UNL     1      -2.530   1.968  24.098  0.00  0.00    +0.002 C 
ATOM     22  C   UNL     1      -3.784   1.549  24.641  0.00  0.00    +0.032 C 
ATOM     23  C   UNL     1      -3.646   0.783  24.368  0.00  0.00    +0.152 C 
ATOM     24  O   UNL     1      -2.951   0.609  23.960  0.00  0.00    -0.223 OA
ENDROOT
BRANCH  10  11
ATOM     11  N   UNL     1      -2.805   3.500  24.644  0.00  0.00    -0.203 NA
ATOM     12  C   UNL     1      -2.460   3.896  25.281  0.00  0.00    +0.268 C 
ATOM     13  O   UNL     1      -2.674   3.698  26.054  0.00  0.00    -0.268 OA
BRANCH  12  14
ATOM     14  C   UNL     1      -1.902   4.489  25.146  0.00  0.00    +0.093 A 
ATOM     15  C   UNL     1      -2.132   5.280  25.149  0.00  0.00    +0.107 A 
ATOM     16  N   UNL     1      -1.574   5.873  25.014  0.00  0.00    -0.222 NA
ATOM     17  C   UNL     1      -0.786   5.673  24.877  0.00  0.00    +0.199 A 
ATOM     18  N   UNL     1      -0.555   4.880  24.874  0.00  0.00    -0.222 NA
ATOM     19  C   UNL     1      -1.114   4.289  25.009  0.00  0.00    +0.107 A 
ENDBRANCH  12  14
ENDBRANCH  10  11
BRANCH   3   2
ATOM      1  C   UNL     1      -4.297  -0.790  23.468  0.00  0.00    +0.010 C 
ATOM      2  C   UNL     1      -4.067  -0.575  24.230  0.00  0.00    +0.081 C 
BRANCH   2  25
ATOM     25  C   UNL     1      -3.700  -1.128  24.721  0.00  0.00    +0.241 C 
ATOM     26  O   UNL     1      -4.107  -1.440  25.369  0.00  0.00    -0.273 OA
ATOM     27  N   UNL     1      -2.926  -1.369  24.565  0.00  0.00    -0.197 NA
BRANCH  27  28
ATOM     28  C   UNL     1      -2.559  -1.921  25.055  0.00  0.00    +0.179 C 
BRANCH  28  29
ATOM     29  C   UNL     1      -1.736  -1.971  25.076  0.00  0.00    +0.145 A 
ATOM     30  C   UNL     1      -1.269  -2.475  24.619  0.00  0.00    +0.038 A 
ATOM     31  C   UNL     1      -0.480  -2.341  24.820  0.00  0.00    +0.043 A 
ATOM     32  C   UNL     1      -0.460  -1.755  25.402  0.00  0.00    +0.179 A 
ATOM     33  O   UNL     1      -1.236  -1.527  25.560  0.00  0.00    -0.453 OA
ENDBRANCH  28  29
ENDBRANCH  27  28
ENDBRANCH   2  25
ENDBRANCH   3   2
TORSDOF 6
ENDMDL
MODEL 3
REMARK VINA RESULT:     -10.2      3.519      5.358
REMARK  Name = 
REMARK  6 active torsions:
REMARK  status: ('A' for Active; 'I' for Inactive)
REMARK    1  A    between atoms: C_2  and  C_3
REMARK    2  A    between atoms: C_2  and  C_25
REMARK    3  A    between atoms: C_10  and  N_11
REMARK    4  A    between atoms: C_12  and  C_14
REMARK    5  A    between atoms: N_27  and  C_28
REMARK    6  A    between atoms: C_28  and  C_29
REMARK                            x       y       z     vdW  Elec       q    Type
REMARK                         _______ _______ _______ _____ _____    ______ ____
ROOT
ATOM      3  C   UNL     1      -0.080   0.704  24.014  0.00  0.00    +0.039 C 
ATOM      4  C   UNL     1       0.338   1.413  24.087  0.00  0.00    +0.003 C 
ATOM      5  C   UNL     1      -0.047   2.093  24.350  0.00  0.00    +0.000 C 
ATOM      6  C   UNL     1      -0.848   2.066  24.541  0.00  0.00    +0.002 C 
ATOM      7  C   UNL     1      -0.431   2.773  24.614  0.00  0.00    +0.000 C 
ATOM      8  C   UNL     1      -1.234   2.746  24.805  0.00  0.00    +0.002 C 
ATOM      9  C   UNL     1      -2.035   2.719  24.996  0.00  0.00    +0.022 C 
ATOM     10  C   UNL     1      -2.453   2.011  24.923  0.00  0.00    +0.096 C 
ATOM     20  C   UNL     1      -2.069   1.331  24.659  0.00  0.00    +0.022 C 
ATOM     21  C   UNL     1      -2.486   0.623  24.587  0.00  0.00    +0.002 C 
ATOM     22  C   UNL     1      -1.266   1.357  24.468  0.00  0.00    +0.032 C 
ATOM     23  C   UNL     1      -0.882   0.677  24.205  0.00  0.00    +0.152 C 
ATOM     24  O   UNL     1      -1.299  -0.030  24.132  0.00  0.00    -0.223 OA
ENDROOT
BRANCH  10  11
ATOM     11  N   UNL     1      -3.255   1.984  25.114  0.00  0.00    -0.203 NA
ATOM     12  C   UNL     1      -3.746   2.618  24.924  0.00  0.00    +0.268 C 
ATOM     13  O   UNL     1      -3.435   3.281  24.542  0.00  0.00    -0.268 OA
BRANCH  12  14
ATOM     14  C   UNL     1      -4.549   2.592  25.115  0.00  0.00    +0.093 A 
ATOM     15  C   UNL     1      -5.071   2.161  24.645  0.00  0.00    +0.107 A 
ATOM     16  N   UNL     1      -5.873   2.134  24.836  0.00  0.00    -0.222 NA
ATOM     17  C   UNL     1      -6.153   2.539  25.498  0.00  0.00    +0.199 A 
ATOM     18  N   UNL     1      -5.630   2.971  25.969  0.00  0.00    -0.222 NA
ATOM     19  C   UNL     1      -4.828   2.997  25.777  0.00  0.00    +0.107 A 
ENDBRANCH  12  14
ENDBRANCH  10  11
BRANCH   3   2
ATOM      1  C   UNL     1       0.178  -0.697  24.130  0.00  0.00    +0.010 C 
ATOM      2  C   UNL     1       0.305   0.024  23.750  0.00  0.00    +0.081 C 
BRANCH   2  25
ATOM     25  C   UNL     1       0.818   0.065  23.105  0.00  0.00    +0.241 C 
ATOM     26  O   UNL     1       0.515   0.103  22.338  0.00  0.00    -0.273 OA
ATOM     27  N   UNL     1       1.635   0.068  23.227  0.00  0.00    -0.197 NA
BRANCH  27  28
ATOM     28  C   UNL     1       2.147   0.109  22.582  0.00  0.00    +0.179 C 
BRANCH  28  29
ATOM     29  C   UNL     1       2.959   0.188  22.705  0.00  0.00    +0.145 A 
ATOM     30  C   UNL     1       3.411   0.860  22.546  0.00  0.00    +0.038 A 
ATOM     31  C   UNL     1       4.193   0.694  22.751  0.00  0.00    +0.043 A 
ATOM     32  C   UNL     1       4.224  -0.080  23.036  0.00  0.00    +0.179 A 
ATOM     33  O   UNL     1       3.462  -0.393  23.008  0.00  0.00    -0.453 OA
ENDBRANCH  28  29
ENDBRANCH  27  28
ENDBRANCH   2  25
ENDBRANCH   3   2
TORSDOF 6
ENDMDL
MODEL 4
REMARK VINA RESULT:      -9.9      2.521      4.970
REMARK  Name = 
REMARK  6 active torsions:
REMARK  status: ('A' for Active; 'I' for Inactive)
REMARK    1  A    between atoms: C_2  and  C_3
REMARK    2  A    between atoms: C_2  and  C_25
REMARK    3  A    between atoms: C_10  and  N_11
REMARK    4  A    between atoms: C_12  and  C_14
REMARK    5  A    between atoms: N_27  and  C_28
REMARK    6  A    between atoms: C_28  and  C_29
REMARK                            x       y       z     vdW  Elec       q    Type
REMARK                         _______ _______ _______ _____ _____    ______ ____
ROOT
ATOM      3  C   UNL     1      -1.756  -1.080  24.712  0.00  0.00    +0.039 C 
ATOM      4  C   UNL     1      -2.286  -1.664  24.464  0.00  0.00    +0.003 C 
ATOM      5  C   UNL     1      -3.095  -1.506  24.448  0.00  0.00    +0.000 C 
ATOM      6  C   UNL     1      -3.376  -0.767  24.680  0.00  0.00    +0.002 C 
ATOM      7  C   UNL     1      -3.904  -1.349  24.433  0.00  0.00    +0.000 C 
ATOM      8  C   UNL     1      -4.185  -0.608  24.665  0.00  0.00    +0.002 C 
ATOM      9  C   UNL     1      -4.466   0.131  24.897  0.00  0.00    +0.022 C 
ATOM     10  C   UNL     1      -3.937   0.715  25.145  0.00  0.00    +0.096 C 
ATOM     20  C   UNL     1      -3.128   0.557  25.160  0.00  0.00    +0.022 C 
ATOM     21  C   UNL     1      -2.599   1.140  25.408  0.00  0.00    +0.002 C 
ATOM     22  C   UNL     1      -2.846  -0.183  24.928  0.00  0.00    +0.032 C 
ATOM     23  C   UNL     1      -2.037  -0.341  24.944  0.00  0.00    +0.152 C 
ATOM     24  O   UNL     1      -1.508   0.242  25.191  0.00  0.00    -0.223 OA
ENDROOT
BRANCH  10  11
ATOM     11  N   UNL     1      -4.218   1.455  25.377  0.00  0.00    -0.203 NA
ATOM     12  C   UNL     1      -4.802   1.832  24.933  0.00  0.00    +0.268 C 
ATOM     13  O   UNL     1      -5.105   1.469  24.256  0.00  0.00    -0.268 OA
BRANCH  12  14
ATOM     14  C   UNL     1      -5.083   2.572  25.165  0.00  0.00    +0.093 A 
ATOM     15  C   UNL     1      -5.711   2.627  25.696  0.00  0.00    +0.107 A 
ATOM     16  N   UNL     1      -5.993   3.368  25.928  0.00  0.00    -0.222 NA
ATOM     17  C   UNL     1      -5.645   4.053  25.629  0.00  0.00    +0.199 A 
ATOM     18  N   UNL     1      -5.016   3.998  25.097  0.00  0.00    -0.222 NA
ATOM     19  C   UNL     1      -4.735   3.258  24.866  0.00  0.00    +0.107 A 
ENDBRANCH  12  14
ENDBRANCH  10  11
BRANCH   3   2
ATOM      1  C   UNL     1      -0.570  -1.399  25.444  0.00  0.00    +0.010 C 
ATOM      2  C   UNL     1      -0.947  -1.239  24.727  0.00  0.00    +0.081 C 
BRANCH   2  25
ATOM     25  C   UNL     1      -0.513  -1.236  24.025  0.00  0.00    +0.241 C 
ATOM     26  O   UNL     1      -0.660  -1.807  23.447  0.00  0.00    -0.273 OA
ATOM     27  N   UNL     1       0.068  -0.663  23.900  0.00  0.00    -0.197 NA
BRANCH  27  28
ATOM     28  C   UNL     1       0.501  -0.661  23.199  0.00  0.00    +0.179 C 
BRANCH  28  29
ATOM     29  C   UNL     1       1.134  -0.140  23.106  0.00  0.00    +0.145 A 
ATOM     30  C   UNL     1       1.845  -0.304  22.722  0.00  0.00    +0.038 A 
ATOM     31  C   UNL     1       2.317   0.372  22.760  0.00  0.00    +0.043 A 
ATOM     32  C   UNL     1       1.897   0.954  23.168  0.00  0.00    +0.179 A 
ATOM     33  O   UNL     1       1.166   0.637  23.382  0.00  0.00    -0.453 OA
ENDBRANCH  28  29
ENDBRANCH  27  28
ENDBRANCH   2  25
ENDBRANCH   3   2
TORSDOF 6
ENDMDL
MODEL 5
REMARK VINA RESULT:      -9.8      2.766      4.396
REMARK  Name = 
REMARK  6 active torsions:
REMARK  status: ('A' for Active; 'I' for Inactive)
REMARK    1  A    between atoms: C_2  and  C_3
REMARK    2  A    between atoms: C_2  and  C_25
REMARK    3  A    between atoms: C_10  and  N_11
REMARK    4  A    between atoms: C_12  and  C_14
REMARK    5  A    between atoms: N_27  and  C_28
REMARK    6  A    between atoms: C_28  and  C_29
REMARK                            x       y       z     vdW  Elec       q    Type
REMARK                         _______ _______ _______ _____ _____    ______ ____
ROOT
ATOM      3  C   UNL     1      -2.423   3.502  25.149  0.00  0.00    +0.039 C 
ATOM      4  C   UNL     1      -2.047   3.673  25.865  0.00  0.00    +0.003 C 
ATOM      5  C   UNL     1      -1.330   3.311  26.050  0.00  0.00    +0.000 C 
ATOM      6  C   UNL     1      -0.988   2.779  25.522  0.00  0.00    +0.002 C 
ATOM      7  C   UNL     1      -0.613   2.949  26.236  0.00  0.00    +0.000 C 
ATOM      8  C   UNL     1      -0.270   2.416  25.708  0.00  0.00    +0.002 C 
ATOM      9  C   UNL     1       0.072   1.884  25.180  0.00  0.00    +0.022 C 
ATOM     10  C   UNL     1      -0.303   1.713  24.464  0.00  0.00    +0.096 C 
ATOM     20  C   UNL     1      -1.020   2.074  24.279  0.00  0.00    +0.022 C 
ATOM     21  C   UNL     1      -1.396   1.903  23.564  0.00  0.00    +0.002 C 
ATOM     22  C   UNL     1      -1.364   2.607  24.807  0.00  0.00    +0.032 C 
ATOM     23  C   UNL     1      -2.081   2.969  24.621  0.00  0.00    +0.152 C 
ATOM     24  O   UNL     1      -2.456   2.798  23.907  0.00  0.00    -0.223 OA
ENDROOT
BRANCH  10  11
ATOM     11  N   UNL     1       0.040   1.180  23.936  0.00  0.00    -0.203 NA
ATOM     12  C   UNL     1       0.857   1.170  23.832  0.00  0.00    +0.268 C 
ATOM     13  O   UNL     1       1.334   1.694  24.256  0.00  0.00    -0.268 OA
BRANCH  12  14
ATOM     14  C   UNL     1       1.200   0.637  23.303  0.00  0.00    +0.093 A 
ATOM     15  C   UNL     1       0.767  -0.008  23.027  0.00  0.00    +0.107 A 
ATOM     16  N   UNL     1       1.110  -0.541  22.499  0.00  0.00    -0.222 NA
ATOM     17  C   UNL     1       1.887  -0.428  22.247  0.00  0.00    +0.199 A 
ATOM     18  N   UNL     1       2.322   0.217  22.523  0.00  0.00    -0.222 NA
ATOM     19  C   UNL     1       1.978   0.749  23.051  0.00  0.00    +0.107 A 
ENDBRANCH  12  14
ENDBRANCH  10  11
BRANCH   3   2
ATOM      1  C   UNL     1      -3.200   4.348  24.298  0.00  0.00    +0.010 C 
ATOM      2  C   UNL     1      -3.141   3.864  24.964  0.00  0.00    +0.081 C 
BRANCH   2  25
ATOM     25  C   UNL     1      -3.800   3.742  25.445  0.00  0.00    +0.241 C 
ATOM     26  O   UNL     1      -3.865   4.140  26.166  0.00  0.00    -0.273 OA
ATOM     27  N   UNL     1      -4.395   3.222  25.206  0.00  0.00    -0.197 NA
BRANCH  27  28
ATOM     28  C   UNL     1      -5.054   3.101  25.686  0.00  0.00    +0.179 C 
BRANCH  28  29
ATOM     29  C   UNL     1      -5.570   2.477  25.529  0.00  0.00    +0.145 A 
ATOM     30  C   UNL     1      -5.858   1.934  26.080  0.00  0.00    +0.038 A 
ATOM     31  C   UNL     1      -6.355   1.409  25.683  0.00  0.00    +0.043 A 
ATOM     32  C   UNL     1      -6.375   1.627  24.887  0.00  0.00    +0.179 A 
ATOM     33  O   UNL     1      -5.890   2.288  24.792  0.00  0.00    -0.453 OA
ENDBRANCH  28  29
ENDBRANCH  27  28
ENDBRANCH   2  25
ENDBRANCH   3   2
TORSDOF 6
ENDMDL
MODEL 6
REMARK VINA RESULT:      -9.6      2.214      6.363
REMARK  Name = 
REMARK  6 active torsions:
REMARK  status: ('A' for Active; 'I' for Inactive)
REMARK    1  A    between atoms: C_2  and  C_3
REMARK    2  A    between atoms: C_2  and  C_25
REMARK    3  A    between atoms: C_10  and  N_11
REMARK    4  A    between atoms: C_12  and  C_14
REMARK    5  A    between atoms: N_27  and  C_28
REMARK    6  A    between atoms: C_28  and  C_29
REMARK                            x       y       z     vdW  Elec       q    Type
REMARK                         _______ _______ _______ _____ _____    ______ ____
ROOT
ATOM      3  C   UNL     1      -0.544  -0.885  24.810  0.00  0.00    +0.039 C 
ATOM      4  C   UNL     1      -0.071  -0.933  24.134  0.00  0.00    +0.003 C 
ATOM      5  C   UNL     1       0.185  -0.244  23.761  0.00  0.00    +0.000 C 
ATOM      6  C   UNL     1      -0.032   0.492  24.060  0.00  0.00    +0.002 C 
ATOM      7  C   UNL     1       0.440   0.445  23.387  0.00  0.00    +0.000 C 
ATOM      8  C   UNL     1       0.223   1.182  23.687  0.00  0.00    +0.002 C 
ATOM      9  C   UNL     1       0.006   1.919  23.986  0.00  0.00    +0.022 C 
ATOM     10  C   UNL     1      -0.467   1.967  24.661  0.00  0.00    +0.096 C 
ATOM     20  C   UNL     1      -0.723   1.278  25.035  0.00  0.00    +0.022 C 
ATOM     21  C   UNL     1      -1.196   1.326  25.709  0.00  0.00    +0.002 C 
ATOM     22  C   UNL     1      -0.506   0.540  24.735  0.00  0.00    +0.032 C 
ATOM     23  C   UNL     1      -0.761  -0.149  25.109  0.00  0.00    +0.152 C 
ATOM     24  O   UNL     1      -1.234  -0.101  25.783  0.00  0.00    -0.223 OA
ENDROOT
BRANCH  10  11
ATOM     11  N   UNL     1      -0.684   2.705  24.961  0.00  0.00    -0.203 NA
ATOM     12  C   UNL     1      -1.037   3.263  24.468  0.00  0.00    +0.268 C 
ATOM     13  O   UNL     1      -1.173   3.084  23.673  0.00  0.00    -0.268 OA
BRANCH  12  14
ATOM     14  C   UNL     1      -1.254   4.001  24.767  0.00  0.00    +0.093 A 
ATOM     15  C   UNL     1      -0.738   4.640  24.704  0.00  0.00    +0.107 A 
ATOM     16  N   UNL     1      -0.954   5.378  25.004  0.00  0.00    -0.222 NA
ATOM     17  C   UNL     1      -1.689   5.475  25.367  0.00  0.00    +0.199 A 
ATOM     18  N   UNL     1      -2.206   4.835  25.430  0.00  0.00    -0.222 NA
ATOM     19  C   UNL     1      -1.988   4.098  25.130  0.00  0.00    +0.107 A 
ENDBRANCH  12  14
ENDBRANCH  10  11
BRANCH   3   2
ATOM      1  C   UNL     1      -0.571  -1.734  25.960  0.00  0.00    +0.010 C 
ATOM      2  C   UNL     1      -0.800  -1.575  25.183  0.00  0.00    +0.081 C 
BRANCH   2  25
ATOM     25  C   UNL     1      -1.285  -2.107  24.780  0.00  0.00    +0.241 C 
ATOM     26  O   UNL     1      -0.953  -2.747  24.379  0.00  0.00    -0.273 OA
ATOM     27  N   UNL     1      -2.104  -1.998  24.777  0.00  0.00    -0.197 NA
BRANCH  27  28
ATOM     28  C   UNL     1      -2.589  -2.529  24.374  0.00  0.00    +0.179 C 
BRANCH  28  29
ATOM     29  C   UNL     1      -3.361  -2.316  24.179  0.00  0.00    +0.145 A 
ATOM     30  C   UNL     1      -3.998  -2.832  24.083  0.00  0.00    +0.038 A 
ATOM     31  C   UNL     1      -4.663  -2.384  23.890  0.00  0.00    +0.043 A 
ATOM     32  C   UNL     1      -4.437  -1.590  23.865  0.00  0.00    +0.179 A 
ATOM     33  O   UNL     1      -3.633  -1.548  24.044  0.00  0.00    -0.453 OA
ENDBRANCH  28  29
ENDBRANCH  27  28
ENDBRANCH   2  25
ENDBRANCH   3   2
TORSDOF 6
ENDMDL
MODEL 7
REMARK VINA RESULT:      -9.5      2.800      4.212
REMARK  Name = 
REMARK  6 active torsions:
REMARK  status: ('A' for Active; 'I' for Inactive)
REMARK    1  A    between atoms: C_2  and  C_3
REMARK    2  A    between atoms: C_2  and  C_25
REMARK    3  A    between atoms: C_10  and  N_11
REMARK    4  A    between atoms: C_12  and  C_14
REMARK    5  A    between atoms: N_27  and  C_28
REMARK    6  A    between atoms: C_28  and  C_29
REMARK                            x       y       z     vdW  Elec       q    Type
REMARK                         _______ _______ _______ _____ _____    ______ ____
ROOT
ATOM      3  C   UNL     1      -3.502  -0.004  24.848  0.00  0.00    +0.039 C 
ATOM      4  C   UNL     1      -3.388  -0.520  25.483  0.00  0.00    +0.003 C 
ATOM      5  C   UNL     1      -2.629  -0.781  25.671  0.00  0.00    +0.000 C 
ATOM      6  C   UNL     1      -1.983  -0.527  25.225  0.00  0.00    +0.002 C 
ATOM      7  C   UNL     1      -1.869  -1.042  25.858  0.00  0.00    +0.000 C 
ATOM      8  C   UNL     1      -1.223  -0.788  25.412  0.00  0.00    +0.002 C 
ATOM      9  C   UNL     1      -0.578  -0.534  24.967  0.00  0.00    +0.022 C 
ATOM     10  C   UNL     1      -0.692  -0.019  24.332  0.00  0.00    +0.096 C 
ATOM     20  C   UNL     1      -1.451   0.242  24.144  0.00  0.00    +0.022 C 
ATOM     21  C   UNL     1      -1.565   0.758  23.510  0.00  0.00    +0.002 C 
ATOM     22  C   UNL     1      -2.097  -0.011  24.590  0.00  0.00    +0.032 C 
ATOM     23  C   UNL     1      -2.856   0.250  24.402  0.00  0.00    +0.152 C 
ATOM     24  O   UNL     1      -2.970   0.765  23.768  0.00  0.00    -0.223 OA
ENDROOT
BRANCH  10  11
ATOM     11  N   UNL     1      -0.045   0.235  23.886  0.00  0.00    -0.203 NA
ATOM     12  C   UNL     1       0.540  -0.301  23.665  0.00  0.00    +0.268 C 
ATOM     13  O   UNL     1       0.480  -1.094  23.890  0.00  0.00    -0.268 OA
BRANCH  12  14
ATOM     14  C   UNL     1       1.186  -0.048  23.219  0.00  0.00    +0.093 A 
ATOM     15  C   UNL     1       1.692   0.531  23.517  0.00  0.00    +0.107 A 
ATOM     16  N   UNL     1       2.339   0.785  23.071  0.00  0.00    -0.222 NA
ATOM     17  C   UNL     1       2.479   0.459  22.326  0.00  0.00    +0.199 A 
ATOM     18  N   UNL     1       1.972  -0.121  22.027  0.00  0.00    -0.222 NA
ATOM     19  C   UNL     1       1.326  -0.374  22.474  0.00  0.00    +0.107 A 
ENDBRANCH  12  14
ENDBRANCH  10  11
BRANCH   3   2
ATOM      1  C   UNL     1      -4.601   0.056  23.936  0.00  0.00    +0.010 C 
ATOM      2  C   UNL     1      -4.262   0.257  24.661  0.00  0.00    +0.081 C 
BRANCH   2  25
ATOM     25  C   UNL     1      -4.683   0.719  25.199  0.00  0.00    +0.241 C 
ATOM     26  O   UNL     1      -5.071   0.363  25.835  0.00  0.00    -0.273 OA
ATOM     27  N   UNL     1      -4.717   1.539  25.101  0.00  0.00    -0.197 NA
BRANCH  27  28
ATOM     28  C   UNL     1      -5.137   2.001  25.638  0.00  0.00    +0.179 C 
BRANCH  28  29
ATOM     29  C   UNL     1      -5.131   2.823  25.570  0.00  0.00    +0.145 A 
ATOM     30  C   UNL     1      -4.470   3.311  25.643  0.00  0.00    +0.038 A 
ATOM     31  C   UNL     1      -4.717   4.091  25.534  0.00  0.00    +0.043 A 
ATOM     32  C   UNL     1      -5.530   4.084  25.393  0.00  0.00    +0.179 A 
ATOM     33  O   UNL     1      -5.786   3.300  25.415  0.00  0.00    -0.453 OA
ENDBRANCH  28  29
ENDBRANCH  27  28
ENDBRANCH   2  25
ENDBRANCH   3   2
TORSDOF 6
ENDMDL
MODEL 8
REMARK VINA RESULT:      -9.1      2.059      5.684
REMARK  Name = 
REMARK  6 active torsions:
REMARK  status: ('A' for Active; 'I' for Inactive)
REMARK    1  A    between atoms: C_2  and  C_3
REMARK    2  A    between atoms: C_2  and  C_25
REMARK    3  A    between atoms: C_10  and  N_11
REMARK    4  A    between atoms: C_12  and  C_14
REMARK    5  A    between atoms: N_27  and  C_28
REMARK    6  A    between atoms: C_28  and  C_29
REMARK                            x       y       z     vdW  Elec       q    Type
REMARK                         _______ _______ _______ _____ _____    ______ ____
ROOT
ATOM      3  C   UNL     1      -0.702   0.746  24.480  0.00  0.00    +0.039 C 
ATOM      4  C   UNL     1      -0.146   1.099  24.978  0.00  0.00    +0.003 C 
ATOM      5  C   UNL     1      -0.338   1.791  25.384  0.00  0.00    +0.000 C 
ATOM      6  C   UNL     1      -1.084   2.129  25.294  0.00  0.00    +0.002 C 
ATOM      7  C   UNL     1      -0.529   2.482  25.791  0.00  0.00    +0.000 C 
ATOM      8  C   UNL     1      -1.276   2.821  25.701  0.00  0.00    +0.002 C 
ATOM      9  C   UNL     1      -2.022   3.159  25.611  0.00  0.00    +0.022 C 
ATOM     10  C   UNL     1      -2.578   2.805  25.113  0.00  0.00    +0.096 C 
ATOM     20  C   UNL     1      -2.387   2.114  24.706  0.00  0.00    +0.022 C 
ATOM     21  C   UNL     1      -2.942   1.761  24.209  0.00  0.00    +0.002 C 
ATOM     22  C   UNL     1      -1.640   1.775  24.796  0.00  0.00    +0.032 C 
ATOM     23  C   UNL     1      -1.448   1.084  24.389  0.00  0.00    +0.152 C 
ATOM     24  O   UNL     1      -2.004   0.731  23.892  0.00  0.00    -0.223 OA
ENDROOT
BRANCH  10  11
ATOM     11  N   UNL     1      -3.325   3.144  25.023  0.00  0.00    -0.203 NA
ATOM     12  C   UNL     1      -3.758   3.372  25.686  0.00  0.00    +0.268 C 
ATOM     13  O   UNL     1      -3.444   3.261  26.442  0.00  0.00    -0.268 OA
BRANCH  12  14
ATOM     14  C   UNL     1      -4.505   3.711  25.596  0.00  0.00    +0.093 A 
ATOM     15  C   UNL     1      -4.579   4.469  25.281  0.00  0.00    +0.107 A 
ATOM     16  N   UNL     1      -5.326   4.808  25.191  0.00  0.00    -0.222 NA
ATOM     17  C   UNL     1      -5.999   4.388  25.417  0.00  0.00    +0.199 A 
ATOM     18  N   UNL     1      -5.925   3.628  25.733  0.00  0.00    -0.222 NA
ATOM     19  C   UNL     1      -5.178   3.291  25.822  0.00  0.00    +0.107 A 
ENDBRANCH  12  14
ENDBRANCH  10  11
BRANCH   3   2
ATOM      1  C   UNL     1      -0.227   0.094  23.299  0.00  0.00    +0.010 C 
ATOM      2  C   UNL     1      -0.510   0.054  24.073  0.00  0.00    +0.081 C 
BRANCH   2  25
ATOM     25  C   UNL     1      -0.601  -0.679  24.441  0.00  0.00    +0.241 C 
ATOM     26  O   UNL     1       0.006  -0.982  24.912  0.00  0.00    -0.273 OA
ATOM     27  N   UNL     1      -1.298  -1.109  24.338  0.00  0.00    -0.197 NA
BRANCH  27  28
ATOM     28  C   UNL     1      -1.388  -1.841  24.706  0.00  0.00    +0.179 C 
BRANCH  28  29
ATOM     29  C   UNL     1      -2.118  -2.226  24.686  0.00  0.00    +0.145 A 
ATOM     30  C   UNL     1      -2.711  -2.171  25.257  0.00  0.00    +0.038 A 
ATOM     31  C   UNL     1      -3.342  -2.645  25.015  0.00  0.00    +0.043 A 
ATOM     32  C   UNL     1      -3.138  -2.992  24.294  0.00  0.00    +0.179 A 
ATOM     33  O   UNL     1      -2.382  -2.733  24.090  0.00  0.00    -0.453 OA
ENDBRANCH  28  29
ENDBRANCH  27  28
ENDBRANCH   2  25
ENDBRANCH   3   2
TORSDOF 6
ENDMDL
MODEL 9
REMARK VINA RESULT:      -8.8      1.623      2.867
REMARK  Name = 
REMARK  6 active torsions:
REMARK  status: ('A' for Active; 'I' for Inactive)
REMARK    1  A    between atoms: C_2  and  C_3
REMARK    2  A    between atoms: C_2  and  C_25
REMARK    3  A    between atoms: C_10  and  N_11
REMARK    4  A    between atoms: C_12  and  C_14
REMARK    5  A    between atoms: N_27  and  C_28
REMARK    6  A    between atoms: C_28  and  C_29
REMARK                            x       y       z     vdW  Elec       q    Type
REMARK                         _______ _______ _______ _____ _____    ______ ____
ROOT
ATOM      3  C   UNL     1      -1.308   2.637  24.965  0.00  0.00    +0.039 C 
ATOM      4  C   UNL     1      -0.767   2.489  25.571  0.00  0.00    +0.003 C 
ATOM      5  C   UNL     1      -0.639   1.717  25.829  0.00  0.00    +0.000 C 
ATOM      6  C   UNL     1      -1.050   1.092  25.482  0.00  0.00    +0.002 C 
ATOM      7  C   UNL     1      -0.510   0.944  26.087  0.00  0.00    +0.000 C 
ATOM      8  C   UNL     1      -0.922   0.319  25.740  0.00  0.00    +0.002 C 
ATOM      9  C   UNL     1      -1.333  -0.306  25.393  0.00  0.00    +0.022 C 
ATOM     10  C   UNL     1      -1.874  -0.158  24.787  0.00  0.00    +0.096 C 
ATOM     20  C   UNL     1      -2.003   0.615  24.529  0.00  0.00    +0.022 C 
ATOM     21  C   UNL     1      -2.543   0.763  23.923  0.00  0.00    +0.002 C 
ATOM     22  C   UNL     1      -1.591   1.240  24.876  0.00  0.00    +0.032 C 
ATOM     23  C   UNL     1      -1.720   2.013  24.618  0.00  0.00    +0.152 C 
ATOM     24  O   UNL     1      -2.260   2.161  24.012  0.00  0.00    -0.223 OA
ENDROOT
BRANCH  10  11
ATOM     11  N   UNL     1      -2.286  -0.783  24.440  0.00  0.00    -0.203 NA
ATOM     12  C   UNL     1      -2.762  -1.271  24.903  0.00  0.00    +0.268 C 
ATOM     13  O   UNL     1      -2.827  -1.135  25.715  0.00  0.00    -0.268 OA
BRANCH  12  14
ATOM     14  C   UNL     1      -3.173  -1.897  24.556  0.00  0.00    +0.093 A 
ATOM     15  C   UNL     1      -3.916  -1.768  24.224  0.00  0.00    +0.107 A 
ATOM     16  N   UNL     1      -4.328  -2.394  23.877  0.00  0.00    -0.222 NA
ATOM     17  C   UNL     1      -3.995  -3.149  23.863  0.00  0.00    +0.199 A 
ATOM     18  N   UNL     1      -3.251  -3.278  24.196  0.00  0.00    -0.222 NA
ATOM     19  C   UNL     1      -2.840  -2.652  24.543  0.00  0.00    +0.107 A 
ENDBRANCH  12  14
ENDBRANCH  10  11
BRANCH   3   2
ATOM      1  C   UNL     1      -1.042   3.695  24.040  0.00  0.00    +0.010 C 
ATOM      2  C   UNL     1      -1.437   3.411  24.707  0.00  0.00    +0.081 C 
BRANCH   2  25
ATOM     25  C   UNL     1      -1.960   3.900  25.116  0.00  0.00    +0.241 C 
ATOM     26  O   UNL     1      -1.672   4.529  25.566  0.00  0.00    -0.273 OA
ATOM     27  N   UNL     1      -2.773   3.760  25.075  0.00  0.00    -0.197 NA
BRANCH  27  28
ATOM     28  C   UNL     1      -3.296   4.248  25.483  0.00  0.00    +0.179 C 
BRANCH  28  29
ATOM     29  C   UNL     1      -4.083   4.020  25.581  0.00  0.00    +0.145 A 
ATOM     30  C   UNL     1      -4.720   4.259  25.113  0.00  0.00    +0.038 A 
ATOM     31  C   UNL     1      -5.401   3.900  25.408  0.00  0.00    +0.043 A 
ATOM     32  C   UNL     1      -5.186   3.439  26.058  0.00  0.00    +0.179 A 
ATOM     33  O   UNL     1      -4.371   3.513  26.165  0.00  0.00    -0.453 OA
ENDBRANCH  28  29
ENDBRANCH  27  28
ENDBRANCH   2  25
ENDBRANCH   3   2
TORSDOF 6
ENDMDL
