MODEL 1
REMARK VINA RESULT:     -10.0      0.000      0.000
REMARK  Name = 
REMARK  4 active torsions:
REMARK  status: ('A' for Active; 'I' for Inactive)
REMARK    1  A    between atoms: C_5  and  C_8
REMARK    2  A    between atoms: N_10  and  C_11
REMARK    3  A    between atoms: C_15  and  N_19
REMARK    4  A    between atoms: C_22  and  C_26
REMARK                            x       y       z     vdW  Elec       q    Type
REMARK                         _______ _______ _______ _____ _____    ______ ____
ROOT
ATOM     11  C   UNL     1      -2.064   2.335  24.738  0.00  0.00    +0.155 C 
ATOM     12  C   UNL     1      -1.755   2.985  24.335  0.00  0.00    +0.166 C 
ATOM     13  O   UNL     1      -0.959   2.832  24.181  0.00  0.00    -0.350 OA
ATOM     14  C   UNL     1      -0.776   2.090  24.488  0.00  0.00    +0.166 C 
ATOM     15  C   UNL     1      -0.172   1.536  24.583  0.00  0.00    +0.154 C 
ATOM     16  C   UNL     1      -0.482   0.886  24.986  0.00  0.00    +0.166 C 
ATOM     17  O   UNL     1      -1.277   1.039  25.141  0.00  0.00    -0.350 OA
ATOM     18  C   UNL     1      -1.460   1.782  24.833  0.00  0.00    +0.166 C 
ENDROOT
BRANCH  15  19
ATOM     19  N   UNL     1       0.606   1.618  24.321  0.00  0.00    -0.200 NA
ATOM     20  C   UNL     1       0.939   1.043  23.831  0.00  0.00    +0.237 A 
ATOM     21  N   UNL     1       1.717   1.125  23.569  0.00  0.00    -0.209 NA
ATOM     22  C   UNL     1       2.050   0.550  23.080  0.00  0.00    +0.120 A 
ATOM     23  C   UNL     1       1.605  -0.107  22.853  0.00  0.00    +0.043 A 
ATOM     24  C   UNL     1       0.827  -0.189  23.116  0.00  0.00    +0.104 A 
ATOM     25  N   UNL     1       0.494   0.386  23.605  0.00  0.00    -0.211 NA
BRANCH  22  26
ATOM     26  C   UNL     1       2.827   0.631  22.817  0.00  0.00    +0.163 A 
ATOM     27  C   UNL     1       3.151   0.283  22.142  0.00  0.00    +0.042 A 
ATOM     28  C   UNL     1       3.941   0.512  22.091  0.00  0.00    +0.044 A 
ATOM     29  C   UNL     1       4.107   1.002  22.734  0.00  0.00    +0.180 A 
ATOM     30  O   UNL     1       3.418   1.076  23.182  0.00  0.00    -0.449 OA
ENDBRANCH  22  26
ENDBRANCH  15  19
BRANCH  11  10
ATOM      8  C   UNL     1      -3.468   2.483  24.515  0.00  0.00    +0.265 C 
ATOM      9  O   UNL     1      -3.315   2.794  23.766  0.00  0.00    -0.268 OA
ATOM     10  N   UNL     1      -2.842   2.253  25.001  0.00  0.00    -0.198 NA
BRANCH   8   5
ATOM      1  C   UNL     1      -6.580   2.155  25.564  0.00  0.00    +0.031 C 
ATOM      2  C   UNL     1      -5.801   2.237  25.301  0.00  0.00    -0.022 A 
ATOM      3  C   UNL     1      -5.390   2.938  25.442  0.00  0.00    -0.004 A 
ATOM      4  C   UNL     1      -4.613   3.020  25.180  0.00  0.00    +0.004 A 
ATOM      5  C   UNL     1      -4.246   2.401  24.777  0.00  0.00    +0.055 A 
ATOM      6  C   UNL     1      -4.657   1.700  24.636  0.00  0.00    +0.004 A 
ATOM      7  C   UNL     1      -5.435   1.617  24.898  0.00  0.00    -0.004 A 
ENDBRANCH   8   5
ENDBRANCH  11  10
TORSDOF 4
ENDMDL
MODEL 2
REMARK VINA RESULT:      -9.0      1.028      6.729
REMARK  Name = 
REMARK  4 active torsions:
REMARK  status: ('A' for Active; 'I' for Inactive)
REMARK    1  A    between atoms: C_5  and  C_8
REMARK    2  A    between atoms: N_10  and  C_11
REMARK    3  A    between atoms: C_15  and  N_19
REMARK    4  A    between atoms: C_22  and  C_26
REMARK                            x       y       z     vdW  Elec       q    Type
REMARK                         _______ _______ _______ _____ _____    ______ ____
ROOT
ATOM     11  C   UNL     1       0.491   0.628  23.752  0.00  0.00    +0.155 C 
ATOM     12  C   UNL     1      -0.012   0.172  23.284  0.00  0.00    +0.166 C 
ATOM     13  O   UNL     1      -0.784   0.293  23.547  0.00  0.00    -0.350 OA
ATOM     14  C   UNL     1      -0.759   0.822  24.178  0.00  0.00    +0.166 C 
ATOM     15  C   UNL     1      -1.220   1.225  24.731  0.00  0.00    +0.154 C 
ATOM     16  C   UNL     1      -0.718   1.681  25.200  0.00  0.00    +0.166 C 
ATOM     17  O   UNL     1       0.054   1.561  24.936  0.00  0.00    -0.350 OA
ATOM     18  C   UNL     1       0.029   1.030  24.305  0.00  0.00    +0.166 C 
ENDROOT
BRANCH  15  19
ATOM     19  N   UNL     1      -2.041   1.179  24.803  0.00  0.00    -0.200 NA
ATOM     20  C   UNL     1      -2.490   1.869  24.860  0.00  0.00    +0.237 A 
ATOM     21  N   UNL     1      -3.310   1.823  24.932  0.00  0.00    -0.209 NA
ATOM     22  C   UNL     1      -3.759   2.513  24.990  0.00  0.00    +0.120 A 
ATOM     23  C   UNL     1      -3.387   3.249  24.975  0.00  0.00    +0.043 A 
ATOM     24  C   UNL     1      -2.566   3.295  24.904  0.00  0.00    +0.104 A 
ATOM     25  N   UNL     1      -2.118   2.605  24.846  0.00  0.00    -0.211 NA
BRANCH  22  26
ATOM     26  C   UNL     1      -4.579   2.467  25.061  0.00  0.00    +0.163 A 
ATOM     27  C   UNL     1      -5.047   2.914  25.574  0.00  0.00    +0.042 A 
ATOM     28  C   UNL     1      -5.833   2.690  25.462  0.00  0.00    +0.044 A 
ATOM     29  C   UNL     1      -5.851   2.105  24.881  0.00  0.00    +0.180 A 
ATOM     30  O   UNL     1      -5.076   1.967  24.634  0.00  0.00    -0.449 OA
ENDBRANCH  22  26
ENDBRANCH  15  19
BRANCH  11  10
ATOM      8  C   UNL     1       1.698   0.261  23.080  0.00  0.00    +0.265 C 
ATOM      9  O   UNL     1       1.262  -0.198  22.550  0.00  0.00    -0.268 OA
ATOM     10  N   UNL     1       1.312   0.675  23.681  0.00  0.00    -0.198 NA
BRANCH   8   5
ATOM      1  C   UNL     1       4.980   0.445  22.792  0.00  0.00    +0.031 C 
ATOM      2  C   UNL     1       4.159   0.399  22.864  0.00  0.00    -0.022 A 
ATOM      3  C   UNL     1       3.694   1.063  22.713  0.00  0.00    -0.004 A 
ATOM      4  C   UNL     1       2.874   1.017  22.785  0.00  0.00    +0.004 A 
ATOM      5  C   UNL     1       2.518   0.307  23.008  0.00  0.00    +0.055 A 
ATOM      6  C   UNL     1       2.983  -0.357  23.159  0.00  0.00    +0.004 A 
ATOM      7  C   UNL     1       3.804  -0.311  23.087  0.00  0.00    -0.004 A 
ENDBRANCH   8   5
ENDBRANCH  11  10
TORSDOF 4
ENDMDL
MODEL 3
REMARK VINA RESULT:      -8.0     15.299     16.388
REMARK  Name = 
REMARK  4 active torsions:
REMARK  status: ('A' for Active; 'I' for Inactive)
REMARK    1  A    between atoms: C_5  and  C_8
REMARK    2  A    between atoms: N_10  and  C_11
REMARK    3  A    between atoms: C_15  and  N_19
REMARK    4  A    between atoms: C_22  and  C_26
REMARK                            x       y       z     vdW  Elec       q    Type
REMARK                         _______ _______ _______ _____ _____    ______ ____
ROOT
ATOM     11  C   UNL     1      -5.026 -10.655  15.470  0.00  0.00    +0.155 C 
ATOM     12  C   UNL     1      -4.216 -10.603  15.325  0.00  0.00    +0.166 C 
ATOM     13  O   UNL     1      -4.107 -10.540  14.510  0.00  0.00    -0.350 OA
ATOM     14  C   UNL     1      -4.849 -10.552  14.151  0.00  0.00    +0.166 C 
ATOM     15  C   UNL     1      -5.242 -10.520  13.427  0.00  0.00    +0.154 C 
ATOM     16  C   UNL     1      -6.053 -10.571  13.572  0.00  0.00    +0.166 C 
ATOM     17  O   UNL     1      -6.161 -10.635  14.387  0.00  0.00    -0.350 OA
ATOM     18  C   UNL     1      -5.418 -10.623  14.745  0.00  0.00    +0.166 C 
ENDROOT
BRANCH  15  19
ATOM     19  N   UNL     1      -4.886 -10.449  12.685  0.00  0.00    -0.200 NA
ATOM     20  C   UNL     1      -5.172  -9.899  12.141  0.00  0.00    +0.237 A 
ATOM     21  N   UNL     1      -4.817  -9.828  11.400  0.00  0.00    -0.209 NA
ATOM     22  C   UNL     1      -5.103  -9.278  10.856  0.00  0.00    +0.120 A 
ATOM     23  C   UNL     1      -5.745  -8.799  11.052  0.00  0.00    +0.043 A 
ATOM     24  C   UNL     1      -6.101  -8.870  11.794  0.00  0.00    +0.104 A 
ATOM     25  N   UNL     1      -5.815  -9.420  12.337  0.00  0.00    -0.211 NA
BRANCH  22  26
ATOM     26  C   UNL     1      -4.747  -9.207  10.115  0.00  0.00    +0.163 A 
ATOM     27  C   UNL     1      -4.030  -8.830   9.956  0.00  0.00    +0.042 A 
ATOM     28  C   UNL     1      -3.886  -8.890   9.146  0.00  0.00    +0.044 A 
ATOM     29  C   UNL     1      -4.513  -9.303   8.805  0.00  0.00    +0.180 A 
ATOM     30  O   UNL     1      -5.045  -9.499   9.404  0.00  0.00    -0.449 OA
ENDBRANCH  22  26
ENDBRANCH  15  19
BRANCH  11  10
ATOM      8  C   UNL     1      -5.012 -10.413  16.879  0.00  0.00    +0.265 C 
ATOM      9  O   UNL     1      -4.284 -10.030  16.805  0.00  0.00    -0.268 OA
ATOM     10  N   UNL     1      -5.382 -10.726  16.211  0.00  0.00    -0.198 NA
BRANCH   8   5
ATOM      1  C   UNL     1      -6.435 -10.696  19.843  0.00  0.00    +0.031 C 
ATOM      2  C   UNL     1      -6.079 -10.626  19.101  0.00  0.00    -0.022 A 
ATOM      3  C   UNL     1      -5.274 -10.781  19.014  0.00  0.00    -0.004 A 
ATOM      4  C   UNL     1      -4.918 -10.710  18.274  0.00  0.00    +0.004 A 
ATOM      5  C   UNL     1      -5.367 -10.484  17.620  0.00  0.00    +0.055 A 
ATOM      6  C   UNL     1      -6.173 -10.329  17.707  0.00  0.00    +0.004 A 
ATOM      7  C   UNL     1      -6.529 -10.399  18.448  0.00  0.00    -0.004 A 
ENDBRANCH   8   5
ENDBRANCH  11  10
TORSDOF 4
ENDMDL
MODEL 4
REMARK VINA RESULT:      -7.0     15.378     16.219
REMARK  Name = 
REMARK  4 active torsions:
REMARK  status: ('A' for Active; 'I' for Inactive)
REMARK    1  A    between atoms: C_5  and  C_8
REMARK    2  A    between atoms: N_10  and  C_11
REMARK    3  A    between atoms: C_15  and  N_19
REMARK    4  A    between atoms: C_22  and  C_26
REMARK                            x       y       z     vdW  Elec       q    Type
REMARK                         _______ _______ _______ _____ _____    ______ ____
ROOT
ATOM     11  C   UNL     1      -7.168  -9.973  15.409  0.00  0.00    +0.155 C 
ATOM     12  C   UNL     1      -6.394  -9.866  15.670  0.00  0.00    +0.166 C 
ATOM     13  O   UNL     1      -5.893  -9.933  15.018  0.00  0.00    -0.350 OA
ATOM     14  C   UNL     1      -6.358 -10.081  14.354  0.00  0.00    +0.166 C 
ATOM     15  C   UNL     1      -6.338 -10.214  13.540  0.00  0.00    +0.154 C 
ATOM     16  C   UNL     1      -7.112 -10.321  13.278  0.00  0.00    +0.166 C 
ATOM     17  O   UNL     1      -7.613 -10.253  13.930  0.00  0.00    -0.350 OA
ATOM     18  C   UNL     1      -7.147 -10.105  14.595  0.00  0.00    +0.166 C 
ENDROOT
BRANCH  15  19
ATOM     19  N   UNL     1      -5.660 -10.237  13.070  0.00  0.00    -0.200 NA
ATOM     20  C   UNL     1      -5.599  -9.747  12.408  0.00  0.00    +0.237 A 
ATOM     21  N   UNL     1      -4.922  -9.770  11.938  0.00  0.00    -0.209 NA
ATOM     22  C   UNL     1      -4.862  -9.280  11.277  0.00  0.00    +0.120 A 
ATOM     23  C   UNL     1      -5.480  -8.768  11.085  0.00  0.00    +0.043 A 
ATOM     24  C   UNL     1      -6.158  -8.746  11.555  0.00  0.00    +0.104 A 
ATOM     25  N   UNL     1      -6.217  -9.235  12.217  0.00  0.00    -0.211 NA
BRANCH  22  26
ATOM     26  C   UNL     1      -4.185  -9.303  10.807  0.00  0.00    +0.163 A 
ATOM     27  C   UNL     1      -4.157  -9.190   9.990  0.00  0.00    +0.042 A 
ATOM     28  C   UNL     1      -3.371  -9.259   9.749  0.00  0.00    +0.044 A 
ATOM     29  C   UNL     1      -2.913  -9.414  10.417  0.00  0.00    +0.180 A 
ATOM     30  O   UNL     1      -3.416  -9.441  11.071  0.00  0.00    -0.449 OA
ENDBRANCH  22  26
ENDBRANCH  15  19
BRANCH  11  10
ATOM      8  C   UNL     1      -7.847  -9.518  16.582  0.00  0.00    +0.265 C 
ATOM      9  O   UNL     1      -7.169  -9.109  16.815  0.00  0.00    -0.268 OA
ATOM     10  N   UNL     1      -7.846  -9.950  15.879  0.00  0.00    -0.198 NA
BRANCH   8   5
ATOM      1  C   UNL     1     -10.558  -9.427  18.462  0.00  0.00    +0.031 C 
ATOM      2  C   UNL     1      -9.879  -9.450  17.992  0.00  0.00    -0.022 A 
ATOM      3  C   UNL     1      -9.324 -10.050  18.099  0.00  0.00    -0.004 A 
ATOM      4  C   UNL     1      -8.646 -10.073  17.629  0.00  0.00    +0.004 A 
ATOM      5  C   UNL     1      -8.524  -9.496  17.052  0.00  0.00    +0.055 A 
ATOM      6  C   UNL     1      -9.080  -8.896  16.945  0.00  0.00    +0.004 A 
ATOM      7  C   UNL     1      -9.758  -8.873  17.415  0.00  0.00    -0.004 A 
ENDBRANCH   8   5
ENDBRANCH  11  10
TORSDOF 4
ENDMDL
MODEL 5
REMARK VINA RESULT:      -6.7     15.494     17.257
REMARK  Name = 
REMARK  4 active torsions:
REMARK  status: ('A' for Active; 'I' for Inactive)
REMARK    1  A    between atoms: C_5  and  C_8
REMARK    2  A    between atoms: N_10  and  C_11
REMARK    3  A    between atoms: C_15  and  N_19
REMARK    4  A    between atoms: C_22  and  C_26
REMARK                            x       y       z     vdW  Elec       q    Type
REMARK                         _______ _______ _______ _____ _____    ______ ____
ROOT
ATOM     11  C   UNL     1      -6.360  -9.677  13.032  0.00  0.00    +0.155 C 
ATOM     12  C   UNL     1      -7.153  -9.599  12.818  0.00  0.00    +0.166 C 
ATOM     13  O   UNL     1      -7.613  -9.807  13.470  0.00  0.00    -0.350 OA
ATOM     14  C   UNL     1      -7.106 -10.013  14.086  0.00  0.00    +0.166 C 
ATOM     15  C   UNL     1      -7.076 -10.269  14.870  0.00  0.00    +0.154 C 
ATOM     16  C   UNL     1      -6.284 -10.347  15.084  0.00  0.00    +0.166 C 
ATOM     17  O   UNL     1      -5.823 -10.139  14.432  0.00  0.00    -0.350 OA
ATOM     18  C   UNL     1      -6.331  -9.933  13.815  0.00  0.00    +0.166 C 
ENDROOT
BRANCH  15  19
ATOM     19  N   UNL     1      -7.727 -10.421  15.355  0.00  0.00    -0.200 NA
ATOM     20  C   UNL     1      -7.774 -10.074  16.102  0.00  0.00    +0.237 A 
ATOM     21  N   UNL     1      -8.423 -10.225  16.587  0.00  0.00    -0.209 NA
ATOM     22  C   UNL     1      -8.471  -9.879  17.335  0.00  0.00    +0.120 A 
ATOM     23  C   UNL     1      -7.868  -9.380  17.597  0.00  0.00    +0.043 A 
ATOM     24  C   UNL     1      -7.218  -9.229  17.111  0.00  0.00    +0.104 A 
ATOM     25  N   UNL     1      -7.171  -9.576  16.364  0.00  0.00    -0.211 NA
BRANCH  22  26
ATOM     26  C   UNL     1      -9.120 -10.030  17.819  0.00  0.00    +0.163 A 
ATOM     27  C   UNL     1      -9.155 -10.593  18.422  0.00  0.00    +0.042 A 
ATOM     28  C   UNL     1      -9.905 -10.556  18.762  0.00  0.00    +0.044 A 
ATOM     29  C   UNL     1     -10.334  -9.971  18.371  0.00  0.00    +0.180 A 
ATOM     30  O   UNL     1      -9.849  -9.646  17.788  0.00  0.00    -0.449 OA
ENDBRANCH  22  26
ENDBRANCH  15  19
BRANCH  11  10
ATOM      8  C   UNL     1      -5.774  -9.618  11.729  0.00  0.00    +0.265 C 
ATOM      9  O   UNL     1      -6.490  -9.862  11.398  0.00  0.00    -0.268 OA
ATOM     10  N   UNL     1      -5.710  -9.526  12.547  0.00  0.00    -0.198 NA
BRANCH   8   5
ATOM      1  C   UNL     1      -3.176  -9.012   9.788  0.00  0.00    +0.031 C 
ATOM      2  C   UNL     1      -3.826  -9.164  10.274  0.00  0.00    -0.022 A 
ATOM      3  C   UNL     1      -3.841  -9.843  10.742  0.00  0.00    -0.004 A 
ATOM      4  C   UNL     1      -4.491  -9.994  11.227  0.00  0.00    +0.004 A 
ATOM      5  C   UNL     1      -5.125  -9.467  11.245  0.00  0.00    +0.055 A 
ATOM      6  C   UNL     1      -5.109  -8.787  10.777  0.00  0.00    +0.004 A 
ATOM      7  C   UNL     1      -4.459  -8.636  10.291  0.00  0.00    -0.004 A 
ENDBRANCH   8   5
ENDBRANCH  11  10
TORSDOF 4
ENDMDL
MODEL 6
REMARK VINA RESULT:      -6.6     15.312     16.781
REMARK  Name = 
REMARK  4 active torsions:
REMARK  status: ('A' for Active; 'I' for Inactive)
REMARK    1  A    between atoms: C_5  and  C_8
REMARK    2  A    between atoms: N_10  and  C_11
REMARK    3  A    between atoms: C_15  and  N_19
REMARK    4  A    between atoms: C_22  and  C_26
REMARK                            x       y       z     vdW  Elec       q    Type
REMARK                         _______ _______ _______ _____ _____    ______ ____
ROOT
ATOM     11  C   UNL     1      -6.175 -10.069  12.926  0.00  0.00    +0.155 C 
ATOM     12  C   UNL     1      -6.959  -9.902  13.119  0.00  0.00    +0.166 C 
ATOM     13  O   UNL     1      -7.064 -10.063  13.921  0.00  0.00    -0.350 OA
ATOM     14  C   UNL     1      -6.345 -10.329  14.224  0.00  0.00    +0.166 C 
ATOM     15  C   UNL     1      -5.964 -10.593  14.907  0.00  0.00    +0.154 C 
ATOM     16  C   UNL     1      -5.180 -10.760  14.714  0.00  0.00    +0.166 C 
ATOM     17  O   UNL     1      -5.075 -10.599  13.912  0.00  0.00    -0.350 OA
ATOM     18  C   UNL     1      -5.795 -10.333  13.609  0.00  0.00    +0.166 C 
ENDROOT
BRANCH  15  19
ATOM     19  N   UNL     1      -6.308 -10.676  15.652  0.00  0.00    -0.200 NA
ATOM     20  C   UNL     1      -5.862 -10.530  16.331  0.00  0.00    +0.237 A 
ATOM     21  N   UNL     1      -6.206 -10.613  17.076  0.00  0.00    -0.209 NA
ATOM     22  C   UNL     1      -5.760 -10.467  17.755  0.00  0.00    +0.120 A 
ATOM     23  C   UNL     1      -4.970 -10.239  17.688  0.00  0.00    +0.043 A 
ATOM     24  C   UNL     1      -4.626 -10.156  16.943  0.00  0.00    +0.104 A 
ATOM     25  N   UNL     1      -5.072 -10.302  16.265  0.00  0.00    -0.211 NA
BRANCH  22  26
ATOM     26  C   UNL     1      -6.103 -10.550  18.500  0.00  0.00    +0.163 A 
ATOM     27  C   UNL     1      -6.899 -10.429  18.684  0.00  0.00    +0.042 A 
ATOM     28  C   UNL     1      -6.999 -10.572  19.490  0.00  0.00    +0.044 A 
ATOM     29  C   UNL     1      -6.266 -10.781  19.804  0.00  0.00    +0.180 A 
ATOM     30  O   UNL     1      -5.713 -10.767  19.193  0.00  0.00    -0.449 OA
ENDBRANCH  22  26
ENDBRANCH  15  19
BRANCH  11  10
ATOM      8  C   UNL     1      -5.902  -9.274  11.770  0.00  0.00    +0.265 C 
ATOM      9  O   UNL     1      -6.317  -8.645  12.106  0.00  0.00    -0.268 OA
ATOM     10  N   UNL     1      -5.831  -9.987  12.181  0.00  0.00    -0.198 NA
BRANCH   8   5
ATOM      1  C   UNL     1      -4.526  -8.943   8.789  0.00  0.00    +0.031 C 
ATOM      2  C   UNL     1      -4.870  -9.026   9.535  0.00  0.00    -0.022 A 
ATOM      3  C   UNL     1      -5.688  -9.107   9.605  0.00  0.00    -0.004 A 
ATOM      4  C   UNL     1      -6.032  -9.190  10.350  0.00  0.00    +0.004 A 
ATOM      5  C   UNL     1      -5.558  -9.192  11.025  0.00  0.00    +0.055 A 
ATOM      6  C   UNL     1      -4.740  -9.111  10.955  0.00  0.00    +0.004 A 
ATOM      7  C   UNL     1      -4.396  -9.028  10.210  0.00  0.00    -0.004 A 
ENDBRANCH   8   5
ENDBRANCH  11  10
TORSDOF 4
ENDMDL
MODEL 7
REMARK VINA RESULT:      -6.4     15.762     16.830
REMARK  Name = 
REMARK  4 active torsions:
REMARK  status: ('A' for Active; 'I' for Inactive)
REMARK    1  A    between atoms: C_5  and  C_8
REMARK    2  A    between atoms: N_10  and  C_11
REMARK    3  A    between atoms: C_15  and  N_19
REMARK    4  A    between atoms: C_22  and  C_26
REMARK                            x       y       z     vdW  Elec       q    Type
REMARK                         _______ _______ _______ _____ _____    ______ ____
ROOT
ATOM     11  C   UNL     1      -6.867 -10.173  15.096  0.00  0.00    +0.155 C 
ATOM     12  C   UNL     1      -7.608  -9.832  14.972  0.00  0.00    +0.166 C 
ATOM     13  O   UNL     1      -7.701  -9.718  14.160  0.00  0.00    -0.350 OA
ATOM     14  C   UNL     1      -7.020  -9.987  13.784  0.00  0.00    +0.166 C 
ATOM     15  C   UNL     1      -6.655 -10.083  13.050  0.00  0.00    +0.154 C 
ATOM     16  C   UNL     1      -5.915 -10.424  13.174  0.00  0.00    +0.166 C 
ATOM     17  O   UNL     1      -5.821 -10.539  13.986  0.00  0.00    -0.350 OA
ATOM     18  C   UNL     1      -6.504 -10.269  14.362  0.00  0.00    +0.166 C 
ENDROOT
BRANCH  15  19
ATOM     19  N   UNL     1      -6.976  -9.874  12.318  0.00  0.00    -0.200 NA
ATOM     20  C   UNL     1      -6.509  -9.489  11.758  0.00  0.00    +0.237 A 
ATOM     21  N   UNL     1      -6.830  -9.281  11.027  0.00  0.00    -0.209 NA
ATOM     22  C   UNL     1      -6.363  -8.895  10.466  0.00  0.00    +0.120 A 
ATOM     23  C   UNL     1      -5.575  -8.719  10.637  0.00  0.00    +0.043 A 
ATOM     24  C   UNL     1      -5.254  -8.927  11.368  0.00  0.00    +0.104 A 
ATOM     25  N   UNL     1      -5.722  -9.313  11.928  0.00  0.00    -0.211 NA
BRANCH  22  26
ATOM     26  C   UNL     1      -6.683  -8.687   9.736  0.00  0.00    +0.163 A 
ATOM     27  C   UNL     1      -6.479  -9.013   9.005  0.00  0.00    +0.042 A 
ATOM     28  C   UNL     1      -6.933  -8.643   8.425  0.00  0.00    +0.044 A 
ATOM     29  C   UNL     1      -7.418  -8.089   8.796  0.00  0.00    +0.180 A 
ATOM     30  O   UNL     1      -7.264  -8.116   9.606  0.00  0.00    -0.449 OA
ENDBRANCH  22  26
ENDBRANCH  15  19
BRANCH  11  10
ATOM      8  C   UNL     1      -6.739  -9.948  16.502  0.00  0.00    +0.265 C 
ATOM      9  O   UNL     1      -7.253  -9.304  16.445  0.00  0.00    -0.268 OA
ATOM     10  N   UNL     1      -6.546 -10.382  15.827  0.00  0.00    -0.198 NA
BRANCH   8   5
ATOM      1  C   UNL     1      -5.456 -10.781  19.426  0.00  0.00    +0.031 C 
ATOM      2  C   UNL     1      -5.777 -10.573  18.694  0.00  0.00    -0.022 A 
ATOM      3  C   UNL     1      -6.586 -10.425  18.626  0.00  0.00    -0.004 A 
ATOM      4  C   UNL     1      -6.906 -10.217  17.895  0.00  0.00    +0.004 A 
ATOM      5  C   UNL     1      -6.419 -10.156  17.233  0.00  0.00    +0.055 A 
ATOM      6  C   UNL     1      -5.610 -10.303  17.301  0.00  0.00    +0.004 A 
ATOM      7  C   UNL     1      -5.289 -10.512  18.032  0.00  0.00    -0.004 A 
ENDBRANCH   8   5
ENDBRANCH  11  10
TORSDOF 4
ENDMDL
MODEL 8
REMARK VINA RESULT:      -6.0     14.861     15.592
REMARK  Name = 
REMARK  4 active torsions:
REMARK  status: ('A' for Active; 'I' for Inactive)
REMARK    1  A    between atoms: C_5  and  C_8
REMARK    2  A    between atoms: N_10  and  C_11
REMARK    3  A    between atoms: C_15  and  N_19
REMARK    4  A    between atoms: C_22  and  C_26
REMARK                            x       y       z     vdW  Elec       q    Type
REMARK                         _______ _______ _______ _____ _____    ______ ____
ROOT
ATOM     11  C   UNL     1      -6.567 -10.403  17.014  0.00  0.00    +0.155 C 
ATOM     12  C   UNL     1      -5.869 -10.222  17.415  0.00  0.00    +0.166 C 
ATOM     13  O   UNL     1      -5.250 -10.248  16.872  0.00  0.00    -0.350 OA
ATOM     14  C   UNL     1      -5.563 -10.444  16.135  0.00  0.00    +0.166 C 
ATOM     15  C   UNL     1      -5.375 -10.581  15.344  0.00  0.00    +0.154 C 
ATOM     16  C   UNL     1      -6.073 -10.762  14.943  0.00  0.00    +0.166 C 
ATOM     17  O   UNL     1      -6.693 -10.736  15.486  0.00  0.00    -0.350 OA
ATOM     18  C   UNL     1      -6.378 -10.540  16.223  0.00  0.00    +0.166 C 
ENDROOT
BRANCH  15  19
ATOM     19  N   UNL     1      -4.621 -10.544  15.012  0.00  0.00    -0.200 NA
ATOM     20  C   UNL     1      -4.530 -10.544  14.192  0.00  0.00    +0.237 A 
ATOM     21  N   UNL     1      -3.776 -10.507  13.860  0.00  0.00    -0.209 NA
ATOM     22  C   UNL     1      -3.686 -10.507  13.039  0.00  0.00    +0.120 A 
ATOM     23  C   UNL     1      -4.350 -10.544  12.551  0.00  0.00    +0.043 A 
ATOM     24  C   UNL     1      -5.104 -10.581  12.883  0.00  0.00    +0.104 A 
ATOM     25  N   UNL     1      -5.194 -10.581  13.704  0.00  0.00    -0.211 NA
BRANCH  22  26
ATOM     26  C   UNL     1      -2.932 -10.470  12.707  0.00  0.00    +0.163 A 
ATOM     27  C   UNL     1      -2.758 -10.424  11.902  0.00  0.00    +0.042 A 
ATOM     28  C   UNL     1      -1.938 -10.398  11.819  0.00  0.00    +0.044 A 
ATOM     29  C   UNL     1      -1.605 -10.428  12.572  0.00  0.00    +0.180 A 
ATOM     30  O   UNL     1      -2.219 -10.473  13.121  0.00  0.00    -0.449 OA
ENDBRANCH  22  26
ENDBRANCH  15  19
BRANCH  11  10
ATOM      8  C   UNL     1      -7.415 -10.394  18.165  0.00  0.00    +0.265 C 
ATOM      9  O   UNL     1      -6.753 -10.311  18.651  0.00  0.00    -0.268 OA
ATOM     10  N   UNL     1      -7.322 -10.439  17.346  0.00  0.00    -0.198 NA
BRANCH   8   5
ATOM      1  C   UNL     1     -10.432 -10.542  19.494  0.00  0.00    +0.031 C 
ATOM      2  C   UNL     1      -9.677 -10.505  19.161  0.00  0.00    -0.022 A 
ATOM      3  C   UNL     1      -9.575 -10.192  18.405  0.00  0.00    -0.004 A 
ATOM      4  C   UNL     1      -8.821 -10.155  18.073  0.00  0.00    +0.004 A 
ATOM      5  C   UNL     1      -8.169 -10.431  18.497  0.00  0.00    +0.055 A 
ATOM      6  C   UNL     1      -8.271 -10.744  19.253  0.00  0.00    +0.004 A 
ATOM      7  C   UNL     1      -9.026 -10.781  19.586  0.00  0.00    -0.004 A 
ENDBRANCH   8   5
ENDBRANCH  11  10
TORSDOF 4
ENDMDL
