MODEL 1
REMARK VINA RESULT:     -11.1      0.000      0.000
REMARK  Name = 
REMARK  6 active torsions:
REMARK  status: ('A' for Active; 'I' for Inactive)
REMARK    1  A    between atoms: O_2  and  C_3
REMARK    2  A    between atoms: C_6  and  C_9
REMARK    3  A    between atoms: C_15  and  N_16
REMARK    4  A    between atoms: C_17  and  C_19
REMARK    5  A    between atoms: C_22  and  O_23
REMARK    6  A    between atoms: C_25  and  O_26
REMARK                            x       y       z     vdW  Elec       q    Type
REMARK                         _______ _______ _______ _____ _____    ______ ____
ROOT
ATOM      9  C   UNL     1      -4.371   0.576  24.887  0.00  0.00    +0.048 C 
ATOM     10  C   UNL     1      -5.148   0.852  24.914  0.00  0.00    +0.042 C 
ATOM     11  C   UNL     1      -5.126   1.675  24.949  0.00  0.00    +0.184 C 
ATOM     12  O   UNL     1      -5.780   2.177  24.983  0.00  0.00    -0.220 OA
ATOM     13  C   UNL     1      -4.334   1.909  24.944  0.00  0.00    +0.202 C 
ATOM     14  O   UNL     1      -4.059   2.687  24.973  0.00  0.00    -0.219 OA
ATOM     15  C   UNL     1      -3.868   1.231  24.906  0.00  0.00    +0.132 C 
ENDROOT
BRANCH   9   6
ATOM      3  C   UNL     1      -3.670  -1.794  24.770  0.00  0.00    +0.139 A 
ATOM      4  C   UNL     1      -3.597  -1.377  25.478  0.00  0.00    +0.037 A 
ATOM      5  C   UNL     1      -3.831  -0.586  25.517  0.00  0.00    -0.001 A 
ATOM      6  C   UNL     1      -4.137  -0.214  24.848  0.00  0.00    -0.020 A 
ATOM      7  C   UNL     1      -4.210  -0.631  24.141  0.00  0.00    -0.001 A 
ATOM      8  C   UNL     1      -3.976  -1.422  24.102  0.00  0.00    +0.037 A 
BRANCH   3   2
ATOM      1  C   UNL     1      -2.669  -2.777  24.496  0.00  0.00    +0.252 C 
ATOM      2  O   UNL     1      -3.436  -2.585  24.732  0.00  0.00    -0.471 OA
ENDBRANCH   3   2
ENDBRANCH   9   6
BRANCH  15  16
ATOM     16  N   UNL     1      -3.044   1.209  24.889  0.00  0.00    -0.200 NA
ATOM     17  C   UNL     1      -2.630   1.683  24.356  0.00  0.00    +0.265 C 
ATOM     18  O   UNL     1      -3.040   2.179  23.839  0.00  0.00    -0.268 OA
BRANCH  17  19
ATOM     19  C   UNL     1      -1.805   1.662  24.339  0.00  0.00    +0.058 A 
ATOM     20  C   UNL     1      -1.415   1.311  23.702  0.00  0.00    +0.008 A 
ATOM     21  C   UNL     1      -0.590   1.289  23.685  0.00  0.00    +0.040 A 
ATOM     22  C   UNL     1      -0.156   1.619  24.305  0.00  0.00    +0.172 A 
ATOM     25  C   UNL     1      -0.546   1.969  24.941  0.00  0.00    +0.173 A 
ATOM     28  C   UNL     1      -1.371   1.991  24.958  0.00  0.00    +0.045 A 
BRANCH  22  23
ATOM     23  O   UNL     1       0.669   1.597  24.288  0.00  0.00    -0.468 OA
ATOM     24  C   UNL     1       1.058   1.176  23.695  0.00  0.00    +0.253 C 
ENDBRANCH  22  23
BRANCH  25  26
ATOM     26  O   UNL     1      -0.112   2.299  25.561  0.00  0.00    -0.468 OA
ATOM     27  C   UNL     1      -0.501   2.689  26.175  0.00  0.00    +0.253 C 
ENDBRANCH  25  26
ENDBRANCH  17  19
ENDBRANCH  15  16
TORSDOF 6
ENDMDL
MODEL 2
REMARK VINA RESULT:     -11.0      1.125      3.853
REMARK  Name = 
REMARK  6 active torsions:
REMARK  status: ('A' for Active; 'I' for Inactive)
REMARK    1  A    between atoms: O_2  and  C_3
REMARK    2  A    between atoms: C_6  and  C_9
REMARK    3  A    between atoms: C_15  and  N_16
REMARK    4  A    between atoms: C_17  and  C_19
REMARK    5  A    between atoms: C_22  and  O_23
REMARK    6  A    between atoms: C_25  and  O_26
REMARK                            x       y       z     vdW  Elec       q    Type
REMARK                         _______ _______ _______ _____ _____    ______ ____
ROOT
ATOM      9  C   UNL     1      -3.853   2.727  24.863  0.00  0.00    +0.048 C 
ATOM     10  C   UNL     1      -4.335   3.362  25.074  0.00  0.00    +0.042 C 
ATOM     11  C   UNL     1      -5.107   3.081  25.151  0.00  0.00    +0.184 C 
ATOM     12  O   UNL     1      -5.769   3.530  25.355  0.00  0.00    -0.220 OA
ATOM     13  C   UNL     1      -5.101   2.272  24.988  0.00  0.00    +0.202 C 
ATOM     14  O   UNL     1      -5.756   1.770  25.001  0.00  0.00    -0.219 OA
ATOM     15  C   UNL     1      -4.326   2.053  24.810  0.00  0.00    +0.132 C 
ENDROOT
BRANCH   9   6
ATOM      3  C   UNL     1      -1.413   2.826  24.461  0.00  0.00    +0.139 A 
ATOM      4  C   UNL     1      -1.931   2.731  23.827  0.00  0.00    +0.037 A 
ATOM      5  C   UNL     1      -2.745   2.698  23.961  0.00  0.00    -0.001 A 
ATOM      6  C   UNL     1      -3.039   2.760  24.729  0.00  0.00    -0.020 A 
ATOM      7  C   UNL     1      -2.521   2.855  25.363  0.00  0.00    -0.001 A 
ATOM      8  C   UNL     1      -1.706   2.888  25.229  0.00  0.00    +0.037 A 
BRANCH   3   2
ATOM      1  C   UNL     1      -0.130   2.196  24.469  0.00  0.00    +0.252 C 
ATOM      2  O   UNL     1      -0.599   2.859  24.327  0.00  0.00    -0.471 OA
ENDBRANCH   3   2
ENDBRANCH   9   6
BRANCH  15  16
ATOM     16  N   UNL     1      -4.069   1.295  24.614  0.00  0.00    -0.200 NA
ATOM     17  C   UNL     1      -4.290   0.651  25.080  0.00  0.00    +0.265 C 
ATOM     18  O   UNL     1      -4.769   0.766  25.742  0.00  0.00    -0.268 OA
BRANCH  17  19
ATOM     19  C   UNL     1      -4.033  -0.108  24.883  0.00  0.00    +0.058 A 
ATOM     20  C   UNL     1      -4.453  -0.556  24.332  0.00  0.00    +0.008 A 
ATOM     21  C   UNL     1      -4.196  -1.315  24.136  0.00  0.00    +0.040 A 
ATOM     22  C   UNL     1      -3.519  -1.626  24.491  0.00  0.00    +0.172 A 
ATOM     25  C   UNL     1      -3.100  -1.178  25.042  0.00  0.00    +0.173 A 
ATOM     28  C   UNL     1      -3.357  -0.419  25.238  0.00  0.00    +0.045 A 
BRANCH  22  23
ATOM     23  O   UNL     1      -3.262  -2.385  24.294  0.00  0.00    -0.468 OA
ATOM     24  C   UNL     1      -3.782  -2.917  23.937  0.00  0.00    +0.253 C 
ENDBRANCH  22  23
BRANCH  25  26
ATOM     26  O   UNL     1      -2.423  -1.489  25.396  0.00  0.00    -0.468 OA
ATOM     27  C   UNL     1      -1.819  -0.984  25.647  0.00  0.00    +0.253 C 
ENDBRANCH  25  26
ENDBRANCH  17  19
ENDBRANCH  15  16
TORSDOF 6
ENDMDL
MODEL 3
REMARK VINA RESULT:     -10.8      1.802      3.674
REMARK  Name = 
REMARK  6 active torsions:
REMARK  status: ('A' for Active; 'I' for Inactive)
REMARK    1  A    between atoms: O_2  and  C_3
REMARK    2  A    between atoms: C_6  and  C_9
REMARK    3  A    between atoms: C_15  and  N_16
REMARK    4  A    between atoms: C_17  and  C_19
REMARK    5  A    between atoms: C_22  and  O_23
REMARK    6  A    between atoms: C_25  and  O_26
REMARK                            x       y       z     vdW  Elec       q    Type
REMARK                         _______ _______ _______ _____ _____    ______ ____
ROOT
ATOM      9  C   UNL     1      -2.428   3.553  24.908  0.00  0.00    +0.048 C 
ATOM     10  C   UNL     1      -2.253   4.345  25.058  0.00  0.00    +0.042 C 
ATOM     11  C   UNL     1      -1.434   4.419  25.111  0.00  0.00    +0.184 C 
ATOM     12  O   UNL     1      -1.018   5.118  25.255  0.00  0.00    -0.220 OA
ATOM     13  C   UNL     1      -1.102   3.673  24.995  0.00  0.00    +0.202 C 
ATOM     14  O   UNL     1      -0.296   3.494  25.003  0.00  0.00    -0.219 OA
ATOM     15  C   UNL     1      -1.716   3.137  24.870  0.00  0.00    +0.132 C 
ENDROOT
BRANCH   9   6
ATOM      3  C   UNL     1      -4.690   2.590  24.626  0.00  0.00    +0.139 A 
ATOM      4  C   UNL     1      -4.203   2.695  23.970  0.00  0.00    +0.037 A 
ATOM      5  C   UNL     1      -3.447   3.016  24.064  0.00  0.00    -0.001 A 
ATOM      6  C   UNL     1      -3.182   3.232  24.814  0.00  0.00    -0.020 A 
ATOM      7  C   UNL     1      -3.670   3.126  25.470  0.00  0.00    -0.001 A 
ATOM      8  C   UNL     1      -4.425   2.805  25.376  0.00  0.00    +0.037 A 
BRANCH   3   2
ATOM      1  C   UNL     1      -5.817   1.895  25.167  0.00  0.00    +0.252 C 
ATOM      2  O   UNL     1      -5.444   2.269  24.532  0.00  0.00    -0.471 OA
ENDBRANCH   3   2
ENDBRANCH   9   6
BRANCH  15  16
ATOM     16  N   UNL     1      -1.633   2.329  24.730  0.00  0.00    -0.200 NA
ATOM     17  C   UNL     1      -1.148   1.874  25.218  0.00  0.00    +0.265 C 
ATOM     18  O   UNL     1      -0.745   2.227  25.845  0.00  0.00    -0.268 OA
BRANCH  17  19
ATOM     19  C   UNL     1      -1.065   1.064  25.078  0.00  0.00    +0.058 A 
ATOM     20  C   UNL     1      -1.462   0.521  25.556  0.00  0.00    +0.008 A 
ATOM     21  C   UNL     1      -1.379  -0.288  25.416  0.00  0.00    +0.040 A 
ATOM     22  C   UNL     1      -0.899  -0.553  24.800  0.00  0.00    +0.172 A 
ATOM     25  C   UNL     1      -0.503  -0.010  24.322  0.00  0.00    +0.173 A 
ATOM     28  C   UNL     1      -0.585   0.799  24.462  0.00  0.00    +0.045 A 
BRANCH  22  23
ATOM     23  O   UNL     1      -0.817  -1.363  24.660  0.00  0.00    -0.468 OA
ATOM     24  C   UNL     1      -1.331  -1.898  25.020  0.00  0.00    +0.253 C 
ENDBRANCH  22  23
BRANCH  25  26
ATOM     26  O   UNL     1      -0.023  -0.276  23.706  0.00  0.00    -0.468 OA
ATOM     27  C   UNL     1       0.552   0.224  23.386  0.00  0.00    +0.253 C 
ENDBRANCH  25  26
ENDBRANCH  17  19
ENDBRANCH  15  16
TORSDOF 6
ENDMDL
MODEL 4
REMARK VINA RESULT:     -10.7      1.744      3.519
REMARK  Name = 
REMARK  6 active torsions:
REMARK  status: ('A' for Active; 'I' for Inactive)
REMARK    1  A    between atoms: O_2  and  C_3
REMARK    2  A    between atoms: C_6  and  C_9
REMARK    3  A    between atoms: C_15  and  N_16
REMARK    4  A    between atoms: C_17  and  C_19
REMARK    5  A    between atoms: C_22  and  O_23
REMARK    6  A    between atoms: C_25  and  O_26
REMARK                            x       y       z     vdW  Elec       q    Type
REMARK                         _______ _______ _______ _____ _____    ______ ____
ROOT
ATOM      9  C   UNL     1      -4.243   2.665  25.067  0.00  0.00    +0.048 C 
ATOM     10  C   UNL     1      -5.039   2.852  24.960  0.00  0.00    +0.042 C 
ATOM     11  C   UNL     1      -5.460   2.147  24.892  0.00  0.00    +0.184 C 
ATOM     12  O   UNL     1      -6.275   2.077  24.779  0.00  0.00    -0.220 OA
ATOM     13  C   UNL     1      -4.925   1.523  24.956  0.00  0.00    +0.202 C 
ATOM     14  O   UNL     1      -5.110   0.719  24.919  0.00  0.00    -0.219 OA
ATOM     15  C   UNL     1      -4.173   1.842  25.064  0.00  0.00    +0.132 C 
ENDROOT
BRANCH   9   6
ATOM      3  C   UNL     1      -2.392   4.283  25.345  0.00  0.00    +0.139 A 
ATOM      4  C   UNL     1      -2.706   3.899  26.003  0.00  0.00    +0.037 A 
ATOM      5  C   UNL     1      -3.324   3.359  25.911  0.00  0.00    -0.001 A 
ATOM      6  C   UNL     1      -3.626   3.204  25.159  0.00  0.00    -0.020 A 
ATOM      7  C   UNL     1      -3.312   3.588  24.501  0.00  0.00    -0.001 A 
ATOM      8  C   UNL     1      -2.694   4.128  24.594  0.00  0.00    +0.037 A 
BRANCH   3   2
ATOM      1  C   UNL     1      -1.053   4.694  25.059  0.00  0.00    +0.252 C 
ATOM      2  O   UNL     1      -1.774   4.823  25.438  0.00  0.00    -0.471 OA
ENDBRANCH   3   2
ENDBRANCH   9   6
BRANCH  15  16
ATOM     16  N   UNL     1      -3.473   1.416  25.154  0.00  0.00    -0.200 NA
ATOM     17  C   UNL     1      -3.273   0.831  24.608  0.00  0.00    +0.265 C 
ATOM     18  O   UNL     1      -3.774   0.673  23.971  0.00  0.00    -0.268 OA
BRANCH  17  19
ATOM     19  C   UNL     1      -2.573   0.404  24.697  0.00  0.00    +0.058 A 
ATOM     20  C   UNL     1      -2.547  -0.244  25.206  0.00  0.00    +0.008 A 
ATOM     21  C   UNL     1      -1.846  -0.671  25.296  0.00  0.00    +0.040 A 
ATOM     22  C   UNL     1      -1.172  -0.449  24.876  0.00  0.00    +0.172 A 
ATOM     25  C   UNL     1      -1.197   0.200  24.367  0.00  0.00    +0.173 A 
ATOM     28  C   UNL     1      -1.898   0.627  24.277  0.00  0.00    +0.045 A 
BRANCH  22  23
ATOM     23  O   UNL     1      -0.471  -0.876  24.966  0.00  0.00    -0.468 OA
ATOM     24  C   UNL     1      -0.479  -1.605  25.352  0.00  0.00    +0.253 C 
ENDBRANCH  22  23
BRANCH  25  26
ATOM     26  O   UNL     1      -0.522   0.421  23.948  0.00  0.00    -0.468 OA
ATOM     27  C   UNL     1      -0.373   1.220  23.800  0.00  0.00    +0.253 C 
ENDBRANCH  25  26
ENDBRANCH  17  19
ENDBRANCH  15  16
TORSDOF 6
ENDMDL
MODEL 5
REMARK VINA RESULT:     -10.6      1.598      2.077
REMARK  Name = 
REMARK  6 active torsions:
REMARK  status: ('A' for Active; 'I' for Inactive)
REMARK    1  A    between atoms: O_2  and  C_3
REMARK    2  A    between atoms: C_6  and  C_9
REMARK    3  A    between atoms: C_15  and  N_16
REMARK    4  A    between atoms: C_17  and  C_19
REMARK    5  A    between atoms: C_22  and  O_23
REMARK    6  A    between atoms: C_25  and  O_26
REMARK                            x       y       z     vdW  Elec       q    Type
REMARK                         _______ _______ _______ _____ _____    ______ ____
ROOT
ATOM      9  C   UNL     1      -4.674   1.256  24.877  0.00  0.00    +0.048 C 
ATOM     10  C   UNL     1      -5.481   1.122  24.982  0.00  0.00    +0.042 C 
ATOM     11  C   UNL     1      -5.848   1.852  25.092  0.00  0.00    +0.184 C 
ATOM     12  O   UNL     1      -6.655   1.975  25.217  0.00  0.00    -0.220 OA
ATOM     13  C   UNL     1      -5.268   2.437  25.056  0.00  0.00    +0.202 C 
ATOM     14  O   UNL     1      -5.393   3.249  25.138  0.00  0.00    -0.219 OA
ATOM     15  C   UNL     1      -4.542   2.069  24.923  0.00  0.00    +0.132 C 
ENDROOT
BRANCH   9   6
ATOM      3  C   UNL     1      -2.948  -0.477  24.494  0.00  0.00    +0.139 A 
ATOM      4  C   UNL     1      -3.183   0.015  23.875  0.00  0.00    +0.037 A 
ATOM      5  C   UNL     1      -3.759   0.593  24.003  0.00  0.00    -0.001 A 
ATOM      6  C   UNL     1      -4.099   0.678  24.750  0.00  0.00    -0.020 A 
ATOM      7  C   UNL     1      -3.864   0.187  25.368  0.00  0.00    -0.001 A 
ATOM      8  C   UNL     1      -3.288  -0.391  25.240  0.00  0.00    +0.037 A 
BRANCH   3   2
ATOM      1  C   UNL     1      -1.634  -0.988  24.727  0.00  0.00    +0.252 C 
ATOM      2  O   UNL     1      -2.373  -1.054  24.366  0.00  0.00    -0.471 OA
ENDBRANCH   3   2
ENDBRANCH   9   6
BRANCH  15  16
ATOM     16  N   UNL     1      -3.814   2.448  24.849  0.00  0.00    -0.200 NA
ATOM     17  C   UNL     1      -3.574   2.996  25.417  0.00  0.00    +0.265 C 
ATOM     18  O   UNL     1      -4.063   3.166  26.059  0.00  0.00    -0.268 OA
BRANCH  17  19
ATOM     19  C   UNL     1      -2.844   3.374  25.343  0.00  0.00    +0.058 A 
ATOM     20  C   UNL     1      -2.785   4.076  24.913  0.00  0.00    +0.008 A 
ATOM     21  C   UNL     1      -2.056   4.454  24.840  0.00  0.00    +0.040 A 
ATOM     22  C   UNL     1      -1.386   4.131  25.196  0.00  0.00    +0.172 A 
ATOM     25  C   UNL     1      -1.445   3.430  25.626  0.00  0.00    +0.173 A 
ATOM     28  C   UNL     1      -2.174   3.051  25.700  0.00  0.00    +0.045 A 
BRANCH  22  23
ATOM     23  O   UNL     1      -0.656   4.510  25.122  0.00  0.00    -0.468 OA
ATOM     24  C   UNL     1      -0.610   5.248  24.757  0.00  0.00    +0.253 C 
ENDBRANCH  22  23
BRANCH  25  26
ATOM     26  O   UNL     1      -0.774   3.107  25.983  0.00  0.00    -0.468 OA
ATOM     27  C   UNL     1      -0.688   2.287  26.032  0.00  0.00    +0.253 C 
ENDBRANCH  25  26
ENDBRANCH  17  19
ENDBRANCH  15  16
TORSDOF 6
ENDMDL
MODEL 6
REMARK VINA RESULT:     -10.6      1.229      4.277
REMARK  Name = 
REMARK  6 active torsions:
REMARK  status: ('A' for Active; 'I' for Inactive)
REMARK    1  A    between atoms: O_2  and  C_3
REMARK    2  A    between atoms: C_6  and  C_9
REMARK    3  A    between atoms: C_15  and  N_16
REMARK    4  A    between atoms: C_17  and  C_19
REMARK    5  A    between atoms: C_22  and  O_23
REMARK    6  A    between atoms: C_25  and  O_26
REMARK                            x       y       z     vdW  Elec       q    Type
REMARK                         _______ _______ _______ _____ _____    ______ ____
ROOT
ATOM      9  C   UNL     1      -1.927  -0.848  24.781  0.00  0.00    +0.048 C 
ATOM     10  C   UNL     1      -1.733  -1.635  24.629  0.00  0.00    +0.042 C 
ATOM     11  C   UNL     1      -2.433  -2.069  24.599  0.00  0.00    +0.184 C 
ATOM     12  O   UNL     1      -2.495  -2.881  24.459  0.00  0.00    -0.220 OA
ATOM     13  C   UNL     1      -3.060  -1.551  24.733  0.00  0.00    +0.202 C 
ATOM     14  O   UNL     1      -3.861  -1.752  24.752  0.00  0.00    -0.219 OA
ATOM     15  C   UNL     1      -2.748  -0.796  24.846  0.00  0.00    +0.132 C 
ENDROOT
BRANCH   9   6
ATOM      3  C   UNL     1      -0.328   1.028  25.006  0.00  0.00    +0.139 A 
ATOM      4  C   UNL     1      -0.485   0.707  24.263  0.00  0.00    +0.037 A 
ATOM      5  C   UNL     1      -1.019   0.081  24.188  0.00  0.00    -0.001 A 
ATOM      6  C   UNL     1      -1.394  -0.223  24.856  0.00  0.00    -0.020 A 
ATOM      7  C   UNL     1      -1.237   0.098  25.599  0.00  0.00    -0.001 A 
ATOM      8  C   UNL     1      -0.704   0.724  25.674  0.00  0.00    +0.037 A 
BRANCH   3   2
ATOM      1  C   UNL     1      -0.073   2.429  25.125  0.00  0.00    +0.252 C 
ATOM      2  O   UNL     1       0.204   1.653  25.081  0.00  0.00    -0.471 OA
ENDBRANCH   3   2
ENDBRANCH   9   6
BRANCH  15  16
ATOM     16  N   UNL     1      -3.180  -0.110  24.997  0.00  0.00    -0.200 NA
ATOM     17  C   UNL     1      -3.795   0.109  24.493  0.00  0.00    +0.265 C 
ATOM     18  O   UNL     1      -3.979  -0.359  23.839  0.00  0.00    -0.268 OA
BRANCH  17  19
ATOM     19  C   UNL     1      -4.228   0.795  24.644  0.00  0.00    +0.058 A 
ATOM     20  C   UNL     1      -4.826   0.790  25.212  0.00  0.00    +0.008 A 
ATOM     21  C   UNL     1      -5.258   1.476  25.362  0.00  0.00    +0.040 A 
ATOM     22  C   UNL     1      -5.092   2.168  24.945  0.00  0.00    +0.172 A 
ATOM     25  C   UNL     1      -4.493   2.174  24.377  0.00  0.00    +0.173 A 
ATOM     28  C   UNL     1      -4.061   1.487  24.227  0.00  0.00    +0.045 A 
BRANCH  22  23
ATOM     23  O   UNL     1      -5.524   2.855  25.096  0.00  0.00    -0.468 OA
ATOM     24  C   UNL     1      -6.000   2.904  25.768  0.00  0.00    +0.253 C 
ENDBRANCH  22  23
BRANCH  25  26
ATOM     26  O   UNL     1      -4.327   2.866  23.960  0.00  0.00    -0.468 OA
ATOM     27  C   UNL     1      -3.601   2.951  23.576  0.00  0.00    +0.253 C 
ENDBRANCH  25  26
ENDBRANCH  17  19
ENDBRANCH  15  16
TORSDOF 6
ENDMDL
MODEL 7
REMARK VINA RESULT:     -10.0      1.354      3.447
REMARK  Name = 
REMARK  6 active torsions:
REMARK  status: ('A' for Active; 'I' for Inactive)
REMARK    1  A    between atoms: O_2  and  C_3
REMARK    2  A    between atoms: C_6  and  C_9
REMARK    3  A    between atoms: C_15  and  N_16
REMARK    4  A    between atoms: C_17  and  C_19
REMARK    5  A    between atoms: C_22  and  O_23
REMARK    6  A    between atoms: C_25  and  O_26
REMARK                            x       y       z     vdW  Elec       q    Type
REMARK                         _______ _______ _______ _____ _____    ______ ____
ROOT
ATOM      9  C   UNL     1      -1.294   0.157  24.462  0.00  0.00    +0.048 C 
ATOM     10  C   UNL     1      -0.561  -0.012  24.125  0.00  0.00    +0.042 C 
ATOM     11  C   UNL     1      -0.187   0.703  23.955  0.00  0.00    +0.184 C 
ATOM     12  O   UNL     1       0.559   0.791  23.614  0.00  0.00    -0.220 OA
ATOM     13  C   UNL     1      -0.690   1.315  24.187  0.00  0.00    +0.202 C 
ATOM     14  O   UNL     1      -0.535   2.122  24.117  0.00  0.00    -0.219 OA
ATOM     15  C   UNL     1      -1.374   0.978  24.500  0.00  0.00    +0.132 C 
ENDROOT
BRANCH   9   6
ATOM      3  C   UNL     1      -2.964  -1.504  25.224  0.00  0.00    +0.139 A 
ATOM      4  C   UNL     1      -2.486  -1.118  25.773  0.00  0.00    +0.037 A 
ATOM      5  C   UNL     1      -1.928  -0.564  25.519  0.00  0.00    -0.001 A 
ATOM      6  C   UNL     1      -1.851  -0.397  24.716  0.00  0.00    -0.020 A 
ATOM      7  C   UNL     1      -2.329  -0.782  24.166  0.00  0.00    -0.001 A 
ATOM      8  C   UNL     1      -2.886  -1.336  24.420  0.00  0.00    +0.037 A 
BRANCH   3   2
ATOM      1  C   UNL     1      -3.582  -2.786  25.096  0.00  0.00    +0.252 C 
ATOM      2  O   UNL     1      -3.520  -2.057  25.478  0.00  0.00    -0.471 OA
ENDBRANCH   3   2
ENDBRANCH   9   6
BRANCH  15  16
ATOM     16  N   UNL     1      -2.024   1.388  24.798  0.00  0.00    -0.200 NA
ATOM     17  C   UNL     1      -2.383   1.977  24.346  0.00  0.00    +0.265 C 
ATOM     18  O   UNL     1      -2.092   2.155  23.595  0.00  0.00    -0.268 OA
BRANCH  17  19
ATOM     19  C   UNL     1      -3.034   2.388  24.644  0.00  0.00    +0.058 A 
ATOM     20  C   UNL     1      -3.794   2.198  24.387  0.00  0.00    +0.008 A 
ATOM     21  C   UNL     1      -4.445   2.609  24.686  0.00  0.00    +0.040 A 
ATOM     22  C   UNL     1      -4.334   3.209  25.241  0.00  0.00    +0.172 A 
ATOM     25  C   UNL     1      -3.573   3.398  25.498  0.00  0.00    +0.173 A 
ATOM     28  C   UNL     1      -2.923   2.988  25.199  0.00  0.00    +0.045 A 
BRANCH  22  23
ATOM     23  O   UNL     1      -4.985   3.620  25.540  0.00  0.00    -0.468 OA
ATOM     24  C   UNL     1      -5.735   3.279  25.513  0.00  0.00    +0.253 C 
ENDBRANCH  22  23
BRANCH  25  26
ATOM     26  O   UNL     1      -3.463   3.999  26.053  0.00  0.00    -0.468 OA
ATOM     27  C   UNL     1      -2.710   4.316  26.173  0.00  0.00    +0.253 C 
ENDBRANCH  25  26
ENDBRANCH  17  19
ENDBRANCH  15  16
TORSDOF 6
ENDMDL
