MODEL 1
REMARK VINA RESULT:     -11.2      0.000      0.000
REMARK  Name = 
REMARK  8 active torsions:
REMARK  status: ('A' for Active; 'I' for Inactive)
REMARK    1  A    between atoms: O_2  and  C_3
REMARK    2  A    between atoms: C_8  and  C_9
REMARK    3  A    between atoms: C_9  and  N_10
REMARK    4  A    between atoms: C_11  and  C_13
REMARK    5  A    between atoms: N_17  and  C_18
REMARK    6  A    between atoms: C_18  and  C_19
REMARK    7  A    between atoms: C_28  and  C_29
REMARK    8  A    between atoms: C_29  and  C_30
REMARK                            x       y       z     vdW  Elec       q    Type
REMARK                         _______ _______ _______ _____ _____    ______ ____
ROOT
ATOM     13  C   UNL     1      -3.702   1.375  24.430  0.00  0.00    +0.155 C 
ATOM     14  C   UNL     1      -2.918   1.610  24.529  0.00  0.00    +0.055 C 
ATOM     15  C   UNL     1      -2.628   2.310  24.858  0.00  0.00    -0.002 A 
ATOM     16  C   UNL     1      -1.824   2.481  24.926  0.00  0.00    +0.072 A 
ATOM     17  N   UNL     1      -1.750   3.223  25.279  0.00  0.00    -0.315 N 
ATOM     22  C   UNL     1      -2.509   3.511  25.429  0.00  0.00    +0.060 A 
ATOM     23  C   UNL     1      -3.051   2.946  25.168  0.00  0.00    +0.011 A 
ATOM     24  C   UNL     1      -3.869   3.040  25.226  0.00  0.00    -0.005 A 
ATOM     25  C   UNL     1      -4.127   3.787  25.587  0.00  0.00    -0.003 A 
ATOM     26  C   UNL     1      -3.585   4.352  25.847  0.00  0.00    +0.001 A 
ATOM     27  C   UNL     1      -2.776   4.213  25.768  0.00  0.00    +0.017 A 
ATOM     28  C   UNL     1      -4.465   2.522  24.989  0.00  0.00    +0.095 C 
ATOM     33  N   UNL     1      -4.391   1.781  24.635  0.00  0.00    -0.207 NA
ENDROOT
BRANCH  13  11
ATOM     10  N   UNL     1      -3.785  -0.047  24.540  0.00  0.00    -0.199 NA
ATOM     11  C   UNL     1      -3.813   0.636  24.079  0.00  0.00    +0.258 C 
ATOM     12  O   UNL     1      -3.952   0.582  23.267  0.00  0.00    -0.272 OA
BRANCH  10   9
ATOM      9  C   UNL     1      -3.896  -0.785  24.189  0.00  0.00    +0.145 C 
BRANCH   9   8
ATOM      3  C   UNL     1      -3.851  -2.212  24.268  0.00  0.00    +0.136 A 
ATOM      4  C   UNL     1      -3.656  -2.898  24.682  0.00  0.00    +0.037 A 
ATOM      5  C   UNL     1      -3.309  -2.846  25.428  0.00  0.00    +0.003 A 
ATOM      6  C   UNL     1      -3.158  -2.107  25.762  0.00  0.00    -0.000 A 
ATOM      7  C   UNL     1      -3.353  -1.420  25.349  0.00  0.00    +0.000 A 
ATOM      8  C   UNL     1      -3.700  -1.472  24.602  0.00  0.00    +0.033 A 
BRANCH   3   2
ATOM      1  C   UNL     1      -4.409  -3.000  23.215  0.00  0.00    +0.252 C 
ATOM      2  O   UNL     1      -4.198  -2.264  23.521  0.00  0.00    -0.472 OA
ENDBRANCH   3   2
ENDBRANCH   9   8
ENDBRANCH  10   9
ENDBRANCH  13  11
BRANCH  17  18
ATOM     18  C   UNL     1      -1.043   3.610  25.452  0.00  0.00    +0.183 C 
BRANCH  18  19
ATOM     19  C   UNL     1      -0.464   3.229  25.900  0.00  0.00    -0.066 C 
ATOM     20  C   UNL     1       0.115   2.848  26.348  0.00  0.00    -0.088 C 
ATOM     21  C   UNL     1       0.694   2.468  26.796  0.00  0.00    +0.090 C 
ENDBRANCH  18  19
ENDBRANCH  17  18
BRANCH  28  29
ATOM     29  C   UNL     1      -5.237   2.778  25.124  0.00  0.00    +0.022 C 
BRANCH  29  30
ATOM     30  C   UNL     1      -5.820   2.235  25.340  0.00  0.00    +0.002 C 
ATOM     31  C   UNL     1      -5.856   1.957  26.117  0.00  0.00    +0.000 C 
ATOM     32  C   UNL     1      -6.365   1.970  24.781  0.00  0.00    +0.000 C 
ENDBRANCH  29  30
ENDBRANCH  28  29
TORSDOF 8
ENDMDL
MODEL 2
REMARK VINA RESULT:     -10.5      1.241      3.327
REMARK  Name = 
REMARK  8 active torsions:
REMARK  status: ('A' for Active; 'I' for Inactive)
REMARK    1  A    between atoms: O_2  and  C_3
REMARK    2  A    between atoms: C_8  and  C_9
REMARK    3  A    between atoms: C_9  and  N_10
REMARK    4  A    between atoms: C_11  and  C_13
REMARK    5  A    between atoms: N_17  and  C_18
REMARK    6  A    between atoms: C_18  and  C_19
REMARK    7  A    between atoms: C_28  and  C_29
REMARK    8  A    between atoms: C_29  and  C_30
REMARK                            x       y       z     vdW  Elec       q    Type
REMARK                         _______ _______ _______ _____ _____    ______ ____
ROOT
ATOM     13  C   UNL     1      -2.080   1.511  24.470  0.00  0.00    +0.155 C 
ATOM     14  C   UNL     1      -2.879   1.689  24.577  0.00  0.00    +0.055 C 
ATOM     15  C   UNL     1      -3.216   2.371  24.896  0.00  0.00    -0.002 A 
ATOM     16  C   UNL     1      -4.029   2.483  24.974  0.00  0.00    +0.072 A 
ATOM     17  N   UNL     1      -4.154   3.225  25.313  0.00  0.00    -0.315 N 
ATOM     22  C   UNL     1      -3.417   3.572  25.444  0.00  0.00    +0.060 A 
ATOM     23  C   UNL     1      -2.837   3.044  25.186  0.00  0.00    +0.011 A 
ATOM     24  C   UNL     1      -2.027   3.201  25.229  0.00  0.00    -0.005 A 
ATOM     25  C   UNL     1      -1.821   3.973  25.569  0.00  0.00    -0.003 A 
ATOM     26  C   UNL     1      -2.400   4.501  25.827  0.00  0.00    +0.001 A 
ATOM     27  C   UNL     1      -3.199   4.300  25.764  0.00  0.00    +0.017 A 
ATOM     28  C   UNL     1      -1.398   2.724  24.992  0.00  0.00    +0.095 C 
ATOM     33  N   UNL     1      -1.421   1.972  24.655  0.00  0.00    -0.207 NA
ENDROOT
BRANCH  13  11
ATOM     10  N   UNL     1      -2.218   0.089  24.479  0.00  0.00    -0.199 NA
ATOM     11  C   UNL     1      -1.919   0.775  24.133  0.00  0.00    +0.258 C 
ATOM     12  O   UNL     1      -1.459   0.726  23.450  0.00  0.00    -0.272 OA
BRANCH  10   9
ATOM      9  C   UNL     1      -2.057  -0.647  24.142  0.00  0.00    +0.145 C 
BRANCH   9   8
ATOM      3  C   UNL     1      -2.113  -1.997  24.608  0.00  0.00    +0.136 A 
ATOM      4  C   UNL     1      -2.553  -2.658  24.830  0.00  0.00    +0.037 A 
ATOM      5  C   UNL     1      -3.377  -2.631  24.809  0.00  0.00    +0.003 A 
ATOM      6  C   UNL     1      -3.761  -1.943  24.566  0.00  0.00    -0.000 A 
ATOM      7  C   UNL     1      -3.322  -1.282  24.343  0.00  0.00    +0.000 A 
ATOM      8  C   UNL     1      -2.497  -1.308  24.364  0.00  0.00    +0.033 A 
BRANCH   3   2
ATOM      1  C   UNL     1      -0.905  -2.672  24.966  0.00  0.00    +0.252 C 
ATOM      2  O   UNL     1      -1.288  -2.024  24.629  0.00  0.00    -0.472 OA
ENDBRANCH   3   2
ENDBRANCH   9   8
ENDBRANCH  10   9
ENDBRANCH  13  11
BRANCH  17  18
ATOM     18  C   UNL     1      -4.885   3.561  25.489  0.00  0.00    +0.183 C 
BRANCH  18  19
ATOM     19  C   UNL     1      -5.499   3.087  25.770  0.00  0.00    -0.066 C 
ATOM     20  C   UNL     1      -6.113   2.612  26.052  0.00  0.00    -0.088 C 
ATOM     21  C   UNL     1      -6.726   2.137  26.333  0.00  0.00    +0.090 C 
ENDBRANCH  18  19
ENDBRANCH  17  18
BRANCH  28  29
ATOM     29  C   UNL     1      -0.645   3.040  25.109  0.00  0.00    +0.022 C 
BRANCH  29  30
ATOM     30  C   UNL     1      -0.026   2.552  25.351  0.00  0.00    +0.002 C 
ATOM     31  C   UNL     1       0.050   2.346  26.147  0.00  0.00    +0.000 C 
ATOM     32  C   UNL     1       0.517   2.270  24.798  0.00  0.00    +0.000 C 
ENDBRANCH  29  30
ENDBRANCH  28  29
TORSDOF 8
ENDMDL
MODEL 3
REMARK VINA RESULT:     -10.1      1.917      4.426
REMARK  Name = 
REMARK  8 active torsions:
REMARK  status: ('A' for Active; 'I' for Inactive)
REMARK    1  A    between atoms: O_2  and  C_3
REMARK    2  A    between atoms: C_8  and  C_9
REMARK    3  A    between atoms: C_9  and  N_10
REMARK    4  A    between atoms: C_11  and  C_13
REMARK    5  A    between atoms: N_17  and  C_18
REMARK    6  A    between atoms: C_18  and  C_19
REMARK    7  A    between atoms: C_28  and  C_29
REMARK    8  A    between atoms: C_29  and  C_30
REMARK                            x       y       z     vdW  Elec       q    Type
REMARK                         _______ _______ _______ _____ _____    ______ ____
ROOT
ATOM     13  C   UNL     1      -2.479   2.392  24.056  0.00  0.00    +0.155 C 
ATOM     14  C   UNL     1      -2.305   1.591  23.964  0.00  0.00    +0.055 C 
ATOM     15  C   UNL     1      -1.578   1.209  24.041  0.00  0.00    -0.002 A 
ATOM     16  C   UNL     1      -1.476   0.398  23.935  0.00  0.00    +0.072 A 
ATOM     17  N   UNL     1      -0.680   0.221  24.057  0.00  0.00    -0.315 N 
ATOM     22  C   UNL     1      -0.288   0.925  24.239  0.00  0.00    +0.060 A 
ATOM     23  C   UNL     1      -0.844   1.535  24.230  0.00  0.00    +0.011 A 
ATOM     24  C   UNL     1      -0.656   2.324  24.387  0.00  0.00    -0.005 A 
ATOM     25  C   UNL     1       0.180   2.472  24.567  0.00  0.00    -0.003 A 
ATOM     26  C   UNL     1       0.736   1.862  24.577  0.00  0.00    +0.001 A 
ATOM     27  C   UNL     1       0.501   1.088  24.413  0.00  0.00    +0.017 A 
ATOM     28  C   UNL     1      -1.155   2.979  24.395  0.00  0.00    +0.095 C 
ATOM     33  N   UNL     1      -1.966   3.010  24.248  0.00  0.00    -0.207 NA
ENDROOT
BRANCH  13  11
ATOM     10  N   UNL     1      -3.821   2.474  24.538  0.00  0.00    -0.199 NA
ATOM     11  C   UNL     1      -3.268   2.604  23.940  0.00  0.00    +0.258 C 
ATOM     12  O   UNL     1      -3.503   2.945  23.227  0.00  0.00    -0.272 OA
BRANCH  10   9
ATOM      9  C   UNL     1      -4.610   2.686  24.422  0.00  0.00    +0.145 C 
BRANCH   9   8
ATOM      3  C   UNL     1      -5.570   3.012  25.430  0.00  0.00    +0.136 A 
ATOM      4  C   UNL     1      -6.144   2.774  25.972  0.00  0.00    +0.037 A 
ATOM      5  C   UNL     1      -6.334   1.976  26.049  0.00  0.00    +0.003 A 
ATOM      6  C   UNL     1      -5.949   1.414  25.585  0.00  0.00    -0.000 A 
ATOM      7  C   UNL     1      -5.375   1.650  25.042  0.00  0.00    +0.000 A 
ATOM      8  C   UNL     1      -5.185   2.449  24.965  0.00  0.00    +0.033 A 
BRANCH   3   2
ATOM      1  C   UNL     1      -5.865   4.385  25.691  0.00  0.00    +0.252 C 
ATOM      2  O   UNL     1      -5.380   3.811  25.353  0.00  0.00    -0.472 OA
ENDBRANCH   3   2
ENDBRANCH   9   8
ENDBRANCH  10   9
ENDBRANCH  13  11
BRANCH  17  18
ATOM     18  C   UNL     1      -0.334  -0.526  24.006  0.00  0.00    +0.183 C 
BRANCH  18  19
ATOM     19  C   UNL     1      -0.761  -1.193  24.236  0.00  0.00    -0.066 C 
ATOM     20  C   UNL     1      -1.187  -1.861  24.466  0.00  0.00    -0.088 C 
ATOM     21  C   UNL     1      -1.614  -2.529  24.696  0.00  0.00    +0.090 C 
ENDBRANCH  18  19
ENDBRANCH  17  18
BRANCH  28  29
ATOM     29  C   UNL     1      -0.797   3.700  24.574  0.00  0.00    +0.022 C 
BRANCH  29  30
ATOM     30  C   UNL     1      -1.188   4.247  25.053  0.00  0.00    +0.002 C 
ATOM     31  C   UNL     1      -1.397   4.986  24.750  0.00  0.00    +0.000 C 
ATOM     32  C   UNL     1      -1.369   4.055  25.835  0.00  0.00    +0.000 C 
ENDBRANCH  29  30
ENDBRANCH  28  29
TORSDOF 8
ENDMDL
MODEL 4
REMARK VINA RESULT:      -9.9      1.728      5.333
REMARK  Name = 
REMARK  8 active torsions:
REMARK  status: ('A' for Active; 'I' for Inactive)
REMARK    1  A    between atoms: O_2  and  C_3
REMARK    2  A    between atoms: C_8  and  C_9
REMARK    3  A    between atoms: C_9  and  N_10
REMARK    4  A    between atoms: C_11  and  C_13
REMARK    5  A    between atoms: N_17  and  C_18
REMARK    6  A    between atoms: C_18  and  C_19
REMARK    7  A    between atoms: C_28  and  C_29
REMARK    8  A    between atoms: C_29  and  C_30
REMARK                            x       y       z     vdW  Elec       q    Type
REMARK                         _______ _______ _______ _____ _____    ______ ____
ROOT
ATOM     13  C   UNL     1      -2.318   1.089  24.201  0.00  0.00    +0.155 C 
ATOM     14  C   UNL     1      -2.731   0.375  24.225  0.00  0.00    +0.055 C 
ATOM     15  C   UNL     1      -2.446  -0.378  24.404  0.00  0.00    -0.002 A 
ATOM     16  C   UNL     1      -2.919  -1.054  24.409  0.00  0.00    +0.072 A 
ATOM     17  N   UNL     1      -2.443  -1.697  24.612  0.00  0.00    -0.315 N 
ATOM     22  C   UNL     1      -1.676  -1.419  24.732  0.00  0.00    +0.060 A 
ATOM     23  C   UNL     1      -1.677  -0.604  24.603  0.00  0.00    +0.011 A 
ATOM     24  C   UNL     1      -1.004  -0.131  24.672  0.00  0.00    -0.005 A 
ATOM     25  C   UNL     1      -0.280  -0.555  24.893  0.00  0.00    -0.003 A 
ATOM     26  C   UNL     1      -0.277  -1.370  25.022  0.00  0.00    +0.001 A 
ATOM     27  C   UNL     1      -0.976  -1.802  24.941  0.00  0.00    +0.017 A 
ATOM     28  C   UNL     1      -0.934   0.682  24.559  0.00  0.00    +0.095 C 
ATOM     33  N   UNL     1      -1.518   1.226  24.349  0.00  0.00    -0.207 NA
ENDROOT
BRANCH  13  11
ATOM     10  N   UNL     1      -3.299   2.069  24.543  0.00  0.00    -0.199 NA
ATOM     11  C   UNL     1      -2.764   1.754  24.001  0.00  0.00    +0.258 C 
ATOM     12  O   UNL     1      -2.673   2.103  23.258  0.00  0.00    -0.272 OA
BRANCH  10   9
ATOM      9  C   UNL     1      -3.745   2.734  24.343  0.00  0.00    +0.145 C 
BRANCH   9   8
ATOM      3  C   UNL     1      -4.335   3.613  25.303  0.00  0.00    +0.136 A 
ATOM      4  C   UNL     1      -4.980   3.832  25.768  0.00  0.00    +0.037 A 
ATOM      5  C   UNL     1      -5.678   3.395  25.739  0.00  0.00    +0.003 A 
ATOM      6  C   UNL     1      -5.732   2.737  25.245  0.00  0.00    -0.000 A 
ATOM      7  C   UNL     1      -5.088   2.517  24.779  0.00  0.00    +0.000 A 
ATOM      8  C   UNL     1      -4.389   2.954  24.808  0.00  0.00    +0.033 A 
BRANCH   3   2
ATOM      1  C   UNL     1      -3.465   4.510  25.995  0.00  0.00    +0.252 C 
ATOM      2  O   UNL     1      -3.636   4.051  25.332  0.00  0.00    -0.472 OA
ENDBRANCH   3   2
ENDBRANCH   9   8
ENDBRANCH  10   9
ENDBRANCH  13  11
BRANCH  17  18
ATOM     18  C   UNL     1      -2.691  -2.481  24.682  0.00  0.00    +0.183 C 
BRANCH  18  19
ATOM     19  C   UNL     1      -3.384  -2.729  24.310  0.00  0.00    -0.066 C 
ATOM     20  C   UNL     1      -4.077  -2.977  23.937  0.00  0.00    -0.088 C 
ATOM     21  C   UNL     1      -4.769  -3.225  23.564  0.00  0.00    +0.090 C 
ENDBRANCH  18  19
ENDBRANCH  17  18
BRANCH  28  29
ATOM     29  C   UNL     1      -0.179   0.995  24.671  0.00  0.00    +0.022 C 
BRANCH  29  30
ATOM     30  C   UNL     1      -0.089   1.775  24.927  0.00  0.00    +0.002 C 
ATOM     31  C   UNL     1       0.132   2.362  24.390  0.00  0.00    +0.000 C 
ATOM     32  C   UNL     1      -0.221   1.968  25.718  0.00  0.00    +0.000 C 
ENDBRANCH  29  30
ENDBRANCH  28  29
TORSDOF 8
ENDMDL
MODEL 5
REMARK VINA RESULT:      -9.9      2.330      4.764
REMARK  Name = 
REMARK  8 active torsions:
REMARK  status: ('A' for Active; 'I' for Inactive)
REMARK    1  A    between atoms: O_2  and  C_3
REMARK    2  A    between atoms: C_8  and  C_9
REMARK    3  A    between atoms: C_9  and  N_10
REMARK    4  A    between atoms: C_11  and  C_13
REMARK    5  A    between atoms: N_17  and  C_18
REMARK    6  A    between atoms: C_18  and  C_19
REMARK    7  A    between atoms: C_28  and  C_29
REMARK    8  A    between atoms: C_29  and  C_30
REMARK                            x       y       z     vdW  Elec       q    Type
REMARK                         _______ _______ _______ _____ _____    ______ ____
ROOT
ATOM     13  C   UNL     1      -2.451   0.797  24.183  0.00  0.00    +0.155 C 
ATOM     14  C   UNL     1      -1.640   0.770  24.036  0.00  0.00    +0.055 C 
ATOM     15  C   UNL     1      -1.122   0.133  24.118  0.00  0.00    -0.002 A 
ATOM     16  C   UNL     1      -0.316   0.178  23.951  0.00  0.00    +0.072 A 
ATOM     17  N   UNL     1       0.017  -0.563  24.099  0.00  0.00    -0.315 N 
ATOM     22  C   UNL     1      -0.584  -1.065  24.356  0.00  0.00    +0.060 A 
ATOM     23  C   UNL     1      -1.289  -0.635  24.369  0.00  0.00    +0.011 A 
ATOM     24  C   UNL     1      -2.014  -0.956  24.598  0.00  0.00    -0.005 A 
ATOM     25  C   UNL     1      -1.987  -1.792  24.831  0.00  0.00    -0.003 A 
ATOM     26  C   UNL     1      -1.284  -2.223  24.819  0.00  0.00    +0.001 A 
ATOM     27  C   UNL     1      -0.582  -1.859  24.582  0.00  0.00    +0.017 A 
ATOM     28  C   UNL     1      -2.750  -0.588  24.634  0.00  0.00    +0.095 C 
ATOM     33  N   UNL     1      -2.945   0.192  24.449  0.00  0.00    -0.207 NA
ENDROOT
BRANCH  13  11
ATOM     10  N   UNL     1      -2.917   2.058  24.666  0.00  0.00    -0.199 NA
ATOM     11  C   UNL     1      -2.817   1.524  24.046  0.00  0.00    +0.258 C 
ATOM     12  O   UNL     1      -3.083   1.715  23.288  0.00  0.00    -0.272 OA
BRANCH  10   9
ATOM      9  C   UNL     1      -3.283   2.785  24.528  0.00  0.00    +0.145 C 
BRANCH   9   8
ATOM      3  C   UNL     1      -4.000   3.625  25.435  0.00  0.00    +0.136 A 
ATOM      4  C   UNL     1      -4.002   4.203  26.023  0.00  0.00    +0.037 A 
ATOM      5  C   UNL     1      -3.290   4.521  26.292  0.00  0.00    +0.003 A 
ATOM      6  C   UNL     1      -2.576   4.260  25.974  0.00  0.00    -0.000 A 
ATOM      7  C   UNL     1      -2.573   3.681  25.386  0.00  0.00    +0.000 A 
ATOM      8  C   UNL     1      -3.285   3.364  25.116  0.00  0.00    +0.033 A 
BRANCH   3   2
ATOM      1  C   UNL     1      -5.425   3.544  25.507  0.00  0.00    +0.252 C 
ATOM      2  O   UNL     1      -4.712   3.307  25.165  0.00  0.00    -0.472 OA
ENDBRANCH   3   2
ENDBRANCH   9   8
ENDBRANCH  10   9
ENDBRANCH  13  11
BRANCH  17  18
ATOM     18  C   UNL     1       0.811  -0.766  24.005  0.00  0.00    +0.183 C 
BRANCH  18  19
ATOM     19  C   UNL     1       1.241  -0.461  23.370  0.00  0.00    -0.066 C 
ATOM     20  C   UNL     1       1.673  -0.156  22.736  0.00  0.00    -0.088 C 
ATOM     21  C   UNL     1       2.104   0.148  22.102  0.00  0.00    +0.090 C 
ENDBRANCH  18  19
ENDBRANCH  17  18
BRANCH  28  29
ATOM     29  C   UNL     1      -3.376  -1.062  24.888  0.00  0.00    +0.022 C 
BRANCH  29  30
ATOM     30  C   UNL     1      -4.119  -0.987  24.538  0.00  0.00    +0.002 C 
ATOM     31  C   UNL     1      -4.283  -1.378  23.829  0.00  0.00    +0.000 C 
ATOM     32  C   UNL     1      -4.698  -0.521  24.895  0.00  0.00    +0.000 C 
ENDBRANCH  29  30
ENDBRANCH  28  29
TORSDOF 8
ENDMDL
MODEL 6
REMARK VINA RESULT:      -9.4      2.780      4.766
REMARK  Name = 
REMARK  8 active torsions:
REMARK  status: ('A' for Active; 'I' for Inactive)
REMARK    1  A    between atoms: O_2  and  C_3
REMARK    2  A    between atoms: C_8  and  C_9
REMARK    3  A    between atoms: C_9  and  N_10
REMARK    4  A    between atoms: C_11  and  C_13
REMARK    5  A    between atoms: N_17  and  C_18
REMARK    6  A    between atoms: C_18  and  C_19
REMARK    7  A    between atoms: C_28  and  C_29
REMARK    8  A    between atoms: C_29  and  C_30
REMARK                            x       y       z     vdW  Elec       q    Type
REMARK                         _______ _______ _______ _____ _____    ______ ____
ROOT
ATOM     13  C   UNL     1      -1.163   1.524  24.544  0.00  0.00    +0.155 C 
ATOM     14  C   UNL     1      -1.657   0.864  24.562  0.00  0.00    +0.055 C 
ATOM     15  C   UNL     1      -2.481   0.838  24.585  0.00  0.00    -0.002 A 
ATOM     16  C   UNL     1      -2.914   0.136  24.603  0.00  0.00    +0.072 A 
ATOM     17  N   UNL     1      -3.716   0.331  24.624  0.00  0.00    -0.315 N 
ATOM     22  C   UNL     1      -3.779   1.153  24.619  0.00  0.00    +0.060 A 
ATOM     23  C   UNL     1      -3.015   1.467  24.595  0.00  0.00    +0.011 A 
ATOM     24  C   UNL     1      -2.856   2.277  24.584  0.00  0.00    -0.005 A 
ATOM     25  C   UNL     1      -3.558   2.788  24.600  0.00  0.00    -0.003 A 
ATOM     26  C   UNL     1      -4.321   2.475  24.623  0.00  0.00    +0.001 A 
ATOM     27  C   UNL     1      -4.431   1.657  24.633  0.00  0.00    +0.017 A 
ATOM     28  C   UNL     1      -2.125   2.657  24.561  0.00  0.00    +0.095 C 
ATOM     33  N   UNL     1      -1.372   2.322  24.543  0.00  0.00    -0.207 NA
ENDROOT
BRANCH  13  11
ATOM     10  N   UNL     1      -0.006   1.087  23.828  0.00  0.00    -0.199 NA
ATOM     11  C   UNL     1      -0.353   1.365  24.522  0.00  0.00    +0.258 C 
ATOM     12  O   UNL     1       0.108   1.486  25.197  0.00  0.00    -0.272 OA
BRANCH  10   9
ATOM      9  C   UNL     1       0.804   0.929  23.808  0.00  0.00    +0.145 C 
BRANCH   9   8
ATOM      3  C   UNL     1       1.906   0.559  22.977  0.00  0.00    +0.136 A 
ATOM      4  C   UNL     1       2.220   0.094  22.373  0.00  0.00    +0.037 A 
ATOM      5  C   UNL     1       1.747  -0.466  21.995  0.00  0.00    +0.003 A 
ATOM      6  C   UNL     1       0.960  -0.561  22.221  0.00  0.00    -0.000 A 
ATOM      7  C   UNL     1       0.645  -0.096  22.825  0.00  0.00    +0.000 A 
ATOM      8  C   UNL     1       1.118   0.464  23.204  0.00  0.00    +0.033 A 
BRANCH   3   2
ATOM      1  C   UNL     1       3.164   1.220  23.124  0.00  0.00    +0.252 C 
ATOM      2  O   UNL     1       2.380   1.119  23.356  0.00  0.00    -0.472 OA
ENDBRANCH   3   2
ENDBRANCH   9   8
ENDBRANCH  10   9
ENDBRANCH  13  11
BRANCH  17  18
ATOM     18  C   UNL     1      -4.344  -0.203  24.645  0.00  0.00    +0.183 C 
BRANCH  18  19
ATOM     19  C   UNL     1      -4.235  -0.979  24.388  0.00  0.00    -0.066 C 
ATOM     20  C   UNL     1      -4.125  -1.755  24.131  0.00  0.00    -0.088 C 
ATOM     21  C   UNL     1      -4.015  -2.531  23.874  0.00  0.00    +0.090 C 
ENDBRANCH  18  19
ENDBRANCH  17  18
BRANCH  28  29
ATOM     29  C   UNL     1      -2.150   3.481  24.555  0.00  0.00    +0.022 C 
BRANCH  29  30
ATOM     30  C   UNL     1      -1.612   3.914  25.008  0.00  0.00    +0.002 C 
ATOM     31  C   UNL     1      -0.978   4.295  24.642  0.00  0.00    +0.000 C 
ATOM     32  C   UNL     1      -1.708   3.964  25.826  0.00  0.00    +0.000 C 
ENDBRANCH  29  30
ENDBRANCH  28  29
TORSDOF 8
ENDMDL
