MODEL 1
REMARK VINA RESULT:     -11.4      0.000      0.000
REMARK  Name = 
REMARK  7 active torsions:
REMARK  status: ('A' for Active; 'I' for Inactive)
REMARK    1  A    between atoms: O_2  and  C_3
REMARK    2  A    between atoms: C_6  and  C_7
REMARK    3  A    between atoms: C_7  and  N_8
REMARK    4  A    between atoms: C_9  and  C_11
REMARK    5  A    between atoms: N_16  and  C_17
REMARK    6  A    between atoms: C_17  and  C_18
REMARK    7  A    between atoms: C_21  and  C_24
REMARK                            x       y       z     vdW  Elec       q    Type
REMARK                         _______ _______ _______ _____ _____    ______ ____
ROOT
ATOM     11  C   UNL     1      -3.918   2.039  24.415  0.00  0.00    +0.143 C 
ATOM     12  C   UNL     1      -4.466   2.562  24.740  0.00  0.00    +0.072 C 
ATOM     13  C   UNL     1      -5.194   2.284  25.010  0.00  0.00    +0.077 A 
ATOM     14  C   UNL     1      -5.374   1.481  24.954  0.00  0.00    +0.090 A 
ATOM     15  C   UNL     1      -4.826   0.956  24.628  0.00  0.00    +0.121 C 
ATOM     16  N   UNL     1      -4.098   1.236  24.359  0.00  0.00    -0.257 NA
ATOM     27  N   UNL     1      -6.130   1.367  25.263  0.00  0.00    -0.226 NA
ATOM     28  C   UNL     1      -6.418   2.099  25.510  0.00  0.00    +0.198 A 
ATOM     29  N   UNL     1      -5.839   2.665  25.353  0.00  0.00    -0.227 NA
ENDROOT
BRANCH  11   9
ATOM      8  N   UNL     1      -2.578   2.455  24.681  0.00  0.00    -0.199 NA
ATOM      9  C   UNL     1      -3.190   2.318  24.146  0.00  0.00    +0.257 C 
ATOM     10  O   UNL     1      -3.074   2.459  23.341  0.00  0.00    -0.272 OA
BRANCH   8   7
ATOM      7  C   UNL     1      -1.849   2.734  24.412  0.00  0.00    +0.142 C 
BRANCH   7   6
ATOM      3  C   UNL     1       0.132   2.652  25.893  0.00  0.00    +0.139 A 
ATOM      4  C   UNL     1      -0.511   3.130  26.090  0.00  0.00    +0.037 A 
ATOM      5  C   UNL     1      -1.172   3.157  25.597  0.00  0.00    +0.001 A 
ATOM      6  C   UNL     1      -1.189   2.707  24.905  0.00  0.00    -0.000 A 
ATOM     30  C   UNL     1      -0.546   2.230  24.708  0.00  0.00    +0.001 A 
ATOM     31  C   UNL     1       0.114   2.202  25.202  0.00  0.00    +0.037 A 
BRANCH   3   2
ATOM      1  C   UNL     1       0.695   2.543  27.201  0.00  0.00    +0.252 C 
ATOM      2  O   UNL     1       0.793   2.624  26.386  0.00  0.00    -0.471 OA
ENDBRANCH   3   2
ENDBRANCH   7   6
ENDBRANCH   8   7
ENDBRANCH  11   9
BRANCH  16  17
ATOM     17  C   UNL     1      -3.551   0.711  24.034  0.00  0.00    +0.100 C 
BRANCH  17  18
ATOM     18  C   UNL     1      -3.595  -0.093  24.210  0.00  0.00    -0.006 A 
ATOM     19  C   UNL     1      -4.016  -0.601  23.715  0.00  0.00    -0.003 A 
ATOM     20  C   UNL     1      -4.060  -1.406  23.890  0.00  0.00    +0.006 A 
ATOM     21  C   UNL     1      -3.683  -1.703  24.561  0.00  0.00    +0.080 A 
ATOM     22  C   UNL     1      -3.262  -1.195  25.057  0.00  0.00    +0.006 A 
ATOM     23  C   UNL     1      -3.218  -0.390  24.881  0.00  0.00    -0.003 A 
BRANCH  21  24
ATOM     24  C   UNL     1      -3.728  -2.508  24.737  0.00  0.00    +0.388 C 
ATOM     25  O   UNL     1      -3.520  -2.778  25.487  0.00  0.00    -0.241 OA
ATOM     26  O   UNL     1      -3.980  -3.042  24.161  0.00  0.00    -0.241 OA
ENDBRANCH  21  24
ENDBRANCH  17  18
ENDBRANCH  16  17
TORSDOF 7
ENDMDL
MODEL 2
REMARK VINA RESULT:     -10.2      1.879      3.905
REMARK  Name = 
REMARK  7 active torsions:
REMARK  status: ('A' for Active; 'I' for Inactive)
REMARK    1  A    between atoms: O_2  and  C_3
REMARK    2  A    between atoms: C_6  and  C_7
REMARK    3  A    between atoms: C_7  and  N_8
REMARK    4  A    between atoms: C_9  and  C_11
REMARK    5  A    between atoms: N_16  and  C_17
REMARK    6  A    between atoms: C_17  and  C_18
REMARK    7  A    between atoms: C_21  and  C_24
REMARK                            x       y       z     vdW  Elec       q    Type
REMARK                         _______ _______ _______ _____ _____    ______ ____
ROOT
ATOM     11  C   UNL     1      -0.637   1.223  24.824  0.00  0.00    +0.143 C 
ATOM     12  C   UNL     1       0.006   1.374  24.331  0.00  0.00    +0.072 C 
ATOM     13  C   UNL     1       0.299   0.779  23.839  0.00  0.00    +0.077 A 
ATOM     14  C   UNL     1      -0.052   0.033  23.842  0.00  0.00    +0.090 A 
ATOM     15  C   UNL     1      -0.696  -0.119  24.336  0.00  0.00    +0.121 C 
ATOM     16  N   UNL     1      -0.988   0.476  24.826  0.00  0.00    -0.257 NA
ATOM     27  N   UNL     1       0.353  -0.441  23.302  0.00  0.00    -0.226 NA
ATOM     28  C   UNL     1       0.955   0.012  22.966  0.00  0.00    +0.198 A 
ATOM     29  N   UNL     1       0.921   0.766  23.298  0.00  0.00    -0.227 NA
ENDROOT
BRANCH  11   9
ATOM      8  N   UNL     1      -1.480   2.358  25.024  0.00  0.00    -0.199 NA
ATOM      9  C   UNL     1      -0.929   1.817  25.315  0.00  0.00    +0.257 C 
ATOM     10  O   UNL     1      -0.672   1.871  26.097  0.00  0.00    -0.272 OA
BRANCH   8   7
ATOM      7  C   UNL     1      -1.773   2.954  25.515  0.00  0.00    +0.142 C 
BRANCH   7   6
ATOM      3  C   UNL     1      -4.057   3.838  25.162  0.00  0.00    +0.139 A 
ATOM      4  C   UNL     1      -3.772   3.724  25.929  0.00  0.00    +0.037 A 
ATOM      5  C   UNL     1      -3.011   3.430  26.046  0.00  0.00    +0.001 A 
ATOM      6  C   UNL     1      -2.534   3.248  25.397  0.00  0.00    -0.000 A 
ATOM     30  C   UNL     1      -2.818   3.361  24.632  0.00  0.00    +0.001 A 
ATOM     31  C   UNL     1      -3.580   3.656  24.514  0.00  0.00    +0.037 A 
BRANCH   3   2
ATOM      1  C   UNL     1      -5.460   3.780  25.424  0.00  0.00    +0.252 C 
ATOM      2  O   UNL     1      -4.819   4.132  25.044  0.00  0.00    -0.471 OA
ENDBRANCH   3   2
ENDBRANCH   7   6
ENDBRANCH   8   7
ENDBRANCH  11   9
BRANCH  16  17
ATOM     17  C   UNL     1      -1.631   0.324  25.320  0.00  0.00    +0.100 C 
BRANCH  17  18
ATOM     18  C   UNL     1      -2.121  -0.323  25.172  0.00  0.00    -0.006 A 
ATOM     19  C   UNL     1      -2.749  -0.252  24.641  0.00  0.00    -0.003 A 
ATOM     20  C   UNL     1      -3.239  -0.900  24.493  0.00  0.00    +0.006 A 
ATOM     21  C   UNL     1      -3.101  -1.618  24.876  0.00  0.00    +0.080 A 
ATOM     22  C   UNL     1      -2.473  -1.688  25.406  0.00  0.00    +0.006 A 
ATOM     23  C   UNL     1      -1.983  -1.041  25.554  0.00  0.00    -0.003 A 
BRANCH  21  24
ATOM     24  C   UNL     1      -3.591  -2.265  24.728  0.00  0.00    +0.388 C 
ATOM     25  O   UNL     1      -3.585  -2.911  25.239  0.00  0.00    -0.241 OA
ATOM     26  O   UNL     1      -4.086  -2.264  24.067  0.00  0.00    -0.241 OA
ENDBRANCH  21  24
ENDBRANCH  17  18
ENDBRANCH  16  17
TORSDOF 7
ENDMDL
MODEL 3
REMARK VINA RESULT:     -10.1      0.894      4.470
REMARK  Name = 
REMARK  7 active torsions:
REMARK  status: ('A' for Active; 'I' for Inactive)
REMARK    1  A    between atoms: O_2  and  C_3
REMARK    2  A    between atoms: C_6  and  C_7
REMARK    3  A    between atoms: C_7  and  N_8
REMARK    4  A    between atoms: C_9  and  C_11
REMARK    5  A    between atoms: N_16  and  C_17
REMARK    6  A    between atoms: C_17  and  C_18
REMARK    7  A    between atoms: C_21  and  C_24
REMARK                            x       y       z     vdW  Elec       q    Type
REMARK                         _______ _______ _______ _____ _____    ______ ____
ROOT
ATOM     11  C   UNL     1      -3.713   2.020  24.273  0.00  0.00    +0.143 C 
ATOM     12  C   UNL     1      -4.482   2.212  24.501  0.00  0.00    +0.072 C 
ATOM     13  C   UNL     1      -4.615   2.846  25.012  0.00  0.00    +0.077 A 
ATOM     14  C   UNL     1      -3.979   3.288  25.295  0.00  0.00    +0.090 A 
ATOM     15  C   UNL     1      -3.209   3.096  25.067  0.00  0.00    +0.121 C 
ATOM     16  N   UNL     1      -3.076   2.462  24.556  0.00  0.00    -0.257 NA
ATOM     27  N   UNL     1      -4.277   3.878  25.788  0.00  0.00    -0.226 NA
ATOM     28  C   UNL     1      -5.098   3.801  25.810  0.00  0.00    +0.198 A 
ATOM     29  N   UNL     1      -5.306   3.164  25.330  0.00  0.00    -0.227 NA
ENDROOT
BRANCH  11   9
ATOM      8  N   UNL     1      -3.707   0.614  24.022  0.00  0.00    -0.199 NA
ATOM      9  C   UNL     1      -3.580   1.387  23.762  0.00  0.00    +0.257 C 
ATOM     10  O   UNL     1      -3.320   1.525  22.991  0.00  0.00    -0.272 OA
BRANCH   8   7
ATOM      7  C   UNL     1      -3.574  -0.020  23.511  0.00  0.00    +0.142 C 
BRANCH   7   6
ATOM      3  C   UNL     1      -3.630  -2.339  24.376  0.00  0.00    +0.139 A 
ATOM      4  C   UNL     1      -2.944  -1.886  24.452  0.00  0.00    +0.037 A 
ATOM      5  C   UNL     1      -2.925  -1.113  24.164  0.00  0.00    +0.001 A 
ATOM      6  C   UNL     1      -3.593  -0.793  23.799  0.00  0.00    -0.000 A 
ATOM     30  C   UNL     1      -4.278  -1.245  23.723  0.00  0.00    +0.001 A 
ATOM     31  C   UNL     1      -4.297  -2.018  24.012  0.00  0.00    +0.037 A 
BRANCH   3   2
ATOM      1  C   UNL     1      -3.266  -3.297  25.370  0.00  0.00    +0.252 C 
ATOM      2  O   UNL     1      -3.649  -3.112  24.664  0.00  0.00    -0.471 OA
ENDBRANCH   3   2
ENDBRANCH   7   6
ENDBRANCH   8   7
ENDBRANCH  11   9
BRANCH  16  17
ATOM     17  C   UNL     1      -2.307   2.271  24.328  0.00  0.00    +0.100 C 
BRANCH  17  18
ATOM     18  C   UNL     1      -1.685   2.353  24.865  0.00  0.00    -0.006 A 
ATOM     19  C   UNL     1      -1.268   3.063  24.906  0.00  0.00    -0.003 A 
ATOM     20  C   UNL     1      -0.646   3.145  25.442  0.00  0.00    +0.006 A 
ATOM     21  C   UNL     1      -0.442   2.517  25.937  0.00  0.00    +0.080 A 
ATOM     22  C   UNL     1      -0.860   1.806  25.895  0.00  0.00    +0.006 A 
ATOM     23  C   UNL     1      -1.482   1.724  25.359  0.00  0.00    -0.003 A 
BRANCH  21  24
ATOM     24  C   UNL     1       0.180   2.599  26.473  0.00  0.00    +0.388 C 
ATOM     25  O   UNL     1       0.948   2.719  26.198  0.00  0.00    -0.241 OA
ATOM     26  O   UNL     1       0.032   2.560  27.284  0.00  0.00    -0.241 OA
ENDBRANCH  21  24
ENDBRANCH  17  18
ENDBRANCH  16  17
TORSDOF 7
ENDMDL
MODEL 4
REMARK VINA RESULT:     -10.1      2.325      5.916
REMARK  Name = 
REMARK  7 active torsions:
REMARK  status: ('A' for Active; 'I' for Inactive)
REMARK    1  A    between atoms: O_2  and  C_3
REMARK    2  A    between atoms: C_6  and  C_7
REMARK    3  A    between atoms: C_7  and  N_8
REMARK    4  A    between atoms: C_9  and  C_11
REMARK    5  A    between atoms: N_16  and  C_17
REMARK    6  A    between atoms: C_17  and  C_18
REMARK    7  A    between atoms: C_21  and  C_24
REMARK                            x       y       z     vdW  Elec       q    Type
REMARK                         _______ _______ _______ _____ _____    ______ ____
ROOT
ATOM     11  C   UNL     1      -0.686   0.143  24.775  0.00  0.00    +0.143 C 
ATOM     12  C   UNL     1      -0.220  -0.285  24.247  0.00  0.00    +0.072 C 
ATOM     13  C   UNL     1       0.362   0.098  23.804  0.00  0.00    +0.077 A 
ATOM     14  C   UNL     1       0.477   0.910  23.891  0.00  0.00    +0.090 A 
ATOM     15  C   UNL     1       0.010   1.340  24.420  0.00  0.00    +0.121 C 
ATOM     16  N   UNL     1      -0.571   0.955  24.861  0.00  0.00    -0.257 NA
ATOM     27  N   UNL     1       1.088   1.137  23.385  0.00  0.00    -0.226 NA
ATOM     28  C   UNL     1       1.350   0.465  22.986  0.00  0.00    +0.198 A 
ATOM     29  N   UNL     1       0.902  -0.177  23.245  0.00  0.00    -0.227 NA
ENDROOT
BRANCH  11   9
ATOM      8  N   UNL     1      -1.926  -0.562  24.839  0.00  0.00    -0.199 NA
ATOM      9  C   UNL     1      -1.267  -0.240  25.216  0.00  0.00    +0.257 C 
ATOM     10  O   UNL     1      -1.190  -0.302  26.036  0.00  0.00    -0.272 OA
BRANCH   8   7
ATOM      7  C   UNL     1      -2.508  -0.946  25.281  0.00  0.00    +0.142 C 
BRANCH   7   6
ATOM      3  C   UNL     1      -4.238  -2.300  24.141  0.00  0.00    +0.139 A 
ATOM      4  C   UNL     1      -3.655  -2.671  24.592  0.00  0.00    +0.037 A 
ATOM      5  C   UNL     1      -3.078  -2.220  24.973  0.00  0.00    +0.001 A 
ATOM      6  C   UNL     1      -3.085  -1.397  24.901  0.00  0.00    -0.000 A 
ATOM     30  C   UNL     1      -3.667  -1.027  24.450  0.00  0.00    +0.001 A 
ATOM     31  C   UNL     1      -4.243  -1.478  24.070  0.00  0.00    +0.037 A 
BRANCH   3   2
ATOM      1  C   UNL     1      -4.622  -3.180  23.083  0.00  0.00    +0.252 C 
ATOM      2  O   UNL     1      -4.814  -2.751  23.760  0.00  0.00    -0.471 OA
ENDBRANCH   3   2
ENDBRANCH   7   6
ENDBRANCH   8   7
ENDBRANCH  11   9
BRANCH  16  17
ATOM     17  C   UNL     1      -1.037   1.385  25.389  0.00  0.00    +0.100 C 
BRANCH  17  18
ATOM     18  C   UNL     1      -1.080   2.206  25.329  0.00  0.00    -0.006 A 
ATOM     19  C   UNL     1      -1.626   2.553  24.817  0.00  0.00    -0.003 A 
ATOM     20  C   UNL     1      -1.669   3.375  24.756  0.00  0.00    +0.006 A 
ATOM     21  C   UNL     1      -1.167   3.849  25.207  0.00  0.00    +0.080 A 
ATOM     22  C   UNL     1      -0.621   3.501  25.719  0.00  0.00    +0.006 A 
ATOM     23  C   UNL     1      -0.577   2.680  25.780  0.00  0.00    -0.003 A 
BRANCH  21  24
ATOM     24  C   UNL     1      -1.211   4.671  25.146  0.00  0.00    +0.388 C 
ATOM     25  O   UNL     1      -0.612   5.088  24.763  0.00  0.00    -0.241 OA
ATOM     26  O   UNL     1      -1.854   5.075  25.469  0.00  0.00    -0.241 OA
ENDBRANCH  21  24
ENDBRANCH  17  18
ENDBRANCH  16  17
TORSDOF 7
ENDMDL
MODEL 5
REMARK VINA RESULT:      -9.3      2.376      3.910
REMARK  Name = 
REMARK  7 active torsions:
REMARK  status: ('A' for Active; 'I' for Inactive)
REMARK    1  A    between atoms: O_2  and  C_3
REMARK    2  A    between atoms: C_6  and  C_7
REMARK    3  A    between atoms: C_7  and  N_8
REMARK    4  A    between atoms: C_9  and  C_11
REMARK    5  A    between atoms: N_16  and  C_17
REMARK    6  A    between atoms: C_17  and  C_18
REMARK    7  A    between atoms: C_21  and  C_24
REMARK                            x       y       z     vdW  Elec       q    Type
REMARK                         _______ _______ _______ _____ _____    ______ ____
ROOT
ATOM     11  C   UNL     1      -2.566  -0.915  24.685  0.00  0.00    +0.143 C 
ATOM     12  C   UNL     1      -2.634  -1.725  24.547  0.00  0.00    +0.072 C 
ATOM     13  C   UNL     1      -3.351  -2.041  24.286  0.00  0.00    +0.077 A 
ATOM     14  C   UNL     1      -3.999  -1.546  24.164  0.00  0.00    +0.090 A 
ATOM     15  C   UNL     1      -3.932  -0.735  24.303  0.00  0.00    +0.121 C 
ATOM     16  N   UNL     1      -3.215  -0.420  24.563  0.00  0.00    -0.257 NA
ATOM     27  N   UNL     1      -4.630  -2.011  23.908  0.00  0.00    -0.226 NA
ATOM     28  C   UNL     1      -4.372  -2.793  23.871  0.00  0.00    +0.198 A 
ATOM     29  N   UNL     1      -3.581  -2.811  24.105  0.00  0.00    -0.227 NA
ENDROOT
BRANCH  11   9
ATOM      8  N   UNL     1      -1.256  -0.423  24.402  0.00  0.00    -0.199 NA
ATOM      9  C   UNL     1      -1.851  -0.599  24.946  0.00  0.00    +0.257 C 
ATOM     10  O   UNL     1      -1.728  -0.460  25.750  0.00  0.00    -0.272 OA
BRANCH   8   7
ATOM      7  C   UNL     1      -0.539  -0.107  24.662  0.00  0.00    +0.142 C 
BRANCH   7   6
ATOM      3  C   UNL     1       1.278   0.340  23.043  0.00  0.00    +0.139 A 
ATOM      4  C   UNL     1       0.975   0.955  23.502  0.00  0.00    +0.037 A 
ATOM      5  C   UNL     1       0.369   0.806  24.042  0.00  0.00    +0.001 A 
ATOM      6  C   UNL     1       0.067   0.042  24.123  0.00  0.00    -0.000 A 
ATOM     30  C   UNL     1       0.370  -0.572  23.664  0.00  0.00    +0.001 A 
ATOM     31  C   UNL     1       0.975  -0.423  23.124  0.00  0.00    +0.037 A 
BRANCH   3   2
ATOM      1  C   UNL     1       2.633   0.168  22.626  0.00  0.00    +0.252 C 
ATOM      2  O   UNL     1       1.884   0.488  22.503  0.00  0.00    -0.471 OA
ENDBRANCH   3   2
ENDBRANCH   7   6
ENDBRANCH   8   7
ENDBRANCH  11   9
BRANCH  16  17
ATOM     17  C   UNL     1      -3.148   0.390  24.702  0.00  0.00    +0.100 C 
BRANCH  17  18
ATOM     18  C   UNL     1      -3.826   0.854  24.779  0.00  0.00    -0.006 A 
ATOM     19  C   UNL     1      -4.307   0.773  25.444  0.00  0.00    -0.003 A 
ATOM     20  C   UNL     1      -4.985   1.236  25.521  0.00  0.00    +0.006 A 
ATOM     21  C   UNL     1      -5.183   1.781  24.933  0.00  0.00    +0.080 A 
ATOM     22  C   UNL     1      -4.701   1.861  24.268  0.00  0.00    +0.006 A 
ATOM     23  C   UNL     1      -4.023   1.398  24.190  0.00  0.00    -0.003 A 
BRANCH  21  24
ATOM     24  C   UNL     1      -5.861   2.244  25.011  0.00  0.00    +0.388 C 
ATOM     25  O   UNL     1      -6.596   1.937  24.799  0.00  0.00    -0.241 OA
ATOM     26  O   UNL     1      -5.802   3.015  25.300  0.00  0.00    -0.241 OA
ENDBRANCH  21  24
ENDBRANCH  17  18
ENDBRANCH  16  17
TORSDOF 7
ENDMDL
MODEL 6
REMARK VINA RESULT:      -9.3      1.833      4.231
REMARK  Name = 
REMARK  7 active torsions:
REMARK  status: ('A' for Active; 'I' for Inactive)
REMARK    1  A    between atoms: O_2  and  C_3
REMARK    2  A    between atoms: C_6  and  C_7
REMARK    3  A    between atoms: C_7  and  N_8
REMARK    4  A    between atoms: C_9  and  C_11
REMARK    5  A    between atoms: N_16  and  C_17
REMARK    6  A    between atoms: C_17  and  C_18
REMARK    7  A    between atoms: C_21  and  C_24
REMARK                            x       y       z     vdW  Elec       q    Type
REMARK                         _______ _______ _______ _____ _____    ______ ____
ROOT
ATOM     11  C   UNL     1      -1.589   2.386  24.753  0.00  0.00    +0.143 C 
ATOM     12  C   UNL     1      -1.275   3.012  25.187  0.00  0.00    +0.072 C 
ATOM     13  C   UNL     1      -0.576   2.909  25.614  0.00  0.00    +0.077 A 
ATOM     14  C   UNL     1      -0.192   2.179  25.606  0.00  0.00    +0.090 A 
ATOM     15  C   UNL     1      -0.507   1.552  25.171  0.00  0.00    +0.121 C 
ATOM     16  N   UNL     1      -1.205   1.656  24.745  0.00  0.00    -0.257 NA
ATOM     27  N   UNL     1       0.483   2.240  26.076  0.00  0.00    -0.226 NA
ATOM     28  C   UNL     1       0.516   3.008  26.374  0.00  0.00    +0.198 A 
ATOM     29  N   UNL     1      -0.138   3.421  26.089  0.00  0.00    -0.227 NA
ENDROOT
BRANCH  11   9
ATOM      8  N   UNL     1      -3.010   2.527  24.723  0.00  0.00    -0.199 NA
ATOM      9  C   UNL     1      -2.287   2.489  24.327  0.00  0.00    +0.257 C 
ATOM     10  O   UNL     1      -2.264   2.554  23.504  0.00  0.00    -0.272 OA
BRANCH   8   7
ATOM      7  C   UNL     1      -3.710   2.630  24.296  0.00  0.00    +0.142 C 
BRANCH   7   6
ATOM      3  C   UNL     1      -5.895   2.231  25.387  0.00  0.00    +0.139 A 
ATOM      4  C   UNL     1      -5.493   2.941  25.515  0.00  0.00    +0.037 A 
ATOM      5  C   UNL     1      -4.765   3.074  25.151  0.00  0.00    +0.001 A 
ATOM      6  C   UNL     1      -4.438   2.497  24.660  0.00  0.00    -0.000 A 
ATOM     30  C   UNL     1      -4.839   1.788  24.531  0.00  0.00    +0.001 A 
ATOM     31  C   UNL     1      -5.568   1.655  24.895  0.00  0.00    +0.037 A 
BRANCH   3   2
ATOM      1  C   UNL     1      -6.652   1.800  26.519  0.00  0.00    +0.252 C 
ATOM      2  O   UNL     1      -6.624   2.098  25.750  0.00  0.00    -0.471 OA
ENDBRANCH   3   2
ENDBRANCH   7   6
ENDBRANCH   8   7
ENDBRANCH  11   9
BRANCH  16  17
ATOM     17  C   UNL     1      -1.519   1.029  24.311  0.00  0.00    +0.100 C 
BRANCH  17  18
ATOM     18  C   UNL     1      -1.330   0.251  24.511  0.00  0.00    -0.006 A 
ATOM     19  C   UNL     1      -0.710  -0.134  24.127  0.00  0.00    -0.003 A 
ATOM     20  C   UNL     1      -0.520  -0.911  24.328  0.00  0.00    +0.006 A 
ATOM     21  C   UNL     1      -0.950  -1.304  24.913  0.00  0.00    +0.080 A 
ATOM     22  C   UNL     1      -1.571  -0.918  25.297  0.00  0.00    +0.006 A 
ATOM     23  C   UNL     1      -1.760  -0.140  25.096  0.00  0.00    -0.003 A 
BRANCH  21  24
ATOM     24  C   UNL     1      -0.760  -2.081  25.113  0.00  0.00    +0.388 C 
ATOM     25  O   UNL     1      -1.256  -2.699  24.883  0.00  0.00    -0.241 OA
ATOM     26  O   UNL     1      -0.074  -2.240  25.544  0.00  0.00    -0.241 OA
ENDBRANCH  21  24
ENDBRANCH  17  18
ENDBRANCH  16  17
TORSDOF 7
ENDMDL
MODEL 7
REMARK VINA RESULT:      -9.1      1.598      4.864
REMARK  Name = 
REMARK  7 active torsions:
REMARK  status: ('A' for Active; 'I' for Inactive)
REMARK    1  A    between atoms: O_2  and  C_3
REMARK    2  A    between atoms: C_6  and  C_7
REMARK    3  A    between atoms: C_7  and  N_8
REMARK    4  A    between atoms: C_9  and  C_11
REMARK    5  A    between atoms: N_16  and  C_17
REMARK    6  A    between atoms: C_17  and  C_18
REMARK    7  A    between atoms: C_21  and  C_24
REMARK                            x       y       z     vdW  Elec       q    Type
REMARK                         _______ _______ _______ _____ _____    ______ ____
ROOT
ATOM     11  C   UNL     1      -1.775   1.718  24.398  0.00  0.00    +0.143 C 
ATOM     12  C   UNL     1      -1.036   1.720  24.763  0.00  0.00    +0.072 C 
ATOM     13  C   UNL     1      -0.822   2.343  25.260  0.00  0.00    +0.077 A 
ATOM     14  C   UNL     1      -1.348   2.964  25.391  0.00  0.00    +0.090 A 
ATOM     15  C   UNL     1      -2.088   2.963  25.025  0.00  0.00    +0.121 C 
ATOM     16  N   UNL     1      -2.301   2.340  24.529  0.00  0.00    -0.257 NA
ATOM     27  N   UNL     1      -0.987   3.499  25.905  0.00  0.00    -0.226 NA
ATOM     28  C   UNL     1      -0.239   3.208  26.091  0.00  0.00    +0.198 A 
ATOM     29  N   UNL     1      -0.137   2.494  25.693  0.00  0.00    -0.227 NA
ENDROOT
BRANCH  11   9
ATOM      8  N   UNL     1      -2.213   0.370  24.223  0.00  0.00    -0.199 NA
ATOM      9  C   UNL     1      -1.988   1.096  23.901  0.00  0.00    +0.257 C 
ATOM     10  O   UNL     1      -1.978   1.197  23.082  0.00  0.00    -0.272 OA
BRANCH   8   7
ATOM      7  C   UNL     1      -2.427  -0.254  23.726  0.00  0.00    +0.142 C 
BRANCH   7   6
ATOM      3  C   UNL     1      -3.370  -2.332  24.684  0.00  0.00    +0.139 A 
ATOM      4  C   UNL     1      -2.560  -2.182  24.740  0.00  0.00    +0.037 A 
ATOM      5  C   UNL     1      -2.245  -1.490  24.420  0.00  0.00    +0.001 A 
ATOM      6  C   UNL     1      -2.741  -0.947  24.046  0.00  0.00    -0.000 A 
ATOM     30  C   UNL     1      -3.550  -1.096  23.990  0.00  0.00    +0.001 A 
ATOM     31  C   UNL     1      -3.864  -1.789  24.309  0.00  0.00    +0.037 A 
BRANCH   3   2
ATOM      1  C   UNL     1      -3.801  -3.684  24.523  0.00  0.00    +0.252 C 
ATOM      2  O   UNL     1      -3.684  -3.025  25.004  0.00  0.00    -0.471 OA
ENDBRANCH   3   2
ENDBRANCH   7   6
ENDBRANCH   8   7
ENDBRANCH  11   9
BRANCH  16  17
ATOM     17  C   UNL     1      -3.040   2.339  24.164  0.00  0.00    +0.100 C 
BRANCH  17  18
ATOM     18  C   UNL     1      -3.694   2.658  24.553  0.00  0.00    -0.006 A 
ATOM     19  C   UNL     1      -3.936   3.429  24.391  0.00  0.00    -0.003 A 
ATOM     20  C   UNL     1      -4.589   3.747  24.780  0.00  0.00    +0.006 A 
ATOM     21  C   UNL     1      -5.001   3.295  25.333  0.00  0.00    +0.080 A 
ATOM     22  C   UNL     1      -4.759   2.522  25.496  0.00  0.00    +0.006 A 
ATOM     23  C   UNL     1      -4.105   2.204  25.106  0.00  0.00    -0.003 A 
BRANCH  21  24
ATOM     24  C   UNL     1      -5.655   3.613  25.723  0.00  0.00    +0.388 C 
ATOM     25  O   UNL     1      -6.132   3.130  26.190  0.00  0.00    -0.241 OA
ATOM     26  O   UNL     1      -5.830   4.416  25.645  0.00  0.00    -0.241 OA
ENDBRANCH  21  24
ENDBRANCH  17  18
ENDBRANCH  16  17
TORSDOF 7
ENDMDL
MODEL 8
REMARK VINA RESULT:      -9.1      3.420      5.385
REMARK  Name = 
REMARK  7 active torsions:
REMARK  status: ('A' for Active; 'I' for Inactive)
REMARK    1  A    between atoms: O_2  and  C_3
REMARK    2  A    between atoms: C_6  and  C_7
REMARK    3  A    between atoms: C_7  and  N_8
REMARK    4  A    between atoms: C_9  and  C_11
REMARK    5  A    between atoms: N_16  and  C_17
REMARK    6  A    between atoms: C_17  and  C_18
REMARK    7  A    between atoms: C_21  and  C_24
REMARK                            x       y       z     vdW  Elec       q    Type
REMARK                         _______ _______ _______ _____ _____    ______ ____
ROOT
ATOM     11  C   UNL     1       0.114  -0.001  23.859  0.00  0.00    +0.143 C 
ATOM     12  C   UNL     1      -0.059  -0.765  24.116  0.00  0.00    +0.072 C 
ATOM     13  C   UNL     1      -0.562  -0.880  24.760  0.00  0.00    +0.077 A 
ATOM     14  C   UNL     1      -0.891  -0.230  25.148  0.00  0.00    +0.090 A 
ATOM     15  C   UNL     1      -0.717   0.535  24.891  0.00  0.00    +0.121 C 
ATOM     16  N   UNL     1      -0.214   0.649  24.247  0.00  0.00    -0.257 NA
ATOM     27  N   UNL     1      -1.364  -0.512  25.762  0.00  0.00    -0.226 NA
ATOM     28  C   UNL     1      -1.327  -1.335  25.754  0.00  0.00    +0.198 A 
ATOM     29  N   UNL     1      -0.832  -1.562  25.135  0.00  0.00    -0.227 NA
ENDROOT
BRANCH  11   9
ATOM      8  N   UNL     1       1.434   0.080  23.320  0.00  0.00    -0.199 NA
ATOM      9  C   UNL     1       0.617   0.114  23.216  0.00  0.00    +0.257 C 
ATOM     10  O   UNL     1       0.302   0.263  22.468  0.00  0.00    -0.272 OA
BRANCH   8   7
ATOM      7  C   UNL     1       1.938   0.195  22.675  0.00  0.00    +0.142 C 
BRANCH   7   6
ATOM      3  C   UNL     1       4.386   0.298  23.020  0.00  0.00    +0.139 A 
ATOM      4  C   UNL     1       3.985  -0.416  23.122  0.00  0.00    +0.037 A 
ATOM      5  C   UNL     1       3.169  -0.450  23.007  0.00  0.00    +0.001 A 
ATOM      6  C   UNL     1       2.754   0.229  22.790  0.00  0.00    -0.000 A 
ATOM     30  C   UNL     1       3.155   0.943  22.688  0.00  0.00    +0.001 A 
ATOM     31  C   UNL     1       3.971   0.977  22.803  0.00  0.00    +0.037 A 
BRANCH   3   2
ATOM      1  C   UNL     1       5.524   0.135  23.868  0.00  0.00    +0.252 C 
ATOM      2  O   UNL     1       5.203   0.333  23.135  0.00  0.00    -0.471 OA
ENDBRANCH   3   2
ENDBRANCH   7   6
ENDBRANCH   8   7
ENDBRANCH  11   9
BRANCH  16  17
ATOM     17  C   UNL     1      -0.041   1.414  23.991  0.00  0.00    +0.100 C 
BRANCH  17  18
ATOM     18  C   UNL     1      -0.403   2.062  24.351  0.00  0.00    -0.006 A 
ATOM     19  C   UNL     1      -1.109   2.361  24.048  0.00  0.00    -0.003 A 
ATOM     20  C   UNL     1      -1.471   3.009  24.407  0.00  0.00    +0.006 A 
ATOM     21  C   UNL     1      -1.127   3.358  25.071  0.00  0.00    +0.080 A 
ATOM     22  C   UNL     1      -0.419   3.059  25.374  0.00  0.00    +0.006 A 
ATOM     23  C   UNL     1      -0.058   2.411  25.014  0.00  0.00    -0.003 A 
BRANCH  21  24
ATOM     24  C   UNL     1      -1.489   4.007  25.430  0.00  0.00    +0.388 C 
ATOM     25  O   UNL     1      -1.253   4.772  25.234  0.00  0.00    -0.241 OA
ATOM     26  O   UNL     1      -2.086   3.888  25.987  0.00  0.00    -0.241 OA
ENDBRANCH  21  24
ENDBRANCH  17  18
ENDBRANCH  16  17
TORSDOF 7
ENDMDL
