MODEL 1
REMARK VINA RESULT:     -10.5      0.000      0.000
REMARK  Name = 
REMARK  4 active torsions:
REMARK  status: ('A' for Active; 'I' for Inactive)
REMARK    1  A    between atoms: O_2  and  C_3
REMARK    2  A    between atoms: C_8  and  C_10
REMARK    3  A    between atoms: N_17  and  C_18
REMARK    4  A    between atoms: C_22  and  O_23
REMARK                            x       y       z     vdW  Elec       q    Type
REMARK                         _______ _______ _______ _____ _____    ______ ____
ROOT
ATOM     10  C   UNL     1      -4.379   0.869  24.761  0.00  0.00    +0.080 C 
ATOM     11  C   UNL     1      -5.127   1.215  24.719  0.00  0.00    +0.031 C 
ATOM     12  C   UNL     1      -5.044   2.024  24.862  0.00  0.00    +0.096 C 
ATOM     13  N   UNL     1      -4.244   2.177  24.992  0.00  0.00    -0.262 N 
ATOM     14  C   UNL     1      -3.833   1.464  24.929  0.00  0.00    +0.103 C 
ATOM     15  C   UNL     1      -3.912   2.915  25.155  0.00  0.00    +0.327 C 
ATOM     16  O   UNL     1      -4.393   3.583  25.201  0.00  0.00    -0.250 OA
ATOM     17  N   UNL     1      -3.098   2.984  25.273  0.00  0.00    -0.162 NA
ENDROOT
BRANCH  10   8
ATOM      3  C   UNL     1      -3.344  -2.518  24.580  0.00  0.00    +0.140 A 
ATOM      4  C   UNL     1      -3.191  -1.799  24.952  0.00  0.00    +0.058 A 
ATOM      5  C   UNL     1      -3.641  -1.133  24.766  0.00  0.00    +0.103 A 
ATOM      6  C   UNL     1      -4.247  -1.188  24.209  0.00  0.00    +0.100 A 
ATOM      7  N   UNL     1      -4.597  -0.445  24.139  0.00  0.00    -0.229 NA
ATOM      8  C   UNL     1      -4.208   0.070  24.653  0.00  0.00    +0.140 A 
ATOM      9  N   UNL     1      -3.618  -0.356  25.041  0.00  0.00    -0.229 NA
ATOM     26  C   UNL     1      -4.401  -1.908  23.836  0.00  0.00    +0.024 A 
ATOM     27  C   UNL     1      -3.950  -2.573  24.022  0.00  0.00    +0.039 A 
BRANCH   3   2
ATOM      1  C   UNL     1      -2.104  -3.226  24.530  0.00  0.00    +0.252 C 
ATOM      2  O   UNL     1      -2.894  -3.183  24.765  0.00  0.00    -0.471 OA
ENDBRANCH   3   2
ENDBRANCH  10   8
BRANCH  17  18
ATOM     18  C   UNL     1      -2.766   3.722  25.437  0.00  0.00    +0.078 A 
ATOM     19  C   UNL     1      -3.072   4.185  26.048  0.00  0.00    +0.017 A 
ATOM     20  C   UNL     1      -2.740   4.923  26.212  0.00  0.00    +0.004 A 
ATOM     21  C   UNL     1      -2.103   5.197  25.763  0.00  0.00    +0.037 A 
ATOM     22  C   UNL     1      -1.799   4.734  25.153  0.00  0.00    +0.140 A 
ATOM     25  C   UNL     1      -2.130   3.996  24.990  0.00  0.00    +0.054 A 
BRANCH  22  23
ATOM     23  O   UNL     1      -1.162   5.009  24.706  0.00  0.00    -0.471 OA
ATOM     24  C   UNL     1      -0.457   4.580  24.684  0.00  0.00    +0.252 C 
ENDBRANCH  22  23
ENDBRANCH  17  18
TORSDOF 4
ENDMDL
MODEL 2
REMARK VINA RESULT:     -10.5      0.928      5.738
REMARK  Name = 
REMARK  4 active torsions:
REMARK  status: ('A' for Active; 'I' for Inactive)
REMARK    1  A    between atoms: O_2  and  C_3
REMARK    2  A    between atoms: C_8  and  C_10
REMARK    3  A    between atoms: N_17  and  C_18
REMARK    4  A    between atoms: C_22  and  O_23
REMARK                            x       y       z     vdW  Elec       q    Type
REMARK                         _______ _______ _______ _____ _____    ______ ____
ROOT
ATOM     10  C   UNL     1      -3.813   2.252  25.028  0.00  0.00    +0.080 C 
ATOM     11  C   UNL     1      -4.628   2.277  25.151  0.00  0.00    +0.031 C 
ATOM     12  C   UNL     1      -4.926   1.515  25.047  0.00  0.00    +0.096 C 
ATOM     13  N   UNL     1      -4.295   1.018  24.859  0.00  0.00    -0.262 N 
ATOM     14  C   UNL     1      -3.607   1.474  24.847  0.00  0.00    +0.103 C 
ATOM     15  C   UNL     1      -4.342   0.209  24.709  0.00  0.00    +0.327 C 
ATOM     16  O   UNL     1      -5.071  -0.175  24.741  0.00  0.00    -0.250 OA
ATOM     17  N   UNL     1      -3.659  -0.218  24.527  0.00  0.00    -0.162 NA
ENDROOT
BRANCH  10   8
ATOM      3  C   UNL     1      -1.299   4.753  25.082  0.00  0.00    +0.140 A 
ATOM      4  C   UNL     1      -1.443   3.966  24.887  0.00  0.00    +0.058 A 
ATOM      5  C   UNL     1      -2.195   3.644  24.998  0.00  0.00    +0.103 A 
ATOM      6  C   UNL     1      -2.802   4.111  25.303  0.00  0.00    +0.100 A 
ATOM      7  N   UNL     1      -3.482   3.647  25.352  0.00  0.00    -0.229 NA
ATOM      8  C   UNL     1      -3.296   2.893  25.076  0.00  0.00    +0.140 A 
ATOM      9  N   UNL     1      -2.500   2.891  24.857  0.00  0.00    -0.229 NA
ATOM     26  C   UNL     1      -2.658   4.901  25.499  0.00  0.00    +0.024 A 
ATOM     27  C   UNL     1      -1.906   5.221  25.388  0.00  0.00    +0.039 A 
BRANCH   3   2
ATOM      1  C   UNL     1      -0.211   5.089  24.218  0.00  0.00    +0.252 C 
ATOM      2  O   UNL     1      -0.547   5.074  24.971  0.00  0.00    -0.471 OA
ENDBRANCH   3   2
ENDBRANCH  10   8
BRANCH  17  18
ATOM     18  C   UNL     1      -3.707  -1.029  24.377  0.00  0.00    +0.078 A 
ATOM     19  C   UNL     1      -4.302  -1.323  23.888  0.00  0.00    +0.017 A 
ATOM     20  C   UNL     1      -4.350  -2.133  23.738  0.00  0.00    +0.004 A 
ATOM     21  C   UNL     1      -3.802  -2.648  24.078  0.00  0.00    +0.037 A 
ATOM     22  C   UNL     1      -3.207  -2.353  24.567  0.00  0.00    +0.140 A 
ATOM     25  C   UNL     1      -3.160  -1.543  24.717  0.00  0.00    +0.054 A 
BRANCH  22  23
ATOM     23  O   UNL     1      -2.660  -2.869  24.907  0.00  0.00    -0.471 OA
ATOM     24  C   UNL     1      -1.899  -2.928  24.594  0.00  0.00    +0.252 C 
ENDBRANCH  22  23
ENDBRANCH  17  18
TORSDOF 4
ENDMDL
MODEL 3
REMARK VINA RESULT:      -9.5      3.419      5.120
REMARK  Name = 
REMARK  4 active torsions:
REMARK  status: ('A' for Active; 'I' for Inactive)
REMARK    1  A    between atoms: O_2  and  C_3
REMARK    2  A    between atoms: C_8  and  C_10
REMARK    3  A    between atoms: N_17  and  C_18
REMARK    4  A    between atoms: C_22  and  O_23
REMARK                            x       y       z     vdW  Elec       q    Type
REMARK                         _______ _______ _______ _____ _____    ______ ____
ROOT
ATOM     10  C   UNL     1      -1.964   0.209  24.748  0.00  0.00    +0.080 C 
ATOM     11  C   UNL     1      -1.782  -0.446  25.215  0.00  0.00    +0.031 C 
ATOM     12  C   UNL     1      -1.034  -0.717  24.996  0.00  0.00    +0.096 C 
ATOM     13  N   UNL     1      -0.753  -0.228  24.394  0.00  0.00    -0.262 N 
ATOM     14  C   UNL     1      -1.329   0.344  24.240  0.00  0.00    +0.103 C 
ATOM     15  C   UNL     1      -0.026  -0.298  24.011  0.00  0.00    +0.327 C 
ATOM     16  O   UNL     1       0.496  -0.901  24.224  0.00  0.00    -0.250 OA
ATOM     17  N   UNL     1       0.181   0.234  23.415  0.00  0.00    -0.162 NA
ENDROOT
BRANCH  10   8
ATOM      3  C   UNL     1      -4.713   2.444  24.924  0.00  0.00    +0.140 A 
ATOM      4  C   UNL     1      -3.890   2.407  24.922  0.00  0.00    +0.058 A 
ATOM      5  C   UNL     1      -3.508   1.678  24.864  0.00  0.00    +0.103 A 
ATOM      6  C   UNL     1      -3.952   0.984  24.807  0.00  0.00    +0.100 A 
ATOM      7  N   UNL     1      -3.427   0.350  24.757  0.00  0.00    -0.229 NA
ATOM      8  C   UNL     1      -2.660   0.651  24.783  0.00  0.00    +0.140 A 
ATOM      9  N   UNL     1      -2.710   1.471  24.849  0.00  0.00    -0.229 NA
ATOM     26  C   UNL     1      -4.776   1.020  24.809  0.00  0.00    +0.024 A 
ATOM     27  C   UNL     1      -5.157   1.750  24.867  0.00  0.00    +0.039 A 
BRANCH   3   2
ATOM      1  C   UNL     1      -5.512   3.367  25.666  0.00  0.00    +0.252 C 
ATOM      2  O   UNL     1      -5.094   3.172  24.982  0.00  0.00    -0.471 OA
ENDBRANCH   3   2
ENDBRANCH  10   8
BRANCH  17  18
ATOM     18  C   UNL     1       0.909   0.163  23.033  0.00  0.00    +0.078 A 
ATOM     19  C   UNL     1       0.988  -0.344  22.388  0.00  0.00    +0.017 A 
ATOM     20  C   UNL     1       1.716  -0.415  22.006  0.00  0.00    +0.004 A 
ATOM     21  C   UNL     1       2.364   0.023  22.270  0.00  0.00    +0.037 A 
ATOM     22  C   UNL     1       2.284   0.530  22.914  0.00  0.00    +0.140 A 
ATOM     25  C   UNL     1       1.556   0.601  23.297  0.00  0.00    +0.054 A 
BRANCH  22  23
ATOM     23  O   UNL     1       2.933   0.968  23.178  0.00  0.00    -0.471 OA
ATOM     24  C   UNL     1       3.673   0.860  22.829  0.00  0.00    +0.252 C 
ENDBRANCH  22  23
ENDBRANCH  17  18
TORSDOF 4
ENDMDL
MODEL 4
REMARK VINA RESULT:      -9.5      3.053      4.363
REMARK  Name = 
REMARK  4 active torsions:
REMARK  status: ('A' for Active; 'I' for Inactive)
REMARK    1  A    between atoms: O_2  and  C_3
REMARK    2  A    between atoms: C_8  and  C_10
REMARK    3  A    between atoms: N_17  and  C_18
REMARK    4  A    between atoms: C_22  and  O_23
REMARK                            x       y       z     vdW  Elec       q    Type
REMARK                         _______ _______ _______ _____ _____    ______ ____
ROOT
ATOM     10  C   UNL     1      -1.690  -0.036  24.644  0.00  0.00    +0.080 C 
ATOM     11  C   UNL     1      -1.913  -0.714  25.057  0.00  0.00    +0.031 C 
ATOM     12  C   UNL     1      -2.694  -0.618  25.305  0.00  0.00    +0.096 C 
ATOM     13  N   UNL     1      -2.954   0.121  25.046  0.00  0.00    -0.262 N 
ATOM     14  C   UNL     1      -2.334   0.480  24.638  0.00  0.00    +0.103 C 
ATOM     15  C   UNL     1      -3.702   0.443  25.172  0.00  0.00    +0.327 C 
ATOM     16  O   UNL     1      -4.270   0.017  25.593  0.00  0.00    -0.250 OA
ATOM     17  N   UNL     1      -3.884   1.193  24.878  0.00  0.00    -0.162 NA
ENDROOT
BRANCH  10   8
ATOM      3  C   UNL     1       1.443   0.181  22.995  0.00  0.00    +0.140 A 
ATOM      4  C   UNL     1       0.793  -0.311  23.119  0.00  0.00    +0.058 A 
ATOM      5  C   UNL     1       0.167  -0.058  23.593  0.00  0.00    +0.103 A 
ATOM      6  C   UNL     1       0.191   0.688  23.944  0.00  0.00    +0.100 A 
ATOM      7  N   UNL     1      -0.501   0.787  24.380  0.00  0.00    -0.229 NA
ATOM      8  C   UNL     1      -0.954   0.103  24.299  0.00  0.00    +0.140 A 
ATOM      9  N   UNL     1      -0.540  -0.419  23.813  0.00  0.00    -0.229 NA
ATOM     26  C   UNL     1       0.842   1.181  23.821  0.00  0.00    +0.024 A 
ATOM     27  C   UNL     1       1.467   0.927  23.346  0.00  0.00    +0.039 A 
BRANCH   3   2
ATOM      1  C   UNL     1       2.809   0.286  22.589  0.00  0.00    +0.252 C 
ATOM      2  O   UNL     1       2.068  -0.072  22.522  0.00  0.00    -0.471 OA
ENDBRANCH   3   2
ENDBRANCH  10   8
BRANCH  17  18
ATOM     18  C   UNL     1      -4.634   1.515  25.005  0.00  0.00    +0.078 A 
ATOM     19  C   UNL     1      -5.301   1.142  24.696  0.00  0.00    +0.017 A 
ATOM     20  C   UNL     1      -6.050   1.464  24.823  0.00  0.00    +0.004 A 
ATOM     21  C   UNL     1      -6.130   2.160  25.260  0.00  0.00    +0.037 A 
ATOM     22  C   UNL     1      -5.463   2.533  25.569  0.00  0.00    +0.140 A 
ATOM     25  C   UNL     1      -4.714   2.210  25.442  0.00  0.00    +0.054 A 
BRANCH  22  23
ATOM     23  O   UNL     1      -5.545   3.228  26.005  0.00  0.00    -0.471 OA
ATOM     24  C   UNL     1      -5.410   3.959  25.647  0.00  0.00    +0.252 C 
ENDBRANCH  22  23
ENDBRANCH  17  18
TORSDOF 4
ENDMDL
MODEL 5
REMARK VINA RESULT:      -9.5      1.899      6.261
REMARK  Name = 
REMARK  4 active torsions:
REMARK  status: ('A' for Active; 'I' for Inactive)
REMARK    1  A    between atoms: O_2  and  C_3
REMARK    2  A    between atoms: C_8  and  C_10
REMARK    3  A    between atoms: N_17  and  C_18
REMARK    4  A    between atoms: C_22  and  O_23
REMARK                            x       y       z     vdW  Elec       q    Type
REMARK                         _______ _______ _______ _____ _____    ______ ____
ROOT
ATOM     10  C   UNL     1      -0.827   1.279  24.635  0.00  0.00    +0.080 C 
ATOM     11  C   UNL     1      -0.148   0.858  24.434  0.00  0.00    +0.031 C 
ATOM     12  C   UNL     1      -0.339   0.056  24.419  0.00  0.00    +0.096 C 
ATOM     13  N   UNL     1      -1.138  -0.019  24.610  0.00  0.00    -0.262 N 
ATOM     14  C   UNL     1      -1.439   0.737  24.744  0.00  0.00    +0.103 C 
ATOM     15  C   UNL     1      -1.561  -0.725  24.660  0.00  0.00    +0.327 C 
ATOM     16  O   UNL     1      -1.183  -1.444  24.510  0.00  0.00    -0.250 OA
ATOM     17  N   UNL     1      -2.362  -0.714  24.858  0.00  0.00    -0.162 NA
ENDROOT
BRANCH  10   8
ATOM      3  C   UNL     1      -1.420   4.732  25.191  0.00  0.00    +0.140 A 
ATOM      4  C   UNL     1      -1.715   3.978  25.344  0.00  0.00    +0.058 A 
ATOM      5  C   UNL     1      -1.320   3.313  25.055  0.00  0.00    +0.103 A 
ATOM      6  C   UNL     1      -0.629   3.404  24.613  0.00  0.00    +0.100 A 
ATOM      7  N   UNL     1      -0.361   2.654  24.402  0.00  0.00    -0.229 NA
ATOM      8  C   UNL     1      -0.885   2.099  24.714  0.00  0.00    +0.140 A 
ATOM      9  N   UNL     1      -1.477   2.507  25.117  0.00  0.00    -0.229 NA
ATOM     26  C   UNL     1      -0.334   4.160  24.460  0.00  0.00    +0.024 A 
ATOM     27  C   UNL     1      -0.729   4.823  24.749  0.00  0.00    +0.039 A 
BRANCH   3   2
ATOM      1  C   UNL     1      -1.859   6.082  25.023  0.00  0.00    +0.252 C 
ATOM      2  O   UNL     1      -1.815   5.396  25.480  0.00  0.00    -0.471 OA
ENDBRANCH   3   2
ENDBRANCH  10   8
BRANCH  17  18
ATOM     18  C   UNL     1      -2.785  -1.421  24.908  0.00  0.00    +0.078 A 
ATOM     19  C   UNL     1      -2.791  -1.850  25.612  0.00  0.00    +0.017 A 
ATOM     20  C   UNL     1      -3.214  -2.557  25.662  0.00  0.00    +0.004 A 
ATOM     21  C   UNL     1      -3.630  -2.834  25.005  0.00  0.00    +0.037 A 
ATOM     22  C   UNL     1      -3.623  -2.406  24.301  0.00  0.00    +0.140 A 
ATOM     25  C   UNL     1      -3.200  -1.699  24.252  0.00  0.00    +0.054 A 
BRANCH  22  23
ATOM     23  O   UNL     1      -4.040  -2.684  23.645  0.00  0.00    -0.471 OA
ATOM     24  C   UNL     1      -4.820  -2.447  23.520  0.00  0.00    +0.252 C 
ENDBRANCH  22  23
ENDBRANCH  17  18
TORSDOF 4
ENDMDL
MODEL 6
REMARK VINA RESULT:      -9.3      1.688      2.499
REMARK  Name = 
REMARK  4 active torsions:
REMARK  status: ('A' for Active; 'I' for Inactive)
REMARK    1  A    between atoms: O_2  and  C_3
REMARK    2  A    between atoms: C_8  and  C_10
REMARK    3  A    between atoms: N_17  and  C_18
REMARK    4  A    between atoms: C_22  and  O_23
REMARK                            x       y       z     vdW  Elec       q    Type
REMARK                         _______ _______ _______ _____ _____    ______ ____
ROOT
ATOM     10  C   UNL     1      -1.584   0.056  25.315  0.00  0.00    +0.080 C 
ATOM     11  C   UNL     1      -0.918  -0.031  25.794  0.00  0.00    +0.031 C 
ATOM     12  C   UNL     1      -0.588   0.716  25.912  0.00  0.00    +0.096 C 
ATOM     13  N   UNL     1      -1.050   1.265  25.505  0.00  0.00    -0.262 N 
ATOM     14  C   UNL     1      -1.666   0.857  25.136  0.00  0.00    +0.103 C 
ATOM     15  C   UNL     1      -0.920   2.079  25.473  0.00  0.00    +0.327 C 
ATOM     16  O   UNL     1      -0.279   2.411  25.871  0.00  0.00    -0.250 OA
ATOM     17  N   UNL     1      -1.432   2.562  25.041  0.00  0.00    -0.162 NA
ENDROOT
BRANCH  10   8
ATOM      3  C   UNL     1      -3.987  -2.257  24.107  0.00  0.00    +0.140 A 
ATOM      4  C   UNL     1      -3.837  -1.453  24.212  0.00  0.00    +0.058 A 
ATOM      5  C   UNL     1      -3.126  -1.205  24.550  0.00  0.00    +0.103 A 
ATOM      6  C   UNL     1      -2.564  -1.763  24.782  0.00  0.00    +0.100 A 
ATOM      7  N   UNL     1      -1.918  -1.358  25.096  0.00  0.00    -0.229 NA
ATOM      8  C   UNL     1      -2.081  -0.551  25.059  0.00  0.00    +0.140 A 
ATOM      9  N   UNL     1      -2.827  -0.457  24.721  0.00  0.00    -0.229 NA
ATOM     26  C   UNL     1      -2.713  -2.568  24.676  0.00  0.00    +0.024 A 
ATOM     27  C   UNL     1      -3.424  -2.815  24.339  0.00  0.00    +0.039 A 
BRANCH   3   2
ATOM      1  C   UNL     1      -4.700  -3.109  23.209  0.00  0.00    +0.252 C 
ATOM      2  O   UNL     1      -4.697  -2.504  23.770  0.00  0.00    -0.471 OA
ENDBRANCH   3   2
ENDBRANCH  10   8
BRANCH  17  18
ATOM     18  C   UNL     1      -1.301   3.377  25.009  0.00  0.00    +0.078 A 
ATOM     19  C   UNL     1      -0.630   3.672  24.632  0.00  0.00    +0.017 A 
ATOM     20  C   UNL     1      -0.499   4.486  24.600  0.00  0.00    +0.004 A 
ATOM     21  C   UNL     1      -1.041   5.004  24.945  0.00  0.00    +0.037 A 
ATOM     22  C   UNL     1      -1.712   4.709  25.322  0.00  0.00    +0.140 A 
ATOM     25  C   UNL     1      -1.843   3.894  25.354  0.00  0.00    +0.054 A 
BRANCH  22  23
ATOM     23  O   UNL     1      -2.254   5.227  25.667  0.00  0.00    -0.471 OA
ATOM     24  C   UNL     1      -2.946   4.935  26.008  0.00  0.00    +0.252 C 
ENDBRANCH  22  23
ENDBRANCH  17  18
TORSDOF 4
ENDMDL
MODEL 7
REMARK VINA RESULT:      -9.3      3.224      4.474
REMARK  Name = 
REMARK  4 active torsions:
REMARK  status: ('A' for Active; 'I' for Inactive)
REMARK    1  A    between atoms: O_2  and  C_3
REMARK    2  A    between atoms: C_8  and  C_10
REMARK    3  A    between atoms: N_17  and  C_18
REMARK    4  A    between atoms: C_22  and  O_23
REMARK                            x       y       z     vdW  Elec       q    Type
REMARK                         _______ _______ _______ _____ _____    ______ ____
ROOT
ATOM     10  C   UNL     1      -0.438   2.026  24.881  0.00  0.00    +0.080 C 
ATOM     11  C   UNL     1      -0.180   2.446  25.542  0.00  0.00    +0.031 C 
ATOM     12  C   UNL     1      -0.828   2.848  25.859  0.00  0.00    +0.096 C 
ATOM     13  N   UNL     1      -1.486   2.675  25.393  0.00  0.00    -0.262 N 
ATOM     14  C   UNL     1      -1.245   2.167  24.789  0.00  0.00    +0.103 C 
ATOM     15  C   UNL     1      -2.252   2.959  25.511  0.00  0.00    +0.327 C 
ATOM     16  O   UNL     1      -2.411   3.466  26.142  0.00  0.00    -0.250 OA
ATOM     17  N   UNL     1      -2.858   2.737  24.997  0.00  0.00    -0.162 NA
ENDROOT
BRANCH  10   8
ATOM      3  C   UNL     1       1.863   0.264  22.836  0.00  0.00    +0.140 A 
ATOM      4  C   UNL     1       1.763   0.954  23.275  0.00  0.00    +0.058 A 
ATOM      5  C   UNL     1       1.053   1.091  23.674  0.00  0.00    +0.103 A 
ATOM      6  C   UNL     1       0.444   0.537  23.632  0.00  0.00    +0.100 A 
ATOM      7  N   UNL     1      -0.189   0.819  24.079  0.00  0.00    -0.229 NA
ATOM      8  C   UNL     1       0.029   1.548  24.397  0.00  0.00    +0.140 A 
ATOM      9  N   UNL     1       0.797   1.716  24.147  0.00  0.00    -0.229 NA
ATOM     26  C   UNL     1       0.544  -0.155  23.192  0.00  0.00    +0.024 A 
ATOM     27  C   UNL     1       1.254  -0.291  22.794  0.00  0.00    +0.039 A 
BRANCH   3   2
ATOM      1  C   UNL     1       3.263   0.506  22.683  0.00  0.00    +0.252 C 
ATOM      2  O   UNL     1       2.572   0.127  22.438  0.00  0.00    -0.471 OA
ENDBRANCH   3   2
ENDBRANCH  10   8
BRANCH  17  18
ATOM     18  C   UNL     1      -3.624   3.022  25.115  0.00  0.00    +0.078 A 
ATOM     19  C   UNL     1      -3.799   3.812  24.955  0.00  0.00    +0.017 A 
ATOM     20  C   UNL     1      -4.564   4.097  25.073  0.00  0.00    +0.004 A 
ATOM     21  C   UNL     1      -5.154   3.591  25.351  0.00  0.00    +0.037 A 
ATOM     22  C   UNL     1      -4.979   2.802  25.510  0.00  0.00    +0.140 A 
ATOM     25  C   UNL     1      -4.213   2.517  25.392  0.00  0.00    +0.054 A 
BRANCH  22  23
ATOM     23  O   UNL     1      -5.569   2.296  25.788  0.00  0.00    -0.471 OA
ATOM     24  C   UNL     1      -6.062   1.904  25.255  0.00  0.00    +0.252 C 
ENDBRANCH  22  23
ENDBRANCH  17  18
TORSDOF 4
ENDMDL
MODEL 8
REMARK VINA RESULT:      -8.9      4.075      6.052
REMARK  Name = 
REMARK  4 active torsions:
REMARK  status: ('A' for Active; 'I' for Inactive)
REMARK    1  A    between atoms: O_2  and  C_3
REMARK    2  A    between atoms: C_8  and  C_10
REMARK    3  A    between atoms: N_17  and  C_18
REMARK    4  A    between atoms: C_22  and  O_23
REMARK                            x       y       z     vdW  Elec       q    Type
REMARK                         _______ _______ _______ _____ _____    ______ ____
ROOT
ATOM     10  C   UNL     1       0.210   0.934  23.865  0.00  0.00    +0.080 C 
ATOM     11  C   UNL     1      -0.089   1.672  24.081  0.00  0.00    +0.031 C 
ATOM     12  C   UNL     1      -0.842   1.560  24.400  0.00  0.00    +0.096 C 
ATOM     13  N   UNL     1      -1.008   0.752  24.382  0.00  0.00    -0.262 N 
ATOM     14  C   UNL     1      -0.358   0.365  24.051  0.00  0.00    +0.103 C 
ATOM     15  C   UNL     1      -1.701   0.393  24.647  0.00  0.00    +0.327 C 
ATOM     16  O   UNL     1      -2.308   0.852  24.967  0.00  0.00    -0.250 OA
ATOM     17  N   UNL     1      -1.790  -0.426  24.592  0.00  0.00    -0.162 NA
ENDROOT
BRANCH  10   8
ATOM      3  C   UNL     1       3.524   0.617  22.640  0.00  0.00    +0.140 A 
ATOM      4  C   UNL     1       3.052   1.038  23.170  0.00  0.00    +0.058 A 
ATOM      5  C   UNL     1       2.247   0.866  23.232  0.00  0.00    +0.103 A 
ATOM      6  C   UNL     1       1.915   0.274  22.764  0.00  0.00    +0.100 A 
ATOM      7  N   UNL     1       1.111   0.227  22.944  0.00  0.00    -0.229 NA
ATOM      8  C   UNL     1       0.947   0.790  23.523  0.00  0.00    +0.140 A 
ATOM      9  N   UNL     1       1.649   1.185  23.701  0.00  0.00    -0.229 NA
ATOM     26  C   UNL     1       2.387  -0.148  22.234  0.00  0.00    +0.024 A 
ATOM     27  C   UNL     1       3.191   0.025  22.172  0.00  0.00    +0.039 A 
BRANCH   3   2
ATOM      1  C   UNL     1       4.869   0.421  23.081  0.00  0.00    +0.252 C 
ATOM      2  O   UNL     1       4.328   0.789  22.578  0.00  0.00    -0.471 OA
ENDBRANCH   3   2
ENDBRANCH  10   8
BRANCH  17  18
ATOM     18  C   UNL     1      -2.484  -0.785  24.858  0.00  0.00    +0.078 A 
ATOM     19  C   UNL     1      -2.597  -0.918  25.664  0.00  0.00    +0.017 A 
ATOM     20  C   UNL     1      -3.292  -1.277  25.929  0.00  0.00    +0.004 A 
ATOM     21  C   UNL     1      -3.872  -1.501  25.387  0.00  0.00    +0.037 A 
ATOM     22  C   UNL     1      -3.759  -1.368  24.582  0.00  0.00    +0.140 A 
ATOM     25  C   UNL     1      -3.065  -1.009  24.316  0.00  0.00    +0.054 A 
BRANCH  22  23
ATOM     23  O   UNL     1      -4.340  -1.593  24.041  0.00  0.00    -0.471 OA
ATOM     24  C   UNL     1      -4.364  -2.367  23.759  0.00  0.00    +0.252 C 
ENDBRANCH  22  23
ENDBRANCH  17  18
TORSDOF 4
ENDMDL
MODEL 9
REMARK VINA RESULT:      -8.0     13.966     15.030
REMARK  Name = 
REMARK  4 active torsions:
REMARK  status: ('A' for Active; 'I' for Inactive)
REMARK    1  A    between atoms: O_2  and  C_3
REMARK    2  A    between atoms: C_8  and  C_10
REMARK    3  A    between atoms: N_17  and  C_18
REMARK    4  A    between atoms: C_22  and  O_23
REMARK                            x       y       z     vdW  Elec       q    Type
REMARK                         _______ _______ _______ _____ _____    ______ ____
ROOT
ATOM     10  C   UNL     1      -4.863 -10.488  16.914  0.00  0.00    +0.080 C 
ATOM     11  C   UNL     1      -4.740 -10.646  17.714  0.00  0.00    +0.031 C 
ATOM     12  C   UNL     1      -5.454 -10.525  18.111  0.00  0.00    +0.096 C 
ATOM     13  N   UNL     1      -6.017 -10.293  17.555  0.00  0.00    -0.262 N 
ATOM     14  C   UNL     1      -5.652 -10.270  16.815  0.00  0.00    +0.103 C 
ATOM     15  C   UNL     1      -6.807 -10.115  17.711  0.00  0.00    +0.327 C 
ATOM     16  O   UNL     1      -7.097 -10.162  18.482  0.00  0.00    -0.250 OA
ATOM     17  N   UNL     1      -7.309  -9.889  17.096  0.00  0.00    -0.162 NA
ENDROOT
BRANCH  10   8
ATOM      3  C   UNL     1      -2.740 -10.722  14.081  0.00  0.00    +0.140 A 
ATOM      4  C   UNL     1      -3.530 -10.692  14.315  0.00  0.00    +0.058 A 
ATOM      5  C   UNL     1      -3.723 -10.633  15.115  0.00  0.00    +0.103 A 
ATOM      6  C   UNL     1      -3.124 -10.605  15.682  0.00  0.00    +0.100 A 
ATOM      7  N   UNL     1      -3.478 -10.548  16.424  0.00  0.00    -0.229 NA
ATOM      8  C   UNL     1      -4.295 -10.540  16.317  0.00  0.00    +0.140 A 
ATOM      9  N   UNL     1      -4.446 -10.593  15.508  0.00  0.00    -0.229 NA
ATOM     26  C   UNL     1      -2.333 -10.636  15.448  0.00  0.00    +0.024 A 
ATOM     27  C   UNL     1      -2.141 -10.694  14.648  0.00  0.00    +0.039 A 
BRANCH   3   2
ATOM      1  C   UNL     1      -1.864 -10.422  12.993  0.00  0.00    +0.252 C 
ATOM      2  O   UNL     1      -2.549 -10.781  13.282  0.00  0.00    -0.471 OA
ENDBRANCH   3   2
ENDBRANCH  10   8
BRANCH  17  18
ATOM     18  C   UNL     1      -8.100  -9.711  17.252  0.00  0.00    +0.078 A 
ATOM     19  C   UNL     1      -8.629 -10.315  17.439  0.00  0.00    +0.017 A 
ATOM     20  C   UNL     1      -9.420 -10.136  17.595  0.00  0.00    +0.004 A 
ATOM     21  C   UNL     1      -9.679  -9.353  17.565  0.00  0.00    +0.037 A 
ATOM     22  C   UNL     1      -9.150  -8.750  17.379  0.00  0.00    +0.140 A 
ATOM     25  C   UNL     1      -8.359  -8.928  17.222  0.00  0.00    +0.054 A 
BRANCH  22  23
ATOM     23  O   UNL     1      -9.410  -7.967  17.349  0.00  0.00    -0.471 OA
ATOM     24  C   UNL     1      -9.874  -7.710  16.717  0.00  0.00    +0.252 C 
ENDBRANCH  22  23
ENDBRANCH  17  18
TORSDOF 4
ENDMDL
MODEL 10
REMARK VINA RESULT:      -7.8     14.319     16.971
REMARK  Name = 
REMARK  4 active torsions:
REMARK  status: ('A' for Active; 'I' for Inactive)
REMARK    1  A    between atoms: O_2  and  C_3
REMARK    2  A    between atoms: C_8  and  C_10
REMARK    3  A    between atoms: N_17  and  C_18
REMARK    4  A    between atoms: C_22  and  O_23
REMARK                            x       y       z     vdW  Elec       q    Type
REMARK                         _______ _______ _______ _____ _____    ______ ____
ROOT
ATOM     10  C   UNL     1      -2.698 -10.540  13.959  0.00  0.00    +0.080 C 
ATOM     11  C   UNL     1      -1.898 -10.588  13.766  0.00  0.00    +0.031 C 
ATOM     12  C   UNL     1      -1.827 -10.511  12.948  0.00  0.00    +0.096 C 
ATOM     13  N   UNL     1      -2.584 -10.415  12.635  0.00  0.00    -0.262 N 
ATOM     14  C   UNL     1      -3.122 -10.433  13.260  0.00  0.00    +0.103 C 
ATOM     15  C   UNL     1      -2.771 -10.318  11.837  0.00  0.00    +0.327 C 
ATOM     16  O   UNL     1      -2.171 -10.310  11.271  0.00  0.00    -0.250 OA
ATOM     17  N   UNL     1      -3.558 -10.227  11.605  0.00  0.00    -0.162 NA
ENDROOT
BRANCH  10   8
ATOM      3  C   UNL     1      -4.444 -10.729  17.041  0.00  0.00    +0.140 A 
ATOM      4  C   UNL     1      -4.547 -10.660  16.226  0.00  0.00    +0.058 A 
ATOM      5  C   UNL     1      -3.890 -10.642  15.727  0.00  0.00    +0.103 A 
ATOM      6  C   UNL     1      -3.130 -10.694  16.043  0.00  0.00    +0.100 A 
ATOM      7  N   UNL     1      -2.591 -10.662  15.420  0.00  0.00    -0.229 NA
ATOM      8  C   UNL     1      -3.018 -10.590  14.718  0.00  0.00    +0.140 A 
ATOM      9  N   UNL     1      -3.820 -10.578  14.908  0.00  0.00    -0.229 NA
ATOM     26  C   UNL     1      -3.027 -10.764  16.860  0.00  0.00    +0.024 A 
ATOM     27  C   UNL     1      -3.684 -10.781  17.358  0.00  0.00    +0.039 A 
BRANCH   3   2
ATOM      1  C   UNL     1      -5.018 -10.554  18.338  0.00  0.00    +0.252 C 
ATOM      2  O   UNL     1      -5.100 -10.747  17.540  0.00  0.00    -0.471 OA
ENDBRANCH   3   2
ENDBRANCH  10   8
BRANCH  17  18
ATOM     18  C   UNL     1      -3.744 -10.130  10.807  0.00  0.00    +0.078 A 
ATOM     19  C   UNL     1      -3.741 -10.781  10.301  0.00  0.00    +0.017 A 
ATOM     20  C   UNL     1      -3.927 -10.684   9.503  0.00  0.00    +0.004 A 
ATOM     21  C   UNL     1      -4.116  -9.935   9.212  0.00  0.00    +0.037 A 
ATOM     22  C   UNL     1      -4.120  -9.285   9.719  0.00  0.00    +0.140 A 
ATOM     25  C   UNL     1      -3.933  -9.382  10.517  0.00  0.00    +0.054 A 
BRANCH  22  23
ATOM     23  O   UNL     1      -4.309  -8.536   9.427  0.00  0.00    -0.471 OA
ATOM     24  C   UNL     1      -4.958  -8.127   9.730  0.00  0.00    +0.252 C 
ENDBRANCH  22  23
ENDBRANCH  17  18
TORSDOF 4
ENDMDL
