MODEL 1
REMARK VINA RESULT:     -12.9      0.000      0.000
REMARK  Name = 
REMARK  6 active torsions:
REMARK  status: ('A' for Active; 'I' for Inactive)
REMARK    1  A    between atoms: C_1  and  O_2
REMARK    2  A    between atoms: C_1  and  C_28
REMARK    3  A    between atoms: O_2  and  C_3
REMARK    4  A    between atoms: C_7  and  N_11
REMARK    5  A    between atoms: C_15  and  C_16
REMARK    6  A    between atoms: C_19  and  C_22
REMARK                            x       y       z     vdW  Elec       q    Type
REMARK                         _______ _______ _______ _____ _____    ______ ____
ROOT
ATOM     11  N   UNL     1      -5.306   2.684  25.219  0.00  0.00    -0.210 N 
ATOM     12  N   UNL     1      -6.110   2.701  25.408  0.00  0.00    -0.043 NA
ATOM     13  N   UNL     1      -6.280   3.439  25.733  0.00  0.00    -0.023 NA
ATOM     14  N   UNL     1      -5.583   3.879  25.745  0.00  0.00    -0.108 NA
ATOM     15  C   UNL     1      -4.981   3.412  25.427  0.00  0.00    +0.184 A 
ENDROOT
BRANCH  11   7
ATOM      3  C   UNL     1      -4.241   0.105  25.039  0.00  0.00    +0.175 C 
ATOM      4  C   UNL     1      -4.606   0.108  25.779  0.00  0.00    +0.174 C 
ATOM      5  O   UNL     1      -4.943   0.852  25.893  0.00  0.00    -0.349 OA
ATOM      6  C   UNL     1      -4.788   1.308  25.225  0.00  0.00    +0.170 C 
ATOM      7  C   UNL     1      -4.900   2.050  24.881  0.00  0.00    +0.167 C 
ATOM      8  C   UNL     1      -4.536   2.047  24.141  0.00  0.00    +0.169 C 
ATOM      9  O   UNL     1      -4.198   1.303  24.027  0.00  0.00    -0.349 OA
ATOM     10  C   UNL     1      -4.354   0.847  24.697  0.00  0.00    +0.174 C 
BRANCH   3   2
ATOM      2  O   UNL     1      -3.835  -0.529  24.701  0.00  0.00    -0.346 OA
BRANCH   2   1
ATOM      1  C   UNL     1      -3.618  -1.175  25.166  0.00  0.00    +0.169 C 
BRANCH   1  28
ATOM     28  C   UNL     1      -3.186  -1.795  24.835  0.00  0.00    +0.007 A 
ATOM     29  C   UNL     1      -3.577  -2.446  24.514  0.00  0.00    -0.002 A 
ATOM     30  C   UNL     1      -3.145  -3.065  24.184  0.00  0.00    -0.000 A 
ATOM     31  C   UNL     1      -2.320  -3.034  24.174  0.00  0.00    -0.000 A 
ATOM     32  C   UNL     1      -1.928  -2.383  24.495  0.00  0.00    -0.000 A 
ATOM     33  C   UNL     1      -2.361  -1.763  24.826  0.00  0.00    -0.002 A 
ENDBRANCH   1  28
ENDBRANCH   2   1
ENDBRANCH   3   2
ENDBRANCH  11   7
BRANCH  15  16
ATOM     16  C   UNL     1      -4.192   3.635  25.335  0.00  0.00    +0.037 A 
ATOM     17  C   UNL     1      -3.922   3.903  24.602  0.00  0.00    +0.003 A 
ATOM     18  C   UNL     1      -3.133   4.125  24.510  0.00  0.00    +0.000 A 
ATOM     19  C   UNL     1      -2.614   4.081  25.150  0.00  0.00    +0.000 A 
ATOM     20  C   UNL     1      -2.885   3.814  25.882  0.00  0.00    +0.000 A 
ATOM     21  C   UNL     1      -3.673   3.592  25.974  0.00  0.00    +0.003 A 
BRANCH  19  22
ATOM     22  C   UNL     1      -1.825   4.304  25.058  0.00  0.00    +0.000 A 
ATOM     23  C   UNL     1      -1.621   5.104  25.051  0.00  0.00    +0.000 A 
ATOM     24  C   UNL     1      -0.832   5.327  24.958  0.00  0.00    +0.000 A 
ATOM     25  C   UNL     1      -0.247   4.751  24.873  0.00  0.00    +0.000 A 
ATOM     26  C   UNL     1      -0.452   3.952  24.881  0.00  0.00    +0.000 A 
ATOM     27  C   UNL     1      -1.241   3.729  24.973  0.00  0.00    +0.000 A 
ENDBRANCH  19  22
ENDBRANCH  15  16
TORSDOF 6
ENDMDL
MODEL 2
REMARK VINA RESULT:     -12.0      2.272      3.500
REMARK  Name = 
REMARK  6 active torsions:
REMARK  status: ('A' for Active; 'I' for Inactive)
REMARK    1  A    between atoms: C_1  and  O_2
REMARK    2  A    between atoms: C_1  and  C_28
REMARK    3  A    between atoms: O_2  and  C_3
REMARK    4  A    between atoms: C_7  and  N_11
REMARK    5  A    between atoms: C_15  and  C_16
REMARK    6  A    between atoms: C_19  and  C_22
REMARK                            x       y       z     vdW  Elec       q    Type
REMARK                         _______ _______ _______ _____ _____    ______ ____
ROOT
ATOM     11  N   UNL     1      -0.870   2.852  24.373  0.00  0.00    -0.210 N 
ATOM     12  N   UNL     1      -0.107   3.154  24.289  0.00  0.00    -0.043 NA
ATOM     13  N   UNL     1      -0.118   3.944  24.526  0.00  0.00    -0.023 NA
ATOM     14  N   UNL     1      -0.888   4.130  24.757  0.00  0.00    -0.108 NA
ATOM     15  C   UNL     1      -1.352   3.455  24.662  0.00  0.00    +0.184 A 
ENDROOT
BRANCH  11   7
ATOM      3  C   UNL     1      -1.141   0.092  24.733  0.00  0.00    +0.175 C 
ATOM      4  C   UNL     1      -0.707   0.328  25.394  0.00  0.00    +0.174 C 
ATOM      5  O   UNL     1      -0.593   1.143  25.346  0.00  0.00    -0.349 OA
ATOM      6  C   UNL     1      -0.955   1.412  24.656  0.00  0.00    +0.170 C 
ATOM      7  C   UNL     1      -1.109   2.081  24.199  0.00  0.00    +0.167 C 
ATOM      8  C   UNL     1      -1.543   1.846  23.538  0.00  0.00    +0.169 C 
ATOM      9  O   UNL     1      -1.657   1.031  23.586  0.00  0.00    -0.349 OA
ATOM     10  C   UNL     1      -1.294   0.762  24.277  0.00  0.00    +0.174 C 
BRANCH   3   2
ATOM      2  O   UNL     1      -1.380  -0.678  24.559  0.00  0.00    -0.346 OA
BRANCH   2   1
ATOM      1  C   UNL     1      -1.713  -1.150  25.148  0.00  0.00    +0.169 C 
BRANCH   1  28
ATOM     28  C   UNL     1      -2.260  -1.735  24.948  0.00  0.00    +0.007 A 
ATOM     29  C   UNL     1      -3.042  -1.672  25.201  0.00  0.00    -0.002 A 
ATOM     30  C   UNL     1      -3.588  -2.257  25.001  0.00  0.00    -0.000 A 
ATOM     31  C   UNL     1      -3.352  -2.905  24.548  0.00  0.00    -0.000 A 
ATOM     32  C   UNL     1      -2.570  -2.968  24.295  0.00  0.00    -0.000 A 
ATOM     33  C   UNL     1      -2.023  -2.383  24.495  0.00  0.00    -0.002 A 
ENDBRANCH   1  28
ENDBRANCH   2   1
ENDBRANCH   3   2
ENDBRANCH  11   7
BRANCH  15  16
ATOM     16  C   UNL     1      -2.159   3.394  24.828  0.00  0.00    +0.037 A 
ATOM     17  C   UNL     1      -2.711   3.438  24.216  0.00  0.00    +0.003 A 
ATOM     18  C   UNL     1      -3.516   3.377  24.382  0.00  0.00    +0.000 A 
ATOM     19  C   UNL     1      -3.770   3.273  25.161  0.00  0.00    +0.000 A 
ATOM     20  C   UNL     1      -3.218   3.229  25.772  0.00  0.00    +0.000 A 
ATOM     21  C   UNL     1      -2.413   3.290  25.606  0.00  0.00    +0.003 A 
BRANCH  19  22
ATOM     22  C   UNL     1      -4.576   3.212  25.327  0.00  0.00    +0.000 A 
ATOM     23  C   UNL     1      -4.942   2.472  25.327  0.00  0.00    +0.000 A 
ATOM     24  C   UNL     1      -5.748   2.411  25.493  0.00  0.00    +0.000 A 
ATOM     25  C   UNL     1      -6.188   3.090  25.660  0.00  0.00    +0.000 A 
ATOM     26  C   UNL     1      -5.821   3.829  25.660  0.00  0.00    +0.000 A 
ATOM     27  C   UNL     1      -5.015   3.889  25.493  0.00  0.00    +0.000 A 
ENDBRANCH  19  22
ENDBRANCH  15  16
TORSDOF 6
ENDMDL
MODEL 3
REMARK VINA RESULT:     -11.1      2.408      4.780
REMARK  Name = 
REMARK  6 active torsions:
REMARK  status: ('A' for Active; 'I' for Inactive)
REMARK    1  A    between atoms: C_1  and  O_2
REMARK    2  A    between atoms: C_1  and  C_28
REMARK    3  A    between atoms: O_2  and  C_3
REMARK    4  A    between atoms: C_7  and  N_11
REMARK    5  A    between atoms: C_15  and  C_16
REMARK    6  A    between atoms: C_19  and  C_22
REMARK                            x       y       z     vdW  Elec       q    Type
REMARK                         _______ _______ _______ _____ _____    ______ ____
ROOT
ATOM     11  N   UNL     1      -3.449   2.395  24.548  0.00  0.00    -0.210 N 
ATOM     12  N   UNL     1      -3.703   3.155  24.745  0.00  0.00    -0.043 NA
ATOM     13  N   UNL     1      -4.426   3.088  25.137  0.00  0.00    -0.023 NA
ATOM     14  N   UNL     1      -4.619   2.288  25.182  0.00  0.00    -0.108 NA
ATOM     15  C   UNL     1      -4.015   1.859  24.818  0.00  0.00    +0.184 A 
ENDROOT
BRANCH  11   7
ATOM      3  C   UNL     1      -0.710   1.945  24.216  0.00  0.00    +0.175 C 
ATOM      4  C   UNL     1      -0.773   2.147  25.013  0.00  0.00    +0.174 C 
ATOM      5  O   UNL     1      -1.568   2.293  25.176  0.00  0.00    -0.349 OA
ATOM      6  C   UNL     1      -1.996   2.182  24.480  0.00  0.00    +0.170 C 
ATOM      7  C   UNL     1      -2.752   2.204  24.150  0.00  0.00    +0.167 C 
ATOM      8  C   UNL     1      -2.688   2.002  23.353  0.00  0.00    +0.169 C 
ATOM      9  O   UNL     1      -1.893   1.856  23.190  0.00  0.00    -0.349 OA
ATOM     10  C   UNL     1      -1.465   1.967  23.887  0.00  0.00    +0.174 C 
BRANCH   3   2
ATOM      2  O   UNL     1      -0.012   1.754  23.818  0.00  0.00    -0.346 OA
BRANCH   2   1
ATOM      1  C   UNL     1       0.461   1.135  24.089  0.00  0.00    +0.169 C 
BRANCH   1  28
ATOM     28  C   UNL     1       1.010   0.783  23.583  0.00  0.00    +0.007 A 
ATOM     29  C   UNL     1       0.811   0.095  23.174  0.00  0.00    -0.002 A 
ATOM     30  C   UNL     1       1.360  -0.256  22.668  0.00  0.00    -0.000 A 
ATOM     31  C   UNL     1       2.107   0.080  22.571  0.00  0.00    -0.000 A 
ATOM     32  C   UNL     1       2.305   0.769  22.979  0.00  0.00    -0.000 A 
ATOM     33  C   UNL     1       1.756   1.121  23.486  0.00  0.00    -0.002 A 
ENDBRANCH   1  28
ENDBRANCH   2   1
ENDBRANCH   3   2
ENDBRANCH  11   7
BRANCH  15  16
ATOM     16  C   UNL     1      -3.984   1.038  24.738  0.00  0.00    +0.037 A 
ATOM     17  C   UNL     1      -3.747   0.570  25.375  0.00  0.00    +0.003 A 
ATOM     18  C   UNL     1      -3.716  -0.250  25.295  0.00  0.00    +0.000 A 
ATOM     19  C   UNL     1      -3.921  -0.603  24.577  0.00  0.00    +0.000 A 
ATOM     20  C   UNL     1      -4.157  -0.134  23.941  0.00  0.00    +0.000 A 
ATOM     21  C   UNL     1      -4.188   0.686  24.021  0.00  0.00    +0.003 A 
BRANCH  19  22
ATOM     22  C   UNL     1      -3.889  -1.423  24.497  0.00  0.00    +0.000 A 
ATOM     23  C   UNL     1      -3.452  -1.873  25.033  0.00  0.00    +0.000 A 
ATOM     24  C   UNL     1      -3.421  -2.693  24.953  0.00  0.00    +0.000 A 
ATOM     25  C   UNL     1      -3.826  -3.064  24.336  0.00  0.00    +0.000 A 
ATOM     26  C   UNL     1      -4.263  -2.613  23.801  0.00  0.00    +0.000 A 
ATOM     27  C   UNL     1      -4.294  -1.793  23.881  0.00  0.00    +0.000 A 
ENDBRANCH  19  22
ENDBRANCH  15  16
TORSDOF 6
ENDMDL
MODEL 4
REMARK VINA RESULT:     -11.1      2.680      5.757
REMARK  Name = 
REMARK  6 active torsions:
REMARK  status: ('A' for Active; 'I' for Inactive)
REMARK    1  A    between atoms: C_1  and  O_2
REMARK    2  A    between atoms: C_1  and  C_28
REMARK    3  A    between atoms: O_2  and  C_3
REMARK    4  A    between atoms: C_7  and  N_11
REMARK    5  A    between atoms: C_15  and  C_16
REMARK    6  A    between atoms: C_19  and  C_22
REMARK                            x       y       z     vdW  Elec       q    Type
REMARK                         _______ _______ _______ _____ _____    ______ ____
ROOT
ATOM     11  N   UNL     1      -0.098   1.414  24.382  0.00  0.00    -0.210 N 
ATOM     12  N   UNL     1       0.597   1.801  24.161  0.00  0.00    -0.043 NA
ATOM     13  N   UNL     1       1.112   1.240  23.844  0.00  0.00    -0.023 NA
ATOM     14  N   UNL     1       0.736   0.507  23.869  0.00  0.00    -0.108 NA
ATOM     15  C   UNL     1      -0.011   0.614  24.201  0.00  0.00    +0.184 A 
ENDROOT
BRANCH  11   7
ATOM      3  C   UNL     1      -2.449   2.923  24.489  0.00  0.00    +0.175 C 
ATOM      4  C   UNL     1      -2.229   2.971  23.695  0.00  0.00    +0.174 C 
ATOM      5  O   UNL     1      -1.533   2.540  23.598  0.00  0.00    -0.349 OA
ATOM      6  C   UNL     1      -1.322   2.226  24.330  0.00  0.00    +0.170 C 
ATOM      7  C   UNL     1      -0.762   1.765  24.723  0.00  0.00    +0.167 C 
ATOM      8  C   UNL     1      -0.981   1.717  25.517  0.00  0.00    +0.169 C 
ATOM      9  O   UNL     1      -1.678   2.148  25.614  0.00  0.00    -0.349 OA
ATOM     10  C   UNL     1      -1.888   2.463  24.881  0.00  0.00    +0.174 C 
BRANCH   3   2
ATOM      2  O   UNL     1      -3.113   3.275  24.830  0.00  0.00    -0.346 OA
BRANCH   2   1
ATOM      1  C   UNL     1      -3.836   3.263  24.433  0.00  0.00    +0.169 C 
BRANCH   1  28
ATOM     28  C   UNL     1      -4.540   3.198  24.859  0.00  0.00    +0.007 A 
ATOM     29  C   UNL     1      -4.798   3.826  25.327  0.00  0.00    -0.002 A 
ATOM     30  C   UNL     1      -5.502   3.760  25.752  0.00  0.00    -0.000 A 
ATOM     31  C   UNL     1      -5.947   3.067  25.710  0.00  0.00    -0.000 A 
ATOM     32  C   UNL     1      -5.688   2.439  25.242  0.00  0.00    -0.000 A 
ATOM     33  C   UNL     1      -4.984   2.504  24.816  0.00  0.00    -0.002 A 
ENDBRANCH   1  28
ENDBRANCH   2   1
ENDBRANCH   3   2
ENDBRANCH  11   7
BRANCH  15  16
ATOM     16  C   UNL     1      -0.574   0.024  24.330  0.00  0.00    +0.037 A 
ATOM     17  C   UNL     1      -0.612  -0.357  25.061  0.00  0.00    +0.003 A 
ATOM     18  C   UNL     1      -1.175  -0.946  25.190  0.00  0.00    +0.000 A 
ATOM     19  C   UNL     1      -1.699  -1.156  24.587  0.00  0.00    +0.000 A 
ATOM     20  C   UNL     1      -1.660  -0.774  23.857  0.00  0.00    +0.000 A 
ATOM     21  C   UNL     1      -1.097  -0.185  23.728  0.00  0.00    +0.003 A 
BRANCH  19  22
ATOM     22  C   UNL     1      -2.261  -1.745  24.716  0.00  0.00    +0.000 A 
ATOM     23  C   UNL     1      -2.967  -1.564  25.104  0.00  0.00    +0.000 A 
ATOM     24  C   UNL     1      -3.529  -2.154  25.232  0.00  0.00    +0.000 A 
ATOM     25  C   UNL     1      -3.387  -2.924  24.973  0.00  0.00    +0.000 A 
ATOM     26  C   UNL     1      -2.681  -3.104  24.585  0.00  0.00    +0.000 A 
ATOM     27  C   UNL     1      -2.119  -2.515  24.457  0.00  0.00    +0.000 A 
ENDBRANCH  19  22
ENDBRANCH  15  16
TORSDOF 6
ENDMDL
