MODEL 1
REMARK VINA RESULT:      -9.4      0.000      0.000
REMARK  Name = 
REMARK  8 active torsions:
REMARK  status: ('A' for Active; 'I' for Inactive)
REMARK    1  A    between atoms: O_2  and  C_3
REMARK    2  A    between atoms: C_3  and  C_4
REMARK    3  A    between atoms: C_4  and  O_5
REMARK    4  A    between atoms: O_5  and  C_6
REMARK    5  A    between atoms: C_9  and  C_12
REMARK    6  A    between atoms: N_14  and  C_15
REMARK    7  A    between atoms: N_25  and  C_26
REMARK    8  A    between atoms: C_28  and  C_32
REMARK                            x       y       z     vdW  Elec       q    Type
REMARK                         _______ _______ _______ _____ _____    ______ ____
ROOT
ATOM     15  C   UNL     1      -1.244   2.133  24.409  0.00  0.00    +0.146 C 
ATOM     16  C   UNL     1      -1.850   2.192  23.852  0.00  0.00    +0.119 C 
ATOM     17  N   UNL     1      -2.629   2.437  23.964  0.00  0.00    -0.261 N 
ATOM     18  C   UNL     1      -2.996   2.682  24.661  0.00  0.00    +0.095 C 
ATOM     19  C   UNL     1      -2.674   2.744  25.417  0.00  0.00    +0.024 C 
ATOM     20  C   UNL     1      -1.905   2.576  25.664  0.00  0.00    +0.037 C 
ATOM     21  C   UNL     1      -1.268   2.304  25.215  0.00  0.00    +0.174 C 
ATOM     22  O   UNL     1      -0.563   2.187  25.628  0.00  0.00    -0.221 OA
ATOM     23  C   UNL     1      -3.105   2.435  23.290  0.00  0.00    +0.328 C 
ATOM     24  O   UNL     1      -2.792   2.199  22.565  0.00  0.00    -0.250 OA
ATOM     25  N   UNL     1      -3.894   2.670  23.343  0.00  0.00    -0.162 NA
ENDROOT
BRANCH  25  26
ATOM     26  C   UNL     1      -4.207   2.906  24.068  0.00  0.00    +0.076 A 
ATOM     27  C   UNL     1      -4.726   2.409  24.475  0.00  0.00    +0.027 A 
ATOM     28  C   UNL     1      -5.039   2.645  25.201  0.00  0.00    +0.070 A 
ATOM     29  C   UNL     1      -4.834   3.378  25.520  0.00  0.00    +0.010 A 
ATOM     30  C   UNL     1      -4.315   3.874  25.113  0.00  0.00    +0.002 A 
ATOM     31  C   UNL     1      -4.002   3.638  24.387  0.00  0.00    +0.017 A 
BRANCH  28  32
ATOM     32  C   UNL     1      -5.557   2.149  25.608  0.00  0.00    +0.100 C 
ATOM     33  N   UNL     1      -6.076   1.653  26.016  0.00  0.00    -0.191 NA
ENDBRANCH  28  32
ENDBRANCH  25  26
BRANCH  15  14
ATOM     12  C   UNL     1      -0.424   1.079  23.902  0.00  0.00    +0.265 C 
ATOM     13  O   UNL     1      -1.057   0.554  23.971  0.00  0.00    -0.268 OA
ATOM     14  N   UNL     1      -0.517   1.868  24.121  0.00  0.00    -0.199 NA
BRANCH  12   9
ATOM      6  C   UNL     1       1.755   0.285  23.038  0.00  0.00    +0.139 A 
ATOM      7  C   UNL     1       1.681   1.054  23.324  0.00  0.00    +0.037 A 
ATOM      8  C   UNL     1       0.955   1.319  23.612  0.00  0.00    +0.008 A 
ATOM      9  C   UNL     1       0.303   0.814  23.614  0.00  0.00    +0.055 A 
ATOM     10  C   UNL     1       0.377   0.043  23.328  0.00  0.00    +0.008 A 
ATOM     11  C   UNL     1       1.103  -0.221  23.040  0.00  0.00    +0.037 A 
BRANCH   6   5
ATOM      5  O   UNL     1       2.482   0.019  22.750  0.00  0.00    -0.473 OA
BRANCH   5   4
ATOM      4  C   UNL     1       3.169   0.447  22.905  0.00  0.00    +0.237 C 
BRANCH   4   3
ATOM      3  C   UNL     1       3.907   0.091  22.812  0.00  0.00    +0.189 C 
BRANCH   3   2
ATOM      1  C   UNL     1       5.259   0.146  23.272  0.00  0.00    +0.174 C 
ATOM      2  O   UNL     1       4.595   0.522  22.958  0.00  0.00    -0.347 OA
ENDBRANCH   3   2
ENDBRANCH   4   3
ENDBRANCH   5   4
ENDBRANCH   6   5
ENDBRANCH  12   9
ENDBRANCH  15  14
TORSDOF 8
ENDMDL
MODEL 2
REMARK VINA RESULT:      -8.2      2.140      2.674
REMARK  Name = 
REMARK  8 active torsions:
REMARK  status: ('A' for Active; 'I' for Inactive)
REMARK    1  A    between atoms: O_2  and  C_3
REMARK    2  A    between atoms: C_3  and  C_4
REMARK    3  A    between atoms: C_4  and  O_5
REMARK    4  A    between atoms: O_5  and  C_6
REMARK    5  A    between atoms: C_9  and  C_12
REMARK    6  A    between atoms: N_14  and  C_15
REMARK    7  A    between atoms: N_25  and  C_26
REMARK    8  A    between atoms: C_28  and  C_32
REMARK                            x       y       z     vdW  Elec       q    Type
REMARK                         _______ _______ _______ _____ _____    ______ ____
ROOT
ATOM     15  C   UNL     1      -0.459  -0.182  24.290  0.00  0.00    +0.146 C 
ATOM     16  C   UNL     1      -1.048   0.323  24.009  0.00  0.00    +0.119 C 
ATOM     17  N   UNL     1      -1.864   0.272  24.115  0.00  0.00    -0.261 N 
ATOM     18  C   UNL     1      -2.293  -0.298  24.530  0.00  0.00    +0.095 C 
ATOM     19  C   UNL     1      -2.013  -0.956  24.940  0.00  0.00    +0.024 C 
ATOM     20  C   UNL     1      -1.233  -1.208  25.036  0.00  0.00    +0.037 C 
ATOM     21  C   UNL     1      -0.541  -0.863  24.747  0.00  0.00    +0.174 C 
ATOM     22  O   UNL     1       0.161  -1.251  24.942  0.00  0.00    -0.221 OA
ATOM     23  C   UNL     1      -2.310   0.868  23.760  0.00  0.00    +0.328 C 
ATOM     24  O   UNL     1      -1.934   1.465  23.333  0.00  0.00    -0.250 OA
ATOM     25  N   UNL     1      -3.132   0.868  23.834  0.00  0.00    -0.162 NA
ENDROOT
BRANCH  25  26
ATOM     26  C   UNL     1      -3.507   0.271  24.262  0.00  0.00    +0.076 A 
ATOM     27  C   UNL     1      -3.790  -0.400  23.873  0.00  0.00    +0.027 A 
ATOM     28  C   UNL     1      -4.166  -0.997  24.300  0.00  0.00    +0.070 A 
ATOM     29  C   UNL     1      -4.259  -0.924  25.117  0.00  0.00    +0.010 A 
ATOM     30  C   UNL     1      -3.976  -0.253  25.506  0.00  0.00    +0.002 A 
ATOM     31  C   UNL     1      -3.600   0.344  25.078  0.00  0.00    +0.017 A 
BRANCH  28  32
ATOM     32  C   UNL     1      -4.448  -1.668  23.912  0.00  0.00    +0.100 C 
ATOM     33  N   UNL     1      -4.730  -2.339  23.523  0.00  0.00    -0.191 NA
ENDBRANCH  28  32
ENDBRANCH  25  26
BRANCH  15  14
ATOM     12  C   UNL     1       0.570  -0.058  23.307  0.00  0.00    +0.265 C 
ATOM     13  O   UNL     1       0.053  -0.342  22.730  0.00  0.00    -0.268 OA
ATOM     14  N   UNL     1       0.315   0.022  24.087  0.00  0.00    -0.199 NA
BRANCH  12   9
ATOM      6  C   UNL     1       2.890   0.552  22.697  0.00  0.00    +0.139 A 
ATOM      7  C   UNL     1       2.467   1.020  23.229  0.00  0.00    +0.037 A 
ATOM      8  C   UNL     1       1.694   0.816  23.432  0.00  0.00    +0.008 A 
ATOM      9  C   UNL     1       1.344   0.145  23.103  0.00  0.00    +0.055 A 
ATOM     10  C   UNL     1       1.767  -0.323  22.572  0.00  0.00    +0.008 A 
ATOM     11  C   UNL     1       2.540  -0.119  22.369  0.00  0.00    +0.037 A 
BRANCH   6   5
ATOM      5  O   UNL     1       3.663   0.755  22.494  0.00  0.00    -0.473 OA
BRANCH   5   4
ATOM      4  C   UNL     1       4.260   0.730  23.062  0.00  0.00    +0.237 C 
BRANCH   4   3
ATOM      3  C   UNL     1       5.004   0.431  22.867  0.00  0.00    +0.189 C 
BRANCH   3   2
ATOM      1  C   UNL     1       5.861  -0.241  23.791  0.00  0.00    +0.174 C 
ATOM      2  O   UNL     1       5.616   0.453  23.419  0.00  0.00    -0.347 OA
ENDBRANCH   3   2
ENDBRANCH   4   3
ENDBRANCH   5   4
ENDBRANCH   6   5
ENDBRANCH  12   9
ENDBRANCH  15  14
TORSDOF 8
ENDMDL
