REMARK  Name = 
REMARK  7 active torsions:
REMARK  status: ('A' for Active; 'I' for Inactive)
REMARK    1  A    between atoms: C_5  and  C_6
REMARK    2  A    between atoms: C_6  and  N_7
REMARK    3  A    between atoms: C_8  and  C_10
REMARK    4  A    between atoms: C_17  and  C_18
REMARK    5  A    between atoms: C_18  and  N_19
REMARK    6  A    between atoms: C_21  and  C_24
REMARK    7  A    between atoms: C_27  and  C_30
REMARK                            x       y       z     vdW  Elec       q    Type
REMARK                         _______ _______ _______ _____ _____    ______ ____
ROOT
ATOM     10  C   UNL     1       1.661  -1.343   0.000  0.00  0.00    +0.094 C 
ATOM     11  C   UNL     1       1.814  -2.106   0.000  0.00  0.00    +0.081 C 
ATOM     12  N   UNL     1       1.065  -1.759   0.000  0.00  0.00    -0.272 NA
ATOM     13  C   UNL     1       1.205  -0.720   0.000  0.00  0.00    +0.072 C 
ATOM     14  C   UNL     1       0.961  -0.114   0.000  0.00  0.00    +0.018 C 
ATOM     15  C   UNL     1       0.923  -1.010   0.000  0.00  0.00    +0.013 C 
ATOM     16  C   UNL     1       0.119  -1.362   0.000  0.00  0.00    +0.019 C 
ATOM     17  C   UNL     1       0.226  -2.118   0.000  0.00  0.00    +0.082 C 
ENDROOT
BRANCH  10   8
ATOM      7  N   UNL     1       2.184  -0.013   0.000  0.00  0.00    -0.201 NA
ATOM      8  C   UNL     1       2.307  -0.828   0.000  0.00  0.00    +0.243 C 
ATOM      9  O   UNL     1       3.075  -1.130   0.000  0.00  0.00    -0.273 OA
BRANCH   7   6
ATOM      6  C   UNL     1       2.829   0.501   0.000  0.00  0.00    +0.141 C 
BRANCH   6   5
ATOM      1  F   UNL     1       2.339   3.765   0.000  0.00  0.00    -0.204 F 
ATOM      2  C   UNL     1       2.462   2.949   0.000  0.00  0.00    +0.140 A 
ATOM      3  C   UNL     1       3.229   2.647   0.000  0.00  0.00    +0.029 A 
ATOM      4  C   UNL     1       3.352   1.831   0.000  0.00  0.00    -0.000 A 
ATOM      5  C   UNL     1       2.707   1.317   0.000  0.00  0.00    -0.000 A 
ATOM     36  C   UNL     1       1.939   1.619   0.000  0.00  0.00    -0.000 A 
ATOM     37  C   UNL     1       1.816   2.435   0.000  0.00  0.00    +0.029 A 
ENDBRANCH   6   5
ENDBRANCH   7   6
ENDBRANCH  10   8
BRANCH  17  18
ATOM     18  C   UNL     1      -0.179  -2.836   0.000  0.00  0.00    +0.145 C 
BRANCH  18  19
ATOM     19  N   UNL     1      -1.004  -2.845   0.000  0.00  0.00    -0.229 N 
ATOM     20  C   UNL     1      -1.481  -3.518   0.000  0.00  0.00    +0.118 A 
ATOM     21  C   UNL     1      -2.269  -3.271   0.000  0.00  0.00    +0.123 A 
ATOM     22  N   UNL     1      -2.277  -2.446   0.000  0.00  0.00    -0.129 NA
ATOM     23  N   UNL     1      -1.496  -2.183   0.000  0.00  0.00    -0.064 NA
BRANCH  21  24
ATOM     24  C   UNL     1      -2.931  -3.763   0.000  0.00  0.00    +0.021 A 
ATOM     25  C   UNL     1      -2.836  -4.583   0.000  0.00  0.00    +0.002 A 
ATOM     26  C   UNL     1      -3.498  -5.075   0.000  0.00  0.00    +0.000 A 
ATOM     27  C   UNL     1      -4.255  -4.747   0.000  0.00  0.00    +0.000 A 
ATOM     28  C   UNL     1      -4.350  -3.928   0.000  0.00  0.00    +0.000 A 
ATOM     29  C   UNL     1      -3.688  -3.436   0.000  0.00  0.00    +0.002 A 
BRANCH  27  30
ATOM     30  C   UNL     1      -4.917  -5.239   0.000  0.00  0.00    +0.000 A 
ATOM     31  C   UNL     1      -4.822  -6.059   0.000  0.00  0.00    +0.000 A 
ATOM     32  C   UNL     1      -5.485  -6.551   0.000  0.00  0.00    +0.000 A 
ATOM     33  C   UNL     1      -6.242  -6.224   0.000  0.00  0.00    +0.000 A 
ATOM     34  C   UNL     1      -6.337  -5.404   0.000  0.00  0.00    +0.000 A 
ATOM     35  C   UNL     1      -5.675  -4.912   0.000  0.00  0.00    +0.000 A 
ENDBRANCH  27  30
ENDBRANCH  21  24
ENDBRANCH  18  19
ENDBRANCH  17  18
TORSDOF 7
