MODEL 1
REMARK VINA RESULT:     -14.4      0.000      0.000
REMARK  Name = 
REMARK  3 active torsions:
REMARK  status: ('A' for Active; 'I' for Inactive)
REMARK    1  A    between atoms: C_2  and  C_5
REMARK    2  A    between atoms: C_12  and  C_14
REMARK    3  A    between atoms: C_19  and  C_21
REMARK                            x       y       z     vdW  Elec       q    Type
REMARK                         _______ _______ _______ _____ _____    ______ ____
ROOT
ATOM      5  C   UNL     1      -3.658  -1.996  24.540  0.00  0.00    +0.073 A 
ATOM      6  C   UNL     1      -4.048  -1.365  24.179  0.00  0.00    +0.025 A 
ATOM      7  C   UNL     1      -4.151  -0.655  24.587  0.00  0.00    +0.100 A 
ATOM      8  C   UNL     1      -3.864  -0.577  25.357  0.00  0.00    +0.100 A 
ATOM      9  C   UNL     1      -3.474  -1.209  25.718  0.00  0.00    +0.021 A 
ATOM     10  C   UNL     1      -3.372  -1.918  25.309  0.00  0.00    +0.005 A 
ATOM     11  N   UNL     1      -4.046   0.182  25.621  0.00  0.00    -0.229 NA
ATOM     12  C   UNL     1      -4.444   0.574  25.015  0.00  0.00    +0.140 A 
ATOM     13  N   UNL     1      -4.509   0.056  24.376  0.00  0.00    -0.229 NA
ENDROOT
BRANCH  12  14
ATOM     14  C   UNL     1      -4.729   1.348  25.042  0.00  0.00    +0.080 C 
ATOM     15  C   UNL     1      -5.519   1.577  24.983  0.00  0.00    +0.031 C 
ATOM     16  C   UNL     1      -5.552   2.400  25.038  0.00  0.00    +0.094 C 
ATOM     17  N   UNL     1      -4.781   2.679  25.131  0.00  0.00    -0.276 N 
ATOM     18  C   UNL     1      -4.273   2.029  25.133  0.00  0.00    +0.101 C 
ATOM     19  C   UNL     1      -4.558   3.470  25.208  0.00  0.00    +0.249 C 
ATOM     20  O   UNL     1      -5.131   4.063  25.195  0.00  0.00    -0.270 OA
BRANCH  19  21
ATOM     21  C   UNL     1      -3.762   3.667  25.297  0.00  0.00    +0.054 A 
ATOM     22  C   UNL     1      -3.446   3.779  26.052  0.00  0.00    +0.005 A 
ATOM     23  C   UNL     1      -2.651   3.976  26.140  0.00  0.00    +0.000 A 
ATOM     24  C   UNL     1      -2.170   4.062  25.475  0.00  0.00    +0.000 A 
ATOM     25  C   UNL     1      -2.485   3.951  24.721  0.00  0.00    +0.000 A 
ATOM     26  C   UNL     1      -3.282   3.753  24.631  0.00  0.00    +0.005 A 
ENDBRANCH  19  21
ENDBRANCH  12  14
BRANCH   5   2
ATOM      1  F   UNL     1      -3.452  -3.415  23.723  0.00  0.00    -0.166 F 
ATOM      2  C   UNL     1      -3.556  -2.705  24.131  0.00  0.00    +0.419 C 
ATOM      3  F   UNL     1      -4.372  -2.821  24.125  0.00  0.00    -0.166 F 
ATOM      4  F   UNL     1      -2.738  -2.590  24.137  0.00  0.00    -0.166 F 
ENDBRANCH   5   2
TORSDOF 3
ENDMDL
MODEL 2
REMARK VINA RESULT:     -13.2      1.953      2.443
REMARK  Name = 
REMARK  3 active torsions:
REMARK  status: ('A' for Active; 'I' for Inactive)
REMARK    1  A    between atoms: C_2  and  C_5
REMARK    2  A    between atoms: C_12  and  C_14
REMARK    3  A    between atoms: C_19  and  C_21
REMARK                            x       y       z     vdW  Elec       q    Type
REMARK                         _______ _______ _______ _____ _____    ______ ____
ROOT
ATOM      5  C   UNL     1      -3.708  -1.751  24.436  0.00  0.00    +0.073 A 
ATOM      6  C   UNL     1      -3.311  -1.108  24.104  0.00  0.00    +0.025 A 
ATOM      7  C   UNL     1      -2.819  -0.640  24.573  0.00  0.00    +0.100 A 
ATOM      8  C   UNL     1      -2.723  -0.815  25.373  0.00  0.00    +0.100 A 
ATOM      9  C   UNL     1      -3.121  -1.458  25.705  0.00  0.00    +0.021 A 
ATOM     10  C   UNL     1      -3.613  -1.926  25.236  0.00  0.00    +0.005 A 
ATOM     11  N   UNL     1      -2.206  -0.260  25.696  0.00  0.00    -0.229 NA
ATOM     12  C   UNL     1      -1.981   0.258  25.095  0.00  0.00    +0.140 A 
ATOM     13  N   UNL     1      -2.360   0.023  24.401  0.00  0.00    -0.229 NA
ENDROOT
BRANCH  12  14
ATOM     14  C   UNL     1      -1.468   0.899  25.174  0.00  0.00    +0.080 C 
ATOM     15  C   UNL     1      -0.644   0.863  25.178  0.00  0.00    +0.031 C 
ATOM     16  C   UNL     1      -0.354   1.630  25.269  0.00  0.00    +0.094 C 
ATOM     17  N   UNL     1      -1.000   2.141  25.322  0.00  0.00    -0.276 N 
ATOM     18  C   UNL     1      -1.688   1.689  25.264  0.00  0.00    +0.101 C 
ATOM     19  C   UNL     1      -0.965   2.959  25.417  0.00  0.00    +0.249 C 
ATOM     20  O   UNL     1      -0.233   3.338  25.468  0.00  0.00    -0.270 OA
BRANCH  19  21
ATOM     21  C   UNL     1      -1.661   3.400  25.462  0.00  0.00    +0.054 A 
ATOM     22  C   UNL     1      -2.005   3.556  26.196  0.00  0.00    +0.005 A 
ATOM     23  C   UNL     1      -2.700   3.997  26.239  0.00  0.00    +0.000 A 
ATOM     24  C   UNL     1      -3.052   4.283  25.551  0.00  0.00    +0.000 A 
ATOM     25  C   UNL     1      -2.709   4.127  24.817  0.00  0.00    +0.000 A 
ATOM     26  C   UNL     1      -2.012   3.686  24.772  0.00  0.00    +0.005 A 
ENDBRANCH  19  21
ENDBRANCH  12  14
BRANCH   5   2
ATOM      1  F   UNL     1      -4.692  -2.686  23.498  0.00  0.00    -0.166 F 
ATOM      2  C   UNL     1      -4.200  -2.218  23.967  0.00  0.00    +0.419 C 
ATOM      3  F   UNL     1      -4.728  -1.589  23.894  0.00  0.00    -0.166 F 
ATOM      4  F   UNL     1      -3.671  -2.848  24.040  0.00  0.00    -0.166 F 
ENDBRANCH   5   2
TORSDOF 3
ENDMDL
MODEL 3
REMARK VINA RESULT:     -13.0      3.014      5.207
REMARK  Name = 
REMARK  3 active torsions:
REMARK  status: ('A' for Active; 'I' for Inactive)
REMARK    1  A    between atoms: C_2  and  C_5
REMARK    2  A    between atoms: C_12  and  C_14
REMARK    3  A    between atoms: C_19  and  C_21
REMARK                            x       y       z     vdW  Elec       q    Type
REMARK                         _______ _______ _______ _____ _____    ______ ____
ROOT
ATOM      5  C   UNL     1      -1.635   4.460  25.190  0.00  0.00    +0.073 A 
ATOM      6  C   UNL     1      -1.777   3.778  24.749  0.00  0.00    +0.025 A 
ATOM      7  C   UNL     1      -2.438   3.312  24.910  0.00  0.00    +0.100 A 
ATOM      8  C   UNL     1      -2.958   3.529  25.513  0.00  0.00    +0.100 A 
ATOM      9  C   UNL     1      -2.816   4.212  25.954  0.00  0.00    +0.021 A 
ATOM     10  C   UNL     1      -2.155   4.677  25.792  0.00  0.00    +0.005 A 
ATOM     11  N   UNL     1      -3.560   2.966  25.545  0.00  0.00    -0.229 NA
ATOM     12  C   UNL     1      -3.412   2.401  24.963  0.00  0.00    +0.140 A 
ATOM     13  N   UNL     1      -2.719   2.615  24.571  0.00  0.00    -0.229 NA
ENDROOT
BRANCH  12  14
ATOM     14  C   UNL     1      -3.876   1.738  24.802  0.00  0.00    +0.080 C 
ATOM     15  C   UNL     1      -4.658   1.745  24.540  0.00  0.00    +0.031 C 
ATOM     16  C   UNL     1      -4.906   0.964  24.450  0.00  0.00    +0.094 C 
ATOM     17  N   UNL     1      -4.276   0.472  24.656  0.00  0.00    -0.276 N 
ATOM     18  C   UNL     1      -3.639   0.951  24.874  0.00  0.00    +0.101 C 
ATOM     19  C   UNL     1      -4.280  -0.352  24.647  0.00  0.00    +0.249 C 
ATOM     20  O   UNL     1      -4.960  -0.759  24.416  0.00  0.00    -0.270 OA
BRANCH  19  21
ATOM     21  C   UNL     1      -3.605  -0.772  24.869  0.00  0.00    +0.054 A 
ATOM     22  C   UNL     1      -3.488  -0.977  25.660  0.00  0.00    +0.005 A 
ATOM     23  C   UNL     1      -2.813  -1.396  25.881  0.00  0.00    +0.000 A 
ATOM     24  C   UNL     1      -2.255  -1.611  25.313  0.00  0.00    +0.000 A 
ATOM     25  C   UNL     1      -2.372  -1.405  24.522  0.00  0.00    +0.000 A 
ATOM     26  C   UNL     1      -3.047  -0.986  24.300  0.00  0.00    +0.005 A 
ENDBRANCH  19  21
ENDBRANCH  12  14
BRANCH   5   2
ATOM      1  F   UNL     1      -0.311   5.391  24.867  0.00  0.00    -0.166 F 
ATOM      2  C   UNL     1      -0.974   4.925  25.028  0.00  0.00    +0.419 C 
ATOM      3  F   UNL     1      -1.465   5.555  24.823  0.00  0.00    -0.166 F 
ATOM      4  F   UNL     1      -0.480   4.296  25.233  0.00  0.00    -0.166 F 
ENDBRANCH   5   2
TORSDOF 3
ENDMDL
MODEL 4
REMARK VINA RESULT:     -12.8      3.640      5.819
REMARK  Name = 
REMARK  3 active torsions:
REMARK  status: ('A' for Active; 'I' for Inactive)
REMARK    1  A    between atoms: C_2  and  C_5
REMARK    2  A    between atoms: C_12  and  C_14
REMARK    3  A    between atoms: C_19  and  C_21
REMARK                            x       y       z     vdW  Elec       q    Type
REMARK                         _______ _______ _______ _____ _____    ______ ____
ROOT
ATOM      5  C   UNL     1      -1.540   4.338  25.127  0.00  0.00    +0.073 A 
ATOM      6  C   UNL     1      -0.992   3.728  25.036  0.00  0.00    +0.025 A 
ATOM      7  C   UNL     1      -1.246   2.943  25.027  0.00  0.00    +0.100 A 
ATOM      8  C   UNL     1      -2.047   2.768  25.110  0.00  0.00    +0.100 A 
ATOM      9  C   UNL     1      -2.596   3.378  25.202  0.00  0.00    +0.021 A 
ATOM     10  C   UNL     1      -2.342   4.163  25.211  0.00  0.00    +0.005 A 
ATOM     11  N   UNL     1      -2.134   1.948  25.081  0.00  0.00    -0.229 NA
ATOM     12  C   UNL     1      -1.386   1.617  24.979  0.00  0.00    +0.140 A 
ATOM     13  N   UNL     1      -0.837   2.232  24.946  0.00  0.00    -0.229 NA
ENDROOT
BRANCH  12  14
ATOM     14  C   UNL     1      -1.216   0.811  24.921  0.00  0.00    +0.080 C 
ATOM     15  C   UNL     1      -0.463   0.476  24.888  0.00  0.00    +0.031 C 
ATOM     16  C   UNL     1      -0.550  -0.343  24.833  0.00  0.00    +0.094 C 
ATOM     17  N   UNL     1      -1.358  -0.513  24.832  0.00  0.00    -0.276 N 
ATOM     18  C   UNL     1      -1.769   0.200  24.887  0.00  0.00    +0.101 C 
ATOM     19  C   UNL     1      -1.695  -1.264  24.784  0.00  0.00    +0.249 C 
ATOM     20  O   UNL     1      -1.212  -1.931  24.732  0.00  0.00    -0.270 OA
BRANCH  19  21
ATOM     21  C   UNL     1      -2.516  -1.350  24.789  0.00  0.00    +0.054 A 
ATOM     22  C   UNL     1      -2.919  -1.417  25.506  0.00  0.00    +0.005 A 
ATOM     23  C   UNL     1      -3.740  -1.503  25.510  0.00  0.00    +0.000 A 
ATOM     24  C   UNL     1      -4.157  -1.520  24.799  0.00  0.00    +0.000 A 
ATOM     25  C   UNL     1      -3.753  -1.453  24.082  0.00  0.00    +0.000 A 
ATOM     26  C   UNL     1      -2.932  -1.367  24.077  0.00  0.00    +0.005 A 
ENDBRANCH  19  21
ENDBRANCH  12  14
BRANCH   5   2
ATOM      1  F   UNL     1      -1.033   5.908  25.145  0.00  0.00    -0.166 F 
ATOM      2  C   UNL     1      -1.286   5.122  25.136  0.00  0.00    +0.419 C 
ATOM      3  F   UNL     1      -0.719   4.946  24.564  0.00  0.00    -0.166 F 
ATOM      4  F   UNL     1      -1.854   5.300  25.708  0.00  0.00    -0.166 F 
ENDBRANCH   5   2
TORSDOF 3
ENDMDL
