MODEL 1
REMARK VINA RESULT:      -9.6      0.000      0.000
REMARK  Name = 
REMARK  5 active torsions:
REMARK  status: ('A' for Active; 'I' for Inactive)
REMARK    1  A    between atoms: O_2  and  C_3
REMARK    2  A    between atoms: C_3  and  C_4
REMARK    3  A    between atoms: N_6  and  C_7
REMARK    4  A    between atoms: C_11  and  N_15
REMARK    5  A    between atoms: C_19  and  C_20
REMARK                            x       y       z     vdW  Elec       q    Type
REMARK                         _______ _______ _______ _____ _____    ______ ____
ROOT
ATOM      7  C   UNL     1      -0.745   0.681  24.016  0.00  0.00    +0.154 C 
ATOM      8  C   UNL     1      -1.176   1.095  23.447  0.00  0.00    +0.166 C 
ATOM      9  O   UNL     1      -1.969   1.085  23.673  0.00  0.00    -0.350 OA
ATOM     10  C   UNL     1      -2.028   0.666  24.380  0.00  0.00    +0.169 C 
ATOM     11  C   UNL     1      -2.554   0.401  24.958  0.00  0.00    +0.167 C 
ATOM     12  C   UNL     1      -2.123  -0.012  25.526  0.00  0.00    +0.169 C 
ATOM     13  O   UNL     1      -1.330  -0.003  25.301  0.00  0.00    -0.350 OA
ATOM     14  C   UNL     1      -1.271   0.417  24.592  0.00  0.00    +0.167 C 
ENDROOT
BRANCH  11  15
ATOM     15  N   UNL     1      -3.370   0.527  24.965  0.00  0.00    -0.210 N 
ATOM     16  N   UNL     1      -3.748   1.258  25.035  0.00  0.00    -0.043 NA
ATOM     17  N   UNL     1      -4.562   1.127  25.017  0.00  0.00    -0.023 NA
ATOM     18  N   UNL     1      -4.687   0.316  24.935  0.00  0.00    -0.108 NA
ATOM     19  C   UNL     1      -3.951  -0.055  24.903  0.00  0.00    +0.184 A 
BRANCH  19  20
ATOM     20  C   UNL     1      -3.819  -0.865  24.823  0.00  0.00    +0.037 A 
ATOM     21  C   UNL     1      -3.632  -1.321  25.486  0.00  0.00    +0.003 A 
ATOM     22  C   UNL     1      -3.500  -2.131  25.405  0.00  0.00    +0.000 A 
ATOM     23  C   UNL     1      -3.556  -2.487  24.662  0.00  0.00    +0.000 A 
ATOM     24  C   UNL     1      -3.744  -2.031  24.000  0.00  0.00    +0.000 A 
ATOM     25  C   UNL     1      -3.875  -1.221  24.081  0.00  0.00    +0.003 A 
ENDBRANCH  19  20
ENDBRANCH  11  15
BRANCH   7   6
ATOM      4  C   UNL     1       0.440   0.276  23.325  0.00  0.00    +0.272 C 
ATOM      5  O   UNL     1      -0.008   0.124  22.648  0.00  0.00    -0.271 OA
ATOM      6  N   UNL     1       0.071   0.555  24.009  0.00  0.00    -0.200 NA
BRANCH   4   3
ATOM      3  C   UNL     1       1.254   0.150  23.318  0.00  0.00    +0.229 C 
BRANCH   3   2
ATOM      1  C   UNL     1       2.469   0.043  22.573  0.00  0.00    +0.175 C 
ATOM      2  O   UNL     1       1.646   0.019  22.603  0.00  0.00    -0.342 OA
ENDBRANCH   3   2
ENDBRANCH   4   3
ENDBRANCH   7   6
TORSDOF 5
ENDMDL
MODEL 2
REMARK VINA RESULT:      -9.6      1.943      2.883
REMARK  Name = 
REMARK  5 active torsions:
REMARK  status: ('A' for Active; 'I' for Inactive)
REMARK    1  A    between atoms: O_2  and  C_3
REMARK    2  A    between atoms: C_3  and  C_4
REMARK    3  A    between atoms: N_6  and  C_7
REMARK    4  A    between atoms: C_11  and  N_15
REMARK    5  A    between atoms: C_19  and  C_20
REMARK                            x       y       z     vdW  Elec       q    Type
REMARK                         _______ _______ _______ _____ _____    ______ ____
ROOT
ATOM      7  C   UNL     1      -0.589   1.390  24.640  0.00  0.00    +0.154 C 
ATOM      8  C   UNL     1      -0.490   1.118  23.868  0.00  0.00    +0.166 C 
ATOM      9  O   UNL     1      -0.732   0.330  23.842  0.00  0.00    -0.350 OA
ATOM     10  C   UNL     1      -0.981   0.115  24.597  0.00  0.00    +0.169 C 
ATOM     11  C   UNL     1      -1.285  -0.505  25.050  0.00  0.00    +0.167 C 
ATOM     12  C   UNL     1      -1.384  -0.234  25.822  0.00  0.00    +0.169 C 
ATOM     13  O   UNL     1      -1.142   0.554  25.848  0.00  0.00    -0.350 OA
ATOM     14  C   UNL     1      -0.893   0.770  25.091  0.00  0.00    +0.167 C 
ENDROOT
BRANCH  11  15
ATOM     15  N   UNL     1      -1.459  -1.264  24.776  0.00  0.00    -0.210 N 
ATOM     16  N   UNL     1      -0.909  -1.841  24.562  0.00  0.00    -0.043 NA
ATOM     17  N   UNL     1      -1.323  -2.512  24.323  0.00  0.00    -0.023 NA
ATOM     18  N   UNL     1      -2.129  -2.351  24.388  0.00  0.00    -0.108 NA
ATOM     19  C   UNL     1      -2.213  -1.580  24.668  0.00  0.00    +0.184 A 
BRANCH  19  20
ATOM     20  C   UNL     1      -2.927  -1.192  24.815  0.00  0.00    +0.037 A 
ATOM     21  C   UNL     1      -3.333  -0.828  24.196  0.00  0.00    +0.003 A 
ATOM     22  C   UNL     1      -4.046  -0.440  24.343  0.00  0.00    +0.000 A 
ATOM     23  C   UNL     1      -4.353  -0.416  25.109  0.00  0.00    +0.000 A 
ATOM     24  C   UNL     1      -3.946  -0.781  25.727  0.00  0.00    +0.000 A 
ATOM     25  C   UNL     1      -3.233  -1.168  25.580  0.00  0.00    +0.003 A 
ENDBRANCH  19  20
ENDBRANCH  11  15
BRANCH   7   6
ATOM      4  C   UNL     1      -0.737   2.808  24.535  0.00  0.00    +0.272 C 
ATOM      5  O   UNL     1      -1.232   2.707  23.883  0.00  0.00    -0.271 OA
ATOM      6  N   UNL     1      -0.415   2.149  24.914  0.00  0.00    -0.200 NA
BRANCH   4   3
ATOM      3  C   UNL     1      -0.563   3.566  24.808  0.00  0.00    +0.229 C 
BRANCH   3   2
ATOM      1  C   UNL     1      -0.942   4.931  24.994  0.00  0.00    +0.175 C 
ATOM      2  O   UNL     1      -1.110   4.176  24.709  0.00  0.00    -0.342 OA
ENDBRANCH   3   2
ENDBRANCH   4   3
ENDBRANCH   7   6
TORSDOF 5
ENDMDL
MODEL 3
REMARK VINA RESULT:      -9.6      2.201      4.405
REMARK  Name = 
REMARK  5 active torsions:
REMARK  status: ('A' for Active; 'I' for Inactive)
REMARK    1  A    between atoms: O_2  and  C_3
REMARK    2  A    between atoms: C_3  and  C_4
REMARK    3  A    between atoms: N_6  and  C_7
REMARK    4  A    between atoms: C_11  and  N_15
REMARK    5  A    between atoms: C_19  and  C_20
REMARK                            x       y       z     vdW  Elec       q    Type
REMARK                         _______ _______ _______ _____ _____    ______ ____
ROOT
ATOM      7  C   UNL     1      -3.723   0.678  24.341  0.00  0.00    +0.154 C 
ATOM      8  C   UNL     1      -4.164   0.997  24.960  0.00  0.00    +0.166 C 
ATOM      9  O   UNL     1      -3.892   1.764  25.097  0.00  0.00    -0.350 OA
ATOM     10  C   UNL     1      -3.283   1.918  24.564  0.00  0.00    +0.169 C 
ATOM     11  C   UNL     1      -2.738   2.486  24.317  0.00  0.00    +0.167 C 
ATOM     12  C   UNL     1      -2.297   2.167  23.698  0.00  0.00    +0.169 C 
ATOM     13  O   UNL     1      -2.570   1.401  23.560  0.00  0.00    -0.350 OA
ATOM     14  C   UNL     1      -3.179   1.247  24.095  0.00  0.00    +0.167 C 
ENDROOT
BRANCH  11  15
ATOM     15  N   UNL     1      -2.650   3.243  24.636  0.00  0.00    -0.210 N 
ATOM     16  N   UNL     1      -3.209   3.850  24.608  0.00  0.00    -0.043 NA
ATOM     17  N   UNL     1      -2.891   4.506  24.993  0.00  0.00    -0.023 NA
ATOM     18  N   UNL     1      -2.137   4.306  25.259  0.00  0.00    -0.108 NA
ATOM     19  C   UNL     1      -1.988   3.525  25.038  0.00  0.00    +0.184 A 
BRANCH  19  20
ATOM     20  C   UNL     1      -1.297   3.101  25.194  0.00  0.00    +0.037 A 
ATOM     21  C   UNL     1      -0.703   3.055  24.622  0.00  0.00    +0.003 A 
ATOM     22  C   UNL     1      -0.013   2.631  24.777  0.00  0.00    +0.000 A 
ATOM     23  C   UNL     1       0.084   2.252  25.504  0.00  0.00    +0.000 A 
ATOM     24  C   UNL     1      -0.510   2.298  26.075  0.00  0.00    +0.000 A 
ATOM     25  C   UNL     1      -1.200   2.722  25.920  0.00  0.00    +0.003 A 
ENDBRANCH  19  20
ENDBRANCH  11  15
BRANCH   7   6
ATOM      4  C   UNL     1      -3.973  -0.719  24.517  0.00  0.00    +0.272 C 
ATOM      5  O   UNL     1      -4.045  -0.602  25.331  0.00  0.00    -0.271 OA
ATOM      6  N   UNL     1      -3.812  -0.078  24.022  0.00  0.00    -0.200 NA
BRANCH   4   3
ATOM      3  C   UNL     1      -4.061  -1.474  24.199  0.00  0.00    +0.229 C 
BRANCH   3   2
ATOM      1  C   UNL     1      -3.752  -2.869  24.242  0.00  0.00    +0.175 C 
ATOM      2  O   UNL     1      -3.776  -2.131  24.609  0.00  0.00    -0.342 OA
ENDBRANCH   3   2
ENDBRANCH   4   3
ENDBRANCH   7   6
TORSDOF 5
ENDMDL
MODEL 4
REMARK VINA RESULT:      -9.5      2.645      4.232
REMARK  Name = 
REMARK  5 active torsions:
REMARK  status: ('A' for Active; 'I' for Inactive)
REMARK    1  A    between atoms: O_2  and  C_3
REMARK    2  A    between atoms: C_3  and  C_4
REMARK    3  A    between atoms: N_6  and  C_7
REMARK    4  A    between atoms: C_11  and  N_15
REMARK    5  A    between atoms: C_19  and  C_20
REMARK                            x       y       z     vdW  Elec       q    Type
REMARK                         _______ _______ _______ _____ _____    ______ ____
ROOT
ATOM      7  C   UNL     1      -3.913   0.168  24.676  0.00  0.00    +0.154 C 
ATOM      8  C   UNL     1      -4.379   0.131  25.355  0.00  0.00    +0.166 C 
ATOM      9  O   UNL     1      -4.662   0.890  25.510  0.00  0.00    -0.350 OA
ATOM     10  C   UNL     1      -4.372   1.396  24.927  0.00  0.00    +0.169 C 
ATOM     11  C   UNL     1      -4.366   2.177  24.662  0.00  0.00    +0.167 C 
ATOM     12  C   UNL     1      -3.900   2.213  23.983  0.00  0.00    +0.169 C 
ATOM     13  O   UNL     1      -3.617   1.454  23.828  0.00  0.00    -0.350 OA
ATOM     14  C   UNL     1      -3.908   0.949  24.412  0.00  0.00    +0.167 C 
ENDROOT
BRANCH  11  15
ATOM     15  N   UNL     1      -4.759   2.811  25.015  0.00  0.00    -0.210 N 
ATOM     16  N   UNL     1      -5.576   2.882  25.114  0.00  0.00    -0.043 NA
ATOM     17  N   UNL     1      -5.725   3.600  25.491  0.00  0.00    -0.023 NA
ATOM     18  N   UNL     1      -5.002   3.973  25.625  0.00  0.00    -0.108 NA
ATOM     19  C   UNL     1      -4.405   3.485  25.331  0.00  0.00    +0.184 A 
BRANCH  19  20
ATOM     20  C   UNL     1      -3.596   3.644  25.350  0.00  0.00    +0.037 A 
ATOM     21  C   UNL     1      -3.156   3.468  26.027  0.00  0.00    +0.003 A 
ATOM     22  C   UNL     1      -2.347   3.627  26.045  0.00  0.00    +0.000 A 
ATOM     23  C   UNL     1      -1.977   3.963  25.388  0.00  0.00    +0.000 A 
ATOM     24  C   UNL     1      -2.417   4.139  24.713  0.00  0.00    +0.000 A 
ATOM     25  C   UNL     1      -3.226   3.980  24.694  0.00  0.00    +0.003 A 
ENDBRANCH  19  20
ENDBRANCH  11  15
BRANCH   7   6
ATOM      4  C   UNL     1      -3.340  -1.139  24.766  0.00  0.00    +0.272 C 
ATOM      5  O   UNL     1      -3.554  -1.177  25.562  0.00  0.00    -0.271 OA
ATOM      6  N   UNL     1      -3.520  -0.466  24.323  0.00  0.00    -0.200 NA
BRANCH   4   3
ATOM      3  C   UNL     1      -2.948  -1.773  24.413  0.00  0.00    +0.229 C 
BRANCH   3   2
ATOM      1  C   UNL     1      -1.827  -2.659  24.394  0.00  0.00    +0.175 C 
ATOM      2  O   UNL     1      -2.316  -2.134  24.801  0.00  0.00    -0.342 OA
ENDBRANCH   3   2
ENDBRANCH   4   3
ENDBRANCH   7   6
TORSDOF 5
ENDMDL
MODEL 5
REMARK VINA RESULT:      -9.5      2.669      4.024
REMARK  Name = 
REMARK  5 active torsions:
REMARK  status: ('A' for Active; 'I' for Inactive)
REMARK    1  A    between atoms: O_2  and  C_3
REMARK    2  A    between atoms: C_3  and  C_4
REMARK    3  A    between atoms: N_6  and  C_7
REMARK    4  A    between atoms: C_11  and  N_15
REMARK    5  A    between atoms: C_19  and  C_20
REMARK                            x       y       z     vdW  Elec       q    Type
REMARK                         _______ _______ _______ _____ _____    ______ ____
ROOT
ATOM      7  C   UNL     1      -0.929   0.958  24.877  0.00  0.00    +0.154 C 
ATOM      8  C   UNL     1      -0.619   1.227  25.593  0.00  0.00    +0.166 C 
ATOM      9  O   UNL     1      -0.746   2.040  25.636  0.00  0.00    -0.350 OA
ATOM     10  C   UNL     1      -1.133   2.275  24.947  0.00  0.00    +0.169 C 
ATOM     11  C   UNL     1      -1.451   2.923  24.547  0.00  0.00    +0.167 C 
ATOM     12  C   UNL     1      -1.761   2.655  23.831  0.00  0.00    +0.169 C 
ATOM     13  O   UNL     1      -1.634   1.841  23.788  0.00  0.00    -0.350 OA
ATOM     14  C   UNL     1      -1.246   1.606  24.478  0.00  0.00    +0.167 C 
ENDROOT
BRANCH  11  15
ATOM     15  N   UNL     1      -1.458   3.703  24.817  0.00  0.00    -0.210 N 
ATOM     16  N   UNL     1      -0.799   4.193  24.904  0.00  0.00    -0.043 NA
ATOM     17  N   UNL     1      -1.059   4.922  25.187  0.00  0.00    -0.023 NA
ATOM     18  N   UNL     1      -1.878   4.884  25.275  0.00  0.00    -0.108 NA
ATOM     19  C   UNL     1      -2.124   4.131  25.047  0.00  0.00    +0.184 A 
BRANCH  19  20
ATOM     20  C   UNL     1      -2.902   3.854  25.048  0.00  0.00    +0.037 A 
ATOM     21  C   UNL     1      -3.341   3.854  24.349  0.00  0.00    +0.003 A 
ATOM     22  C   UNL     1      -4.118   3.577  24.350  0.00  0.00    +0.000 A 
ATOM     23  C   UNL     1      -4.457   3.300  25.050  0.00  0.00    +0.000 A 
ATOM     24  C   UNL     1      -4.017   3.301  25.748  0.00  0.00    +0.000 A 
ATOM     25  C   UNL     1      -3.240   3.577  25.747  0.00  0.00    +0.003 A 
ENDBRANCH  19  20
ENDBRANCH  11  15
BRANCH   7   6
ATOM      4  C   UNL     1      -1.113  -0.438  25.122  0.00  0.00    +0.272 C 
ATOM      5  O   UNL     1      -1.312  -0.273  25.906  0.00  0.00    -0.271 OA
ATOM      6  N   UNL     1      -0.922   0.178  24.607  0.00  0.00    -0.200 NA
BRANCH   4   3
ATOM      3  C   UNL     1      -1.107  -1.217  24.853  0.00  0.00    +0.229 C 
BRANCH   3   2
ATOM      1  C   UNL     1      -1.830  -2.421  24.587  0.00  0.00    +0.175 C 
ATOM      2  O   UNL     1      -1.753  -1.710  24.997  0.00  0.00    -0.342 OA
ENDBRANCH   3   2
ENDBRANCH   4   3
ENDBRANCH   7   6
TORSDOF 5
ENDMDL
MODEL 6
REMARK VINA RESULT:      -9.2      1.737      2.728
REMARK  Name = 
REMARK  5 active torsions:
REMARK  status: ('A' for Active; 'I' for Inactive)
REMARK    1  A    between atoms: O_2  and  C_3
REMARK    2  A    between atoms: C_3  and  C_4
REMARK    3  A    between atoms: N_6  and  C_7
REMARK    4  A    between atoms: C_11  and  N_15
REMARK    5  A    between atoms: C_19  and  C_20
REMARK                            x       y       z     vdW  Elec       q    Type
REMARK                         _______ _______ _______ _____ _____    ______ ____
ROOT
ATOM      7  C   UNL     1      -1.038   0.769  24.135  0.00  0.00    +0.154 C 
ATOM      8  C   UNL     1      -1.189   0.374  24.843  0.00  0.00    +0.166 C 
ATOM      9  O   UNL     1      -1.999   0.420  24.992  0.00  0.00    -0.350 OA
ATOM     10  C   UNL     1      -2.349   0.842  24.376  0.00  0.00    +0.169 C 
ATOM     11  C   UNL     1      -3.065   1.131  24.087  0.00  0.00    +0.167 C 
ATOM     12  C   UNL     1      -2.914   1.525  23.378  0.00  0.00    +0.169 C 
ATOM     13  O   UNL     1      -2.104   1.480  23.230  0.00  0.00    -0.350 OA
ATOM     14  C   UNL     1      -1.754   1.058  23.846  0.00  0.00    +0.167 C 
ENDROOT
BRANCH  11  15
ATOM     15  N   UNL     1      -3.804   1.041  24.444  0.00  0.00    -0.210 N 
ATOM     16  N   UNL     1      -4.210   0.330  24.545  0.00  0.00    -0.043 NA
ATOM     17  N   UNL     1      -4.923   0.496  24.926  0.00  0.00    -0.023 NA
ATOM     18  N   UNL     1      -4.957   1.309  25.060  0.00  0.00    -0.108 NA
ATOM     19  C   UNL     1      -4.265   1.646  24.762  0.00  0.00    +0.184 A 
BRANCH  19  20
ATOM     20  C   UNL     1      -4.070   2.447  24.779  0.00  0.00    +0.037 A 
ATOM     21  C   UNL     1      -3.716   2.772  25.451  0.00  0.00    +0.003 A 
ATOM     22  C   UNL     1      -3.521   3.573  25.467  0.00  0.00    +0.000 A 
ATOM     23  C   UNL     1      -3.679   4.050  24.813  0.00  0.00    +0.000 A 
ATOM     24  C   UNL     1      -4.032   3.725  24.142  0.00  0.00    +0.000 A 
ATOM     25  C   UNL     1      -4.227   2.924  24.125  0.00  0.00    +0.003 A 
ENDBRANCH  19  20
ENDBRANCH  11  15
BRANCH   7   6
ATOM      4  C   UNL     1       0.203   0.209  23.699  0.00  0.00    +0.272 C 
ATOM      5  O   UNL     1      -0.034  -0.531  23.977  0.00  0.00    -0.271 OA
ATOM      6  N   UNL     1      -0.299   0.859  23.778  0.00  0.00    -0.200 NA
BRANCH   4   3
ATOM      3  C   UNL     1       0.941   0.299  23.342  0.00  0.00    +0.229 C 
BRANCH   3   2
ATOM      1  C   UNL     1       1.911  -0.124  22.382  0.00  0.00    +0.175 C 
ATOM      2  O   UNL     1       1.176  -0.218  22.743  0.00  0.00    -0.342 OA
ENDBRANCH   3   2
ENDBRANCH   4   3
ENDBRANCH   7   6
TORSDOF 5
ENDMDL
MODEL 7
REMARK VINA RESULT:      -9.2      2.145      4.037
REMARK  Name = 
REMARK  5 active torsions:
REMARK  status: ('A' for Active; 'I' for Inactive)
REMARK    1  A    between atoms: O_2  and  C_3
REMARK    2  A    between atoms: C_3  and  C_4
REMARK    3  A    between atoms: N_6  and  C_7
REMARK    4  A    between atoms: C_11  and  N_15
REMARK    5  A    between atoms: C_19  and  C_20
REMARK                            x       y       z     vdW  Elec       q    Type
REMARK                         _______ _______ _______ _____ _____    ______ ____
ROOT
ATOM      7  C   UNL     1      -2.988   2.302  24.694  0.00  0.00    +0.154 C 
ATOM      8  C   UNL     1      -2.342   2.416  25.192  0.00  0.00    +0.166 C 
ATOM      9  O   UNL     1      -1.856   1.752  25.135  0.00  0.00    -0.350 OA
ATOM     10  C   UNL     1      -2.202   1.228  24.602  0.00  0.00    +0.169 C 
ATOM     11  C   UNL     1      -2.117   0.493  24.237  0.00  0.00    +0.167 C 
ATOM     12  C   UNL     1      -2.763   0.378  23.738  0.00  0.00    +0.169 C 
ATOM     13  O   UNL     1      -3.249   1.042  23.795  0.00  0.00    -0.350 OA
ATOM     14  C   UNL     1      -2.902   1.568  24.329  0.00  0.00    +0.167 C 
ENDROOT
BRANCH  11  15
ATOM     15  N   UNL     1      -1.493  -0.035  24.351  0.00  0.00    -0.210 N 
ATOM     16  N   UNL     1      -0.700   0.103  24.165  0.00  0.00    -0.043 NA
ATOM     17  N   UNL     1      -0.270  -0.571  24.370  0.00  0.00    -0.023 NA
ATOM     18  N   UNL     1      -0.795  -1.124  24.681  0.00  0.00    -0.108 NA
ATOM     19  C   UNL     1      -1.551  -0.793  24.669  0.00  0.00    +0.184 A 
BRANCH  19  20
ATOM     20  C   UNL     1      -2.244  -1.158  24.931  0.00  0.00    +0.037 A 
ATOM     21  C   UNL     1      -2.694  -1.613  24.409  0.00  0.00    +0.003 A 
ATOM     22  C   UNL     1      -3.386  -1.976  24.670  0.00  0.00    +0.000 A 
ATOM     23  C   UNL     1      -3.630  -1.885  25.454  0.00  0.00    +0.000 A 
ATOM     24  C   UNL     1      -3.180  -1.430  25.975  0.00  0.00    +0.000 A 
ATOM     25  C   UNL     1      -2.488  -1.067  25.713  0.00  0.00    +0.003 A 
ENDBRANCH  19  20
ENDBRANCH  11  15
BRANCH   7   6
ATOM      4  C   UNL     1      -3.901   3.271  25.214  0.00  0.00    +0.272 C 
ATOM      5  O   UNL     1      -3.565   3.184  25.963  0.00  0.00    -0.271 OA
ATOM      6  N   UNL     1      -3.612   2.830  24.580  0.00  0.00    -0.200 NA
BRANCH   4   3
ATOM      3  C   UNL     1      -4.524   3.799  25.101  0.00  0.00    +0.229 C 
BRANCH   3   2
ATOM      1  C   UNL     1      -5.820   4.276  25.468  0.00  0.00    +0.175 C 
ATOM      2  O   UNL     1      -5.164   3.801  25.622  0.00  0.00    -0.342 OA
ENDBRANCH   3   2
ENDBRANCH   4   3
ENDBRANCH   7   6
TORSDOF 5
ENDMDL
MODEL 8
REMARK VINA RESULT:      -9.0      2.192      3.457
REMARK  Name = 
REMARK  5 active torsions:
REMARK  status: ('A' for Active; 'I' for Inactive)
REMARK    1  A    between atoms: O_2  and  C_3
REMARK    2  A    between atoms: C_3  and  C_4
REMARK    3  A    between atoms: N_6  and  C_7
REMARK    4  A    between atoms: C_11  and  N_15
REMARK    5  A    between atoms: C_19  and  C_20
REMARK                            x       y       z     vdW  Elec       q    Type
REMARK                         _______ _______ _______ _____ _____    ______ ____
ROOT
ATOM      7  C   UNL     1      -3.307   2.341  24.536  0.00  0.00    +0.154 C 
ATOM      8  C   UNL     1      -3.963   2.158  25.002  0.00  0.00    +0.166 C 
ATOM      9  O   UNL     1      -4.094   1.345  24.948  0.00  0.00    -0.350 OA
ATOM     10  C   UNL     1      -3.519   1.026  24.451  0.00  0.00    +0.169 C 
ATOM     11  C   UNL     1      -3.244   0.327  24.109  0.00  0.00    +0.167 C 
ATOM     12  C   UNL     1      -2.589   0.510  23.644  0.00  0.00    +0.169 C 
ATOM     13  O   UNL     1      -2.458   1.322  23.697  0.00  0.00    -0.350 OA
ATOM     14  C   UNL     1      -3.033   1.642  24.196  0.00  0.00    +0.167 C 
ENDROOT
BRANCH  11  15
ATOM     15  N   UNL     1      -3.569  -0.424  24.215  0.00  0.00    -0.210 N 
ATOM     16  N   UNL     1      -4.318  -0.669  23.968  0.00  0.00    -0.043 NA
ATOM     17  N   UNL     1      -4.413  -1.458  24.187  0.00  0.00    -0.023 NA
ATOM     18  N   UNL     1      -3.725  -1.702  24.570  0.00  0.00    -0.108 NA
ATOM     19  C   UNL     1      -3.203  -1.063  24.587  0.00  0.00    +0.184 A 
BRANCH  19  20
ATOM     20  C   UNL     1      -2.447  -1.063  24.919  0.00  0.00    +0.037 A 
ATOM     21  C   UNL     1      -1.793  -1.262  24.456  0.00  0.00    +0.003 A 
ATOM     22  C   UNL     1      -1.039  -1.262  24.788  0.00  0.00    +0.000 A 
ATOM     23  C   UNL     1      -0.937  -1.062  25.583  0.00  0.00    +0.000 A 
ATOM     24  C   UNL     1      -1.591  -0.863  26.045  0.00  0.00    +0.000 A 
ATOM     25  C   UNL     1      -2.346  -0.864  25.713  0.00  0.00    +0.003 A 
ENDBRANCH  19  20
ENDBRANCH  11  15
BRANCH   7   6
ATOM      4  C   UNL     1      -2.864   3.586  25.080  0.00  0.00    +0.272 C 
ATOM      5  O   UNL     1      -3.071   3.328  25.837  0.00  0.00    -0.271 OA
ATOM      6  N   UNL     1      -2.982   3.092  24.430  0.00  0.00    -0.200 NA
BRANCH   4   3
ATOM      3  C   UNL     1      -2.539   4.337  24.974  0.00  0.00    +0.229 C 
BRANCH   3   2
ATOM      1  C   UNL     1      -1.409   5.196  25.134  0.00  0.00    +0.175 C 
ATOM      2  O   UNL     1      -1.861   4.556  25.390  0.00  0.00    -0.342 OA
ENDBRANCH   3   2
ENDBRANCH   4   3
ENDBRANCH   7   6
TORSDOF 5
ENDMDL
MODEL 9
REMARK VINA RESULT:      -8.9      2.314      4.618
REMARK  Name = 
REMARK  5 active torsions:
REMARK  status: ('A' for Active; 'I' for Inactive)
REMARK    1  A    between atoms: O_2  and  C_3
REMARK    2  A    between atoms: C_3  and  C_4
REMARK    3  A    between atoms: N_6  and  C_7
REMARK    4  A    between atoms: C_11  and  N_15
REMARK    5  A    between atoms: C_19  and  C_20
REMARK                            x       y       z     vdW  Elec       q    Type
REMARK                         _______ _______ _______ _____ _____    ______ ____
ROOT
ATOM      7  C   UNL     1      -2.287   0.152  24.699  0.00  0.00    +0.154 C 
ATOM      8  C   UNL     1      -1.988  -0.083  25.430  0.00  0.00    +0.166 C 
ATOM      9  O   UNL     1      -1.447   0.488  25.678  0.00  0.00    -0.350 OA
ATOM     10  C   UNL     1      -1.412   1.075  25.101  0.00  0.00    +0.169 C 
ATOM     11  C   UNL     1      -1.057   1.791  24.896  0.00  0.00    +0.167 C 
ATOM     12  C   UNL     1      -1.356   2.026  24.165  0.00  0.00    +0.169 C 
ATOM     13  O   UNL     1      -1.897   1.455  23.917  0.00  0.00    -0.350 OA
ATOM     14  C   UNL     1      -1.932   0.867  24.495  0.00  0.00    +0.167 C 
ENDROOT
BRANCH  11  15
ATOM     15  N   UNL     1      -0.499   2.201  25.346  0.00  0.00    -0.210 N 
ATOM     16  N   UNL     1       0.257   1.933  25.543  0.00  0.00    -0.043 NA
ATOM     17  N   UNL     1       0.624   2.517  25.996  0.00  0.00    -0.023 NA
ATOM     18  N   UNL     1       0.096   3.145  26.078  0.00  0.00    -0.108 NA
ATOM     19  C   UNL     1      -0.598   2.949  25.677  0.00  0.00    +0.184 A 
BRANCH  19  20
ATOM     20  C   UNL     1      -1.273   3.421  25.617  0.00  0.00    +0.037 A 
ATOM     21  C   UNL     1      -1.351   3.953  24.991  0.00  0.00    +0.003 A 
ATOM     22  C   UNL     1      -2.025   4.423  24.932  0.00  0.00    +0.000 A 
ATOM     23  C   UNL     1      -2.622   4.363  25.498  0.00  0.00    +0.000 A 
ATOM     24  C   UNL     1      -2.544   3.831  26.124  0.00  0.00    +0.000 A 
ATOM     25  C   UNL     1      -1.869   3.360  26.183  0.00  0.00    +0.003 A 
ENDBRANCH  19  20
ENDBRANCH  11  15
BRANCH   7   6
ATOM      4  C   UNL     1      -3.361  -0.789  24.615  0.00  0.00    +0.272 C 
ATOM      5  O   UNL     1      -3.317  -0.910  25.430  0.00  0.00    -0.271 OA
ATOM      6  N   UNL     1      -2.845  -0.258  24.249  0.00  0.00    -0.200 NA
BRANCH   4   3
ATOM      3  C   UNL     1      -3.918  -1.198  24.166  0.00  0.00    +0.229 C 
BRANCH   3   2
ATOM      1  C   UNL     1      -4.427  -2.451  23.704  0.00  0.00    +0.175 C 
ATOM      2  O   UNL     1      -4.011  -2.012  24.265  0.00  0.00    -0.342 OA
ENDBRANCH   3   2
ENDBRANCH   4   3
ENDBRANCH   7   6
TORSDOF 5
ENDMDL
