MODEL 1
REMARK VINA RESULT:     -10.5      0.000      0.000
REMARK  Name = 
REMARK  8 active torsions:
REMARK  status: ('A' for Active; 'I' for Inactive)
REMARK    1  A    between atoms: O_2  and  C_3
REMARK    2  A    between atoms: C_6  and  C_9
REMARK    3  A    between atoms: C_11  and  C_12
REMARK    4  A    between atoms: C_12  and  C_13
REMARK    5  A    between atoms: C_18  and  C_19
REMARK    6  A    between atoms: C_19  and  C_20
REMARK    7  A    between atoms: N_22  and  C_24
REMARK    8  A    between atoms: C_24  and  C_25
REMARK                            x       y       z     vdW  Elec       q    Type
REMARK                         _______ _______ _______ _____ _____    ______ ____
ROOT
ATOM     13  C   UNL     1      -4.750   2.707  24.947  0.00  0.00    +0.024 C 
ATOM     14  C   UNL     1      -5.518   2.627  25.238  0.00  0.00    +0.089 C 
ATOM     15  N   UNL     1      -5.820   3.186  25.764  0.00  0.00    -0.218 NA
ATOM     16  C   UNL     1      -5.353   3.825  26.000  0.00  0.00    +0.089 C 
ATOM     17  C   UNL     1      -4.586   3.905  25.708  0.00  0.00    +0.019 C 
ATOM     18  C   UNL     1      -4.284   3.346  25.182  0.00  0.00    +0.012 C 
ENDROOT
BRANCH  13  12
ATOM     12  C   UNL     1      -4.448   2.148  24.420  0.00  0.00    +0.051 C 
BRANCH  12  11
ATOM      9  C   UNL     1      -4.425   0.028  24.674  0.00  0.00    +0.177 A 
ATOM     10  C   UNL     1      -4.036   0.740  24.525  0.00  0.00    +0.058 A 
ATOM     11  C   UNL     1      -4.596   1.345  24.541  0.00  0.00    +0.101 A 
ATOM     28  N   UNL     1      -5.332   1.008  24.701  0.00  0.00    -0.081 NA
ATOM     29  O   UNL     1      -5.226   0.193  24.783  0.00  0.00    -0.354 OA
BRANCH   9   6
ATOM      3  C   UNL     1      -3.375  -2.211  24.777  0.00  0.00    +0.139 A 
ATOM      4  C   UNL     1      -3.832  -1.999  24.123  0.00  0.00    +0.037 A 
ATOM      5  C   UNL     1      -4.181  -1.252  24.089  0.00  0.00    +0.006 A 
ATOM      6  C   UNL     1      -4.075  -0.718  24.708  0.00  0.00    +0.037 A 
ATOM      7  C   UNL     1      -3.619  -0.930  25.362  0.00  0.00    +0.006 A 
ATOM      8  C   UNL     1      -3.269  -1.677  25.396  0.00  0.00    +0.037 A 
BRANCH   3   2
ATOM      1  C   UNL     1      -2.265  -3.072  24.511  0.00  0.00    +0.252 C 
ATOM      2  O   UNL     1      -3.025  -2.958  24.811  0.00  0.00    -0.471 OA
ENDBRANCH   3   2
ENDBRANCH   9   6
ENDBRANCH  12  11
ENDBRANCH  13  12
BRANCH  18  19
ATOM     19  C   UNL     1      -3.517   3.426  24.891  0.00  0.00    +0.085 C 
BRANCH  19  20
ATOM     20  C   UNL     1      -2.949   3.834  25.329  0.00  0.00    +0.226 C 
ATOM     21  O   UNL     1      -3.110   4.055  26.107  0.00  0.00    -0.275 OA
ATOM     22  N   UNL     1      -2.222   4.022  24.989  0.00  0.00    -0.269 N 
ATOM     23  C   UNL     1      -2.061   3.801  24.209  0.00  0.00    +0.115 C 
BRANCH  22  24
ATOM     24  C   UNL     1      -1.654   4.431  25.426  0.00  0.00    +0.183 C 
BRANCH  24  25
ATOM     25  C   UNL     1      -0.908   4.571  25.106  0.00  0.00    +0.281 C 
ATOM     26  N   UNL     1      -0.344   3.969  25.095  0.00  0.00    -0.086 NA
ATOM     27  O   UNL     1      -0.724   5.314  24.796  0.00  0.00    -0.270 OA
ENDBRANCH  24  25
ENDBRANCH  22  24
ENDBRANCH  19  20
ENDBRANCH  18  19
TORSDOF 8
ENDMDL
MODEL 2
REMARK VINA RESULT:      -9.4      1.989      3.696
REMARK  Name = 
REMARK  8 active torsions:
REMARK  status: ('A' for Active; 'I' for Inactive)
REMARK    1  A    between atoms: O_2  and  C_3
REMARK    2  A    between atoms: C_6  and  C_9
REMARK    3  A    between atoms: C_11  and  C_12
REMARK    4  A    between atoms: C_12  and  C_13
REMARK    5  A    between atoms: C_18  and  C_19
REMARK    6  A    between atoms: C_19  and  C_20
REMARK    7  A    between atoms: N_22  and  C_24
REMARK    8  A    between atoms: C_24  and  C_25
REMARK                            x       y       z     vdW  Elec       q    Type
REMARK                         _______ _______ _______ _____ _____    ______ ____
ROOT
ATOM     13  C   UNL     1      -1.220   3.634  25.578  0.00  0.00    +0.024 C 
ATOM     14  C   UNL     1      -0.496   3.878  25.266  0.00  0.00    +0.089 C 
ATOM     15  N   UNL     1      -0.451   4.573  24.825  0.00  0.00    -0.218 NA
ATOM     16  C   UNL     1      -1.129   5.026  24.696  0.00  0.00    +0.089 C 
ATOM     17  C   UNL     1      -1.852   4.781  25.009  0.00  0.00    +0.019 C 
ATOM     18  C   UNL     1      -1.898   4.086  25.450  0.00  0.00    +0.012 C 
ENDROOT
BRANCH  13  12
ATOM     12  C   UNL     1      -1.266   2.938  26.020  0.00  0.00    +0.051 C 
BRANCH  12  11
ATOM      9  C   UNL     1      -0.664   1.005  25.342  0.00  0.00    +0.177 A 
ATOM     10  C   UNL     1      -1.248   1.529  25.596  0.00  0.00    +0.058 A 
ATOM     11  C   UNL     1      -0.887   2.255  25.753  0.00  0.00    +0.101 A 
ATOM     28  N   UNL     1      -0.081   2.179  25.596  0.00  0.00    -0.081 NA
ATOM     29  O   UNL     1       0.057   1.406  25.342  0.00  0.00    -0.354 OA
BRANCH   9   6
ATOM      3  C   UNL     1      -1.014  -1.358  24.694  0.00  0.00    +0.139 A 
ATOM      4  C   UNL     1      -1.299  -1.082  25.418  0.00  0.00    +0.037 A 
ATOM      5  C   UNL     1      -1.182  -0.294  25.633  0.00  0.00    +0.006 A 
ATOM      6  C   UNL     1      -0.781   0.217  25.126  0.00  0.00    +0.037 A 
ATOM      7  C   UNL     1      -0.495  -0.058  24.402  0.00  0.00    +0.006 A 
ATOM      8  C   UNL     1      -0.613  -0.847  24.187  0.00  0.00    +0.037 A 
BRANCH   3   2
ATOM      1  C   UNL     1      -1.895  -2.449  24.417  0.00  0.00    +0.252 C 
ATOM      2  O   UNL     1      -1.130  -2.146  24.478  0.00  0.00    -0.471 OA
ENDBRANCH   3   2
ENDBRANCH   9   6
ENDBRANCH  12  11
ENDBRANCH  13  12
BRANCH  18  19
ATOM     19  C   UNL     1      -2.621   3.842  25.762  0.00  0.00    +0.085 C 
BRANCH  19  20
ATOM     20  C   UNL     1      -3.302   3.870  25.297  0.00  0.00    +0.226 C 
ATOM     21  O   UNL     1      -3.242   4.007  24.485  0.00  0.00    -0.275 OA
ATOM     22  N   UNL     1      -4.043   3.760  25.642  0.00  0.00    -0.269 N 
ATOM     23  C   UNL     1      -4.103   3.623  26.454  0.00  0.00    +0.115 C 
BRANCH  22  24
ATOM     24  C   UNL     1      -4.724   3.788  25.177  0.00  0.00    +0.183 C 
BRANCH  24  25
ATOM     25  C   UNL     1      -5.450   3.560  25.494  0.00  0.00    +0.281 C 
ATOM     26  N   UNL     1      -5.661   2.762  25.511  0.00  0.00    -0.086 NA
ATOM     27  O   UNL     1      -5.967   4.130  25.794  0.00  0.00    -0.270 OA
ENDBRANCH  24  25
ENDBRANCH  22  24
ENDBRANCH  19  20
ENDBRANCH  18  19
TORSDOF 8
ENDMDL
MODEL 3
REMARK VINA RESULT:      -9.1      2.827      4.865
REMARK  Name = 
REMARK  8 active torsions:
REMARK  status: ('A' for Active; 'I' for Inactive)
REMARK    1  A    between atoms: O_2  and  C_3
REMARK    2  A    between atoms: C_6  and  C_9
REMARK    3  A    between atoms: C_11  and  C_12
REMARK    4  A    between atoms: C_12  and  C_13
REMARK    5  A    between atoms: C_18  and  C_19
REMARK    6  A    between atoms: C_19  and  C_20
REMARK    7  A    between atoms: N_22  and  C_24
REMARK    8  A    between atoms: C_24  and  C_25
REMARK                            x       y       z     vdW  Elec       q    Type
REMARK                         _______ _______ _______ _____ _____    ______ ____
ROOT
ATOM     13  C   UNL     1      -2.148  -0.363  24.894  0.00  0.00    +0.024 C 
ATOM     14  C   UNL     1      -2.557  -0.691  25.532  0.00  0.00    +0.089 C 
ATOM     15  N   UNL     1      -2.141  -1.052  26.146  0.00  0.00    -0.218 NA
ATOM     16  C   UNL     1      -1.316  -1.085  26.122  0.00  0.00    +0.089 C 
ATOM     17  C   UNL     1      -0.909  -0.757  25.485  0.00  0.00    +0.019 C 
ATOM     18  C   UNL     1      -1.325  -0.395  24.871  0.00  0.00    +0.012 C 
ENDROOT
BRANCH  13  12
ATOM     12  C   UNL     1      -2.564  -0.001  24.280  0.00  0.00    +0.051 C 
BRANCH  12  11
ATOM      9  C   UNL     1      -4.297   1.150  24.763  0.00  0.00    +0.177 A 
ATOM     10  C   UNL     1      -3.478   1.069  24.710  0.00  0.00    +0.058 A 
ATOM     11  C   UNL     1      -3.314   0.314  24.419  0.00  0.00    +0.101 A 
ATOM     28  N   UNL     1      -4.032  -0.071  24.292  0.00  0.00    -0.081 NA
ATOM     29  O   UNL     1      -4.640   0.445  24.504  0.00  0.00    -0.354 OA
BRANCH   9   6
ATOM      3  C   UNL     1      -5.513   3.154  25.556  0.00  0.00    +0.139 A 
ATOM      4  C   UNL     1      -4.764   3.232  25.218  0.00  0.00    +0.037 A 
ATOM      5  C   UNL     1      -4.360   2.564  24.954  0.00  0.00    +0.006 A 
ATOM      6  C   UNL     1      -4.702   1.818  25.027  0.00  0.00    +0.037 A 
ATOM      7  C   UNL     1      -5.451   1.739  25.365  0.00  0.00    +0.006 A 
ATOM      8  C   UNL     1      -5.856   2.408  25.629  0.00  0.00    +0.037 A 
BRANCH   3   2
ATOM      1  C   UNL     1      -5.792   4.552  25.459  0.00  0.00    +0.252 C 
ATOM      2  O   UNL     1      -5.919   3.822  25.821  0.00  0.00    -0.471 OA
ENDBRANCH   3   2
ENDBRANCH   9   6
ENDBRANCH  12  11
ENDBRANCH  13  12
BRANCH  18  19
ATOM     19  C   UNL     1      -0.917  -0.068  24.234  0.00  0.00    +0.085 C 
BRANCH  19  20
ATOM     20  C   UNL     1      -0.242  -0.440  23.939  0.00  0.00    +0.226 C 
ATOM     21  O   UNL     1      -0.134  -1.250  24.056  0.00  0.00    -0.275 OA
ATOM     22  N   UNL     1       0.324  -0.005  23.528  0.00  0.00    -0.269 N 
ATOM     23  C   UNL     1       0.216   0.806  23.411  0.00  0.00    +0.115 C 
BRANCH  22  24
ATOM     24  C   UNL     1       0.998  -0.377  23.233  0.00  0.00    +0.183 C 
BRANCH  24  25
ATOM     25  C   UNL     1       1.521   0.037  22.748  0.00  0.00    +0.281 C 
ATOM     26  N   UNL     1       1.565  -0.137  21.943  0.00  0.00    -0.086 NA
ATOM     27  O   UNL     1       2.001   0.628  23.069  0.00  0.00    -0.270 OA
ENDBRANCH  24  25
ENDBRANCH  22  24
ENDBRANCH  19  20
ENDBRANCH  18  19
TORSDOF 8
ENDMDL
MODEL 4
REMARK VINA RESULT:      -9.0      2.990      4.576
REMARK  Name = 
REMARK  8 active torsions:
REMARK  status: ('A' for Active; 'I' for Inactive)
REMARK    1  A    between atoms: O_2  and  C_3
REMARK    2  A    between atoms: C_6  and  C_9
REMARK    3  A    between atoms: C_11  and  C_12
REMARK    4  A    between atoms: C_12  and  C_13
REMARK    5  A    between atoms: C_18  and  C_19
REMARK    6  A    between atoms: C_19  and  C_20
REMARK    7  A    between atoms: N_22  and  C_24
REMARK    8  A    between atoms: C_24  and  C_25
REMARK                            x       y       z     vdW  Elec       q    Type
REMARK                         _______ _______ _______ _____ _____    ______ ____
ROOT
ATOM     13  C   UNL     1      -3.155  -0.542  24.881  0.00  0.00    +0.024 C 
ATOM     14  C   UNL     1      -3.091  -1.343  24.692  0.00  0.00    +0.089 C 
ATOM     15  N   UNL     1      -3.701  -1.721  24.287  0.00  0.00    -0.218 NA
ATOM     16  C   UNL     1      -4.376  -1.298  24.069  0.00  0.00    +0.089 C 
ATOM     17  C   UNL     1      -4.439  -0.498  24.257  0.00  0.00    +0.019 C 
ATOM     18  C   UNL     1      -3.828  -0.120  24.663  0.00  0.00    +0.012 C 
ENDROOT
BRANCH  13  12
ATOM     12  C   UNL     1      -2.543  -0.164  25.287  0.00  0.00    +0.051 C 
BRANCH  12  11
ATOM      9  C   UNL     1      -0.560  -0.301  24.508  0.00  0.00    +0.177 A 
ATOM     10  C   UNL     1      -1.313   0.034  24.505  0.00  0.00    +0.058 A 
ATOM     11  C   UNL     1      -1.758  -0.330  25.097  0.00  0.00    +0.101 A 
ATOM     28  N   UNL     1      -1.279  -0.891  25.467  0.00  0.00    -0.081 NA
ATOM     29  O   UNL     1      -0.538  -0.873  25.103  0.00  0.00    -0.354 OA
BRANCH   9   6
ATOM      3  C   UNL     1       1.308   0.302  23.001  0.00  0.00    +0.139 A 
ATOM      4  C   UNL     1       1.015   0.857  23.538  0.00  0.00    +0.037 A 
ATOM      5  C   UNL     1       0.393   0.655  24.040  0.00  0.00    +0.006 A 
ATOM      6  C   UNL     1       0.063  -0.100  24.006  0.00  0.00    +0.037 A 
ATOM      7  C   UNL     1       0.355  -0.655  23.469  0.00  0.00    +0.006 A 
ATOM      8  C   UNL     1       0.979  -0.453  22.967  0.00  0.00    +0.037 A 
BRANCH   3   2
ATOM      1  C   UNL     1       2.666   0.138  22.585  0.00  0.00    +0.252 C 
ATOM      2  O   UNL     1       1.931   0.503  22.499  0.00  0.00    -0.471 OA
ENDBRANCH   3   2
ENDBRANCH   9   6
ENDBRANCH  12  11
ENDBRANCH  13  12
BRANCH  18  19
ATOM     19  C   UNL     1      -3.892   0.680  24.851  0.00  0.00    +0.085 C 
BRANCH  19  20
ATOM     20  C   UNL     1      -4.632   1.012  25.001  0.00  0.00    +0.226 C 
ATOM     21  O   UNL     1      -5.296   0.526  25.067  0.00  0.00    -0.275 OA
ATOM     22  N   UNL     1      -4.710   1.828  25.086  0.00  0.00    -0.269 N 
ATOM     23  C   UNL     1      -4.045   2.315  25.020  0.00  0.00    +0.115 C 
BRANCH  22  24
ATOM     24  C   UNL     1      -5.450   2.160  25.236  0.00  0.00    +0.183 C 
BRANCH  24  25
ATOM     25  C   UNL     1      -5.508   2.867  25.656  0.00  0.00    +0.281 C 
ATOM     26  N   UNL     1      -5.400   3.588  25.269  0.00  0.00    -0.086 NA
ATOM     27  O   UNL     1      -5.676   2.854  26.464  0.00  0.00    -0.270 OA
ENDBRANCH  24  25
ENDBRANCH  22  24
ENDBRANCH  19  20
ENDBRANCH  18  19
TORSDOF 8
ENDMDL
MODEL 5
REMARK VINA RESULT:      -8.9      1.852      4.875
REMARK  Name = 
REMARK  8 active torsions:
REMARK  status: ('A' for Active; 'I' for Inactive)
REMARK    1  A    between atoms: O_2  and  C_3
REMARK    2  A    between atoms: C_6  and  C_9
REMARK    3  A    between atoms: C_11  and  C_12
REMARK    4  A    between atoms: C_12  and  C_13
REMARK    5  A    between atoms: C_18  and  C_19
REMARK    6  A    between atoms: C_19  and  C_20
REMARK    7  A    between atoms: N_22  and  C_24
REMARK    8  A    between atoms: C_24  and  C_25
REMARK                            x       y       z     vdW  Elec       q    Type
REMARK                         _______ _______ _______ _____ _____    ______ ____
ROOT
ATOM     13  C   UNL     1      -4.368   1.715  24.458  0.00  0.00    +0.024 C 
ATOM     14  C   UNL     1      -4.756   2.378  24.758  0.00  0.00    +0.089 C 
ATOM     15  N   UNL     1      -5.412   2.284  25.250  0.00  0.00    -0.218 NA
ATOM     16  C   UNL     1      -5.679   1.527  25.442  0.00  0.00    +0.089 C 
ATOM     17  C   UNL     1      -5.291   0.865  25.141  0.00  0.00    +0.019 C 
ATOM     18  C   UNL     1      -4.635   0.959  24.649  0.00  0.00    +0.012 C 
ENDROOT
BRANCH  13  12
ATOM     12  C   UNL     1      -3.712   1.809  23.965  0.00  0.00    +0.051 C 
BRANCH  12  11
ATOM      9  C   UNL     1      -1.940   2.672  24.787  0.00  0.00    +0.177 A 
ATOM     10  C   UNL     1      -2.444   2.029  24.679  0.00  0.00    +0.058 A 
ATOM     11  C   UNL     1      -3.077   2.276  24.210  0.00  0.00    +0.101 A 
ATOM     28  N   UNL     1      -2.964   3.072  24.028  0.00  0.00    -0.081 NA
ATOM     29  O   UNL     1      -2.261   3.318  24.384  0.00  0.00    -0.354 OA
BRANCH   9   6
ATOM      3  C   UNL     1       0.165   2.670  26.087  0.00  0.00    +0.139 A 
ATOM      4  C   UNL     1      -0.517   3.007  26.407  0.00  0.00    +0.037 A 
ATOM      5  C   UNL     1      -1.218   3.007  25.973  0.00  0.00    +0.006 A 
ATOM      6  C   UNL     1      -1.239   2.672  25.220  0.00  0.00    +0.037 A 
ATOM      7  C   UNL     1      -0.556   2.335  24.900  0.00  0.00    +0.006 A 
ATOM      8  C   UNL     1       0.146   2.334  25.335  0.00  0.00    +0.037 A 
BRANCH   3   2
ATOM      1  C   UNL     1       0.846   2.582  27.341  0.00  0.00    +0.252 C 
ATOM      2  O   UNL     1       0.867   2.669  26.521  0.00  0.00    -0.471 OA
ENDBRANCH   3   2
ENDBRANCH   9   6
ENDBRANCH  12  11
ENDBRANCH  13  12
BRANCH  18  19
ATOM     19  C   UNL     1      -4.247   0.296  24.348  0.00  0.00    +0.085 C 
BRANCH  19  20
ATOM     20  C   UNL     1      -4.166  -0.381  24.812  0.00  0.00    +0.226 C 
ATOM     21  O   UNL     1      -4.294  -0.340  25.626  0.00  0.00    -0.275 OA
ATOM     22  N   UNL     1      -3.958  -1.098  24.463  0.00  0.00    -0.269 N 
ATOM     23  C   UNL     1      -3.831  -1.139  23.648  0.00  0.00    +0.115 C 
BRANCH  22  24
ATOM     24  C   UNL     1      -3.878  -1.776  24.927  0.00  0.00    +0.183 C 
BRANCH  24  25
ATOM     25  C   UNL     1      -3.500  -2.442  24.623  0.00  0.00    +0.281 C 
ATOM     26  N   UNL     1      -2.682  -2.523  24.695  0.00  0.00    -0.086 NA
ATOM     27  O   UNL     1      -3.940  -3.030  24.245  0.00  0.00    -0.270 OA
ENDBRANCH  24  25
ENDBRANCH  22  24
ENDBRANCH  19  20
ENDBRANCH  18  19
TORSDOF 8
ENDMDL
