MODEL 1
REMARK VINA RESULT:      -9.7      0.000      0.000
REMARK  Name = 
REMARK  8 active torsions:
REMARK  status: ('A' for Active; 'I' for Inactive)
REMARK    1  A    between atoms: O_2  and  C_3
REMARK    2  A    between atoms: C_3  and  C_4
REMARK    3  A    between atoms: C_9  and  C_10
REMARK    4  A    between atoms: C_10  and  C_11
REMARK    5  A    between atoms: C_14  and  C_15
REMARK    6  A    between atoms: C_15  and  C_16
REMARK    7  A    between atoms: C_16  and  N_17
REMARK    8  A    between atoms: N_20  and  C_23
REMARK                            x       y       z     vdW  Elec       q    Type
REMARK                         _______ _______ _______ _____ _____    ______ ____
ROOT
ATOM      4  C   UNL     1      -1.895   3.932  24.985  0.00  0.00    +0.256 C 
ATOM      5  O   UNL     1      -1.328   3.392  24.726  0.00  0.00    -0.272 OA
ATOM      6  N   UNL     1      -2.685   3.702  25.052  0.00  0.00    -0.278 N 
ATOM      7  C   UNL     1      -3.251   4.242  25.311  0.00  0.00    +0.093 C 
ATOM      8  C   UNL     1      -4.041   4.011  25.378  0.00  0.00    +0.022 C 
ATOM      9  C   UNL     1      -4.264   3.241  25.184  0.00  0.00    +0.015 C 
ATOM     14  C   UNL     1      -3.698   2.701  24.924  0.00  0.00    +0.022 C 
ATOM     29  C   UNL     1      -2.907   2.932  24.858  0.00  0.00    +0.093 C 
ENDROOT
BRANCH   4   3
ATOM      3  C   UNL     1      -1.672   4.702  25.179  0.00  0.00    +0.227 C 
BRANCH   3   2
ATOM      1  C   UNL     1      -0.756   5.756  24.875  0.00  0.00    +0.175 C 
ATOM      2  O   UNL     1      -0.903   4.958  25.030  0.00  0.00    -0.342 OA
ENDBRANCH   3   2
ENDBRANCH   4   3
BRANCH   9  10
ATOM     10  C   UNL     1      -5.053   3.011  25.250  0.00  0.00    +0.114 C 
BRANCH  10  11
ATOM     11  C   UNL     1      -5.545   3.377  25.803  0.00  0.00    +0.365 C 
ATOM     12  O   UNL     1      -5.654   3.036  26.547  0.00  0.00    -0.246 OA
ATOM     13  O   UNL     1      -5.928   4.081  25.612  0.00  0.00    -0.246 OA
ENDBRANCH  10  11
ENDBRANCH   9  10
BRANCH  14  15
ATOM     15  C   UNL     1      -3.920   1.931  24.731  0.00  0.00    +0.019 C 
BRANCH  15  16
ATOM     16  C   UNL     1      -3.429   1.468  24.256  0.00  0.00    +0.072 C 
BRANCH  16  17
ATOM     17  N   UNL     1      -3.469   0.644  24.299  0.00  0.00    -0.270 NA
ATOM     18  C   UNL     1      -4.201   0.266  24.282  0.00  0.00    +0.094 C 
ATOM     19  C   UNL     1      -4.242  -0.557  24.326  0.00  0.00    +0.108 C 
ATOM     20  N   UNL     1      -3.549  -1.000  24.386  0.00  0.00    -0.305 N 
ATOM     21  C   UNL     1      -2.818  -0.622  24.403  0.00  0.00    +0.108 C 
ATOM     22  C   UNL     1      -2.777   0.201  24.360  0.00  0.00    +0.094 C 
BRANCH  20  23
ATOM     23  C   UNL     1      -3.590  -1.824  24.430  0.00  0.00    +0.048 A 
ATOM     24  C   UNL     1      -3.975  -2.250  23.838  0.00  0.00    +0.015 A 
ATOM     25  C   UNL     1      -4.015  -3.072  23.882  0.00  0.00    +0.001 A 
ATOM     26  C   UNL     1      -3.670  -3.470  24.518  0.00  0.00    +0.000 A 
ATOM     27  C   UNL     1      -3.285  -3.043  25.110  0.00  0.00    +0.001 A 
ATOM     28  C   UNL     1      -3.245  -2.220  25.066  0.00  0.00    +0.015 A 
ENDBRANCH  20  23
ENDBRANCH  16  17
ENDBRANCH  15  16
ENDBRANCH  14  15
TORSDOF 8
ENDMDL
MODEL 2
REMARK VINA RESULT:      -8.8      3.362      5.040
REMARK  Name = 
REMARK  8 active torsions:
REMARK  status: ('A' for Active; 'I' for Inactive)
REMARK    1  A    between atoms: O_2  and  C_3
REMARK    2  A    between atoms: C_3  and  C_4
REMARK    3  A    between atoms: C_9  and  C_10
REMARK    4  A    between atoms: C_10  and  C_11
REMARK    5  A    between atoms: C_14  and  C_15
REMARK    6  A    between atoms: C_15  and  C_16
REMARK    7  A    between atoms: C_16  and  N_17
REMARK    8  A    between atoms: N_20  and  C_23
REMARK                            x       y       z     vdW  Elec       q    Type
REMARK                         _______ _______ _______ _____ _____    ______ ____
ROOT
ATOM      4  C   UNL     1      -4.231   1.332  24.985  0.00  0.00    +0.256 C 
ATOM      5  O   UNL     1      -3.732   1.986  24.918  0.00  0.00    -0.272 OA
ATOM      6  N   UNL     1      -3.934   0.572  24.864  0.00  0.00    -0.278 N 
ATOM      7  C   UNL     1      -4.433  -0.080  24.931  0.00  0.00    +0.093 C 
ATOM      8  C   UNL     1      -4.136  -0.841  24.810  0.00  0.00    +0.022 C 
ATOM      9  C   UNL     1      -3.341  -0.948  24.622  0.00  0.00    +0.015 C 
ATOM     14  C   UNL     1      -2.841  -0.296  24.555  0.00  0.00    +0.022 C 
ATOM     29  C   UNL     1      -3.139   0.465  24.676  0.00  0.00    +0.093 C 
ENDROOT
BRANCH   4   3
ATOM      3  C   UNL     1      -5.027   1.440  25.173  0.00  0.00    +0.227 C 
BRANCH   3   2
ATOM      1  C   UNL     1      -6.112   2.304  25.515  0.00  0.00    +0.175 C 
ATOM      2  O   UNL     1      -5.317   2.197  25.320  0.00  0.00    -0.342 OA
ENDBRANCH   3   2
ENDBRANCH   4   3
BRANCH   9  10
ATOM     10  C   UNL     1      -3.044  -1.708  24.501  0.00  0.00    +0.114 C 
BRANCH  10  11
ATOM     11  C   UNL     1      -3.533  -2.364  24.607  0.00  0.00    +0.365 C 
ATOM     12  O   UNL     1      -3.547  -2.755  25.334  0.00  0.00    -0.246 OA
ATOM     13  O   UNL     1      -4.007  -2.630  23.987  0.00  0.00    -0.246 OA
ENDBRANCH  10  11
ENDBRANCH   9  10
BRANCH  14  15
ATOM     15  C   UNL     1      -2.045  -0.402  24.367  0.00  0.00    +0.019 C 
BRANCH  15  16
ATOM     16  C   UNL     1      -1.500   0.196  24.530  0.00  0.00    +0.072 C 
BRANCH  16  17
ATOM     17  N   UNL     1      -0.766   0.200  24.151  0.00  0.00    -0.270 NA
ATOM     18  C   UNL     1      -0.501   0.883  23.774  0.00  0.00    +0.094 C 
ATOM     19  C   UNL     1       0.232   0.887  23.395  0.00  0.00    +0.108 C 
ATOM     20  N   UNL     1       0.699   0.207  23.395  0.00  0.00    -0.305 N 
ATOM     21  C   UNL     1       0.433  -0.476  23.772  0.00  0.00    +0.108 C 
ATOM     22  C   UNL     1      -0.300  -0.480  24.150  0.00  0.00    +0.094 C 
BRANCH  20  23
ATOM     23  C   UNL     1       1.432   0.211  23.016  0.00  0.00    +0.048 A 
ATOM     24  C   UNL     1       2.060   0.640  23.337  0.00  0.00    +0.015 A 
ATOM     25  C   UNL     1       2.792   0.644  22.958  0.00  0.00    +0.001 A 
ATOM     26  C   UNL     1       2.898   0.219  22.259  0.00  0.00    +0.000 A 
ATOM     27  C   UNL     1       2.271  -0.209  21.938  0.00  0.00    +0.001 A 
ATOM     28  C   UNL     1       1.537  -0.213  22.317  0.00  0.00    +0.015 A 
ENDBRANCH  20  23
ENDBRANCH  16  17
ENDBRANCH  15  16
ENDBRANCH  14  15
TORSDOF 8
ENDMDL
MODEL 3
REMARK VINA RESULT:      -8.8      2.888      5.218
REMARK  Name = 
REMARK  8 active torsions:
REMARK  status: ('A' for Active; 'I' for Inactive)
REMARK    1  A    between atoms: O_2  and  C_3
REMARK    2  A    between atoms: C_3  and  C_4
REMARK    3  A    between atoms: C_9  and  C_10
REMARK    4  A    between atoms: C_10  and  C_11
REMARK    5  A    between atoms: C_14  and  C_15
REMARK    6  A    between atoms: C_15  and  C_16
REMARK    7  A    between atoms: C_16  and  N_17
REMARK    8  A    between atoms: N_20  and  C_23
REMARK                            x       y       z     vdW  Elec       q    Type
REMARK                         _______ _______ _______ _____ _____    ______ ____
ROOT
ATOM      4  C   UNL     1       0.923   0.418  23.347  0.00  0.00    +0.256 C 
ATOM      5  O   UNL     1       0.858   1.235  23.253  0.00  0.00    -0.272 OA
ATOM      6  N   UNL     1       0.307  -0.008  23.694  0.00  0.00    -0.278 N 
ATOM      7  C   UNL     1       0.372  -0.824  23.787  0.00  0.00    +0.093 C 
ATOM      8  C   UNL     1      -0.245  -1.250  24.135  0.00  0.00    +0.022 C 
ATOM      9  C   UNL     1      -0.925  -0.859  24.388  0.00  0.00    +0.015 C 
ATOM     14  C   UNL     1      -0.989  -0.042  24.294  0.00  0.00    +0.022 C 
ATOM     29  C   UNL     1      -0.373   0.384  23.947  0.00  0.00    +0.093 C 
ENDROOT
BRANCH   4   3
ATOM      3  C   UNL     1       1.603   0.027  23.093  0.00  0.00    +0.227 C 
BRANCH   3   2
ATOM      1  C   UNL     1       2.880   0.070  22.454  0.00  0.00    +0.175 C 
ATOM      2  O   UNL     1       2.248   0.458  22.816  0.00  0.00    -0.342 OA
ENDBRANCH   3   2
ENDBRANCH   4   3
BRANCH   9  10
ATOM     10  C   UNL     1      -1.540  -1.284  24.735  0.00  0.00    +0.114 C 
BRANCH  10  11
ATOM     11  C   UNL     1      -1.512  -2.108  24.757  0.00  0.00    +0.365 C 
ATOM     12  O   UNL     1      -1.914  -2.550  24.187  0.00  0.00    -0.246 OA
ATOM     13  O   UNL     1      -1.083  -2.491  25.348  0.00  0.00    -0.246 OA
ENDBRANCH  10  11
ENDBRANCH   9  10
BRANCH  14  15
ATOM     15  C   UNL     1      -1.670   0.350  24.548  0.00  0.00    +0.019 C 
BRANCH  15  16
ATOM     16  C   UNL     1      -1.883   1.069  24.204  0.00  0.00    +0.072 C 
BRANCH  16  17
ATOM     17  N   UNL     1      -2.566   1.460  24.453  0.00  0.00    -0.270 NA
ATOM     18  C   UNL     1      -3.285   1.312  24.079  0.00  0.00    +0.094 C 
ATOM     19  C   UNL     1      -3.968   1.702  24.327  0.00  0.00    +0.108 C 
ATOM     20  N   UNL     1      -3.930   2.240  24.951  0.00  0.00    -0.305 N 
ATOM     21  C   UNL     1      -3.211   2.388  25.325  0.00  0.00    +0.108 C 
ATOM     22  C   UNL     1      -2.528   1.998  25.077  0.00  0.00    +0.094 C 
BRANCH  20  23
ATOM     23  C   UNL     1      -4.614   2.631  25.200  0.00  0.00    +0.048 A 
ATOM     24  C   UNL     1      -4.649   3.455  25.178  0.00  0.00    +0.015 A 
ATOM     25  C   UNL     1      -5.332   3.844  25.427  0.00  0.00    +0.001 A 
ATOM     26  C   UNL     1      -5.980   3.411  25.698  0.00  0.00    +0.000 A 
ATOM     27  C   UNL     1      -5.944   2.587  25.720  0.00  0.00    +0.001 A 
ATOM     28  C   UNL     1      -5.261   2.196  25.471  0.00  0.00    +0.015 A 
ENDBRANCH  20  23
ENDBRANCH  16  17
ENDBRANCH  15  16
ENDBRANCH  14  15
TORSDOF 8
ENDMDL
MODEL 4
REMARK VINA RESULT:      -8.3      2.447      6.255
REMARK  Name = 
REMARK  8 active torsions:
REMARK  status: ('A' for Active; 'I' for Inactive)
REMARK    1  A    between atoms: O_2  and  C_3
REMARK    2  A    between atoms: C_3  and  C_4
REMARK    3  A    between atoms: C_9  and  C_10
REMARK    4  A    between atoms: C_10  and  C_11
REMARK    5  A    between atoms: C_14  and  C_15
REMARK    6  A    between atoms: C_15  and  C_16
REMARK    7  A    between atoms: C_16  and  N_17
REMARK    8  A    between atoms: N_20  and  C_23
REMARK                            x       y       z     vdW  Elec       q    Type
REMARK                         _______ _______ _______ _____ _____    ______ ____
ROOT
ATOM      4  C   UNL     1      -3.881  -1.664  24.234  0.00  0.00    +0.256 C 
ATOM      5  O   UNL     1      -4.452  -1.073  24.165  0.00  0.00    -0.272 OA
ATOM      6  N   UNL     1      -3.115  -1.473  24.472  0.00  0.00    -0.278 N 
ATOM      7  C   UNL     1      -2.545  -2.064  24.541  0.00  0.00    +0.093 C 
ATOM      8  C   UNL     1      -1.777  -1.872  24.779  0.00  0.00    +0.022 C 
ATOM      9  C   UNL     1      -1.582  -1.089  24.948  0.00  0.00    +0.015 C 
ATOM     14  C   UNL     1      -2.152  -0.498  24.880  0.00  0.00    +0.022 C 
ATOM     29  C   UNL     1      -2.920  -0.690  24.641  0.00  0.00    +0.093 C 
ENDROOT
BRANCH   4   3
ATOM      3  C   UNL     1      -4.077  -2.447  24.065  0.00  0.00    +0.227 C 
BRANCH   3   2
ATOM      1  C   UNL     1      -4.854  -3.394  23.329  0.00  0.00    +0.175 C 
ATOM      2  O   UNL     1      -4.706  -2.615  23.560  0.00  0.00    -0.342 OA
ENDBRANCH   3   2
ENDBRANCH   4   3
BRANCH   9  10
ATOM     10  C   UNL     1      -0.816  -0.897  25.186  0.00  0.00    +0.114 C 
BRANCH  10  11
ATOM     11  C   UNL     1      -0.187  -1.395  24.993  0.00  0.00    +0.365 C 
ATOM     12  O   UNL     1       0.013  -2.020  25.495  0.00  0.00    -0.246 OA
ATOM     13  O   UNL     1       0.242  -1.268  24.302  0.00  0.00    -0.246 OA
ENDBRANCH  10  11
ENDBRANCH   9  10
BRANCH  14  15
ATOM     15  C   UNL     1      -1.958   0.286  25.049  0.00  0.00    +0.019 C 
BRANCH  15  16
ATOM     16  C   UNL     1      -2.509   0.885  24.917  0.00  0.00    +0.072 C 
BRANCH  16  17
ATOM     17  N   UNL     1      -2.270   1.676  24.926  0.00  0.00    -0.270 NA
ATOM     18  C   UNL     1      -1.850   1.971  25.570  0.00  0.00    +0.094 C 
ATOM     19  C   UNL     1      -1.611   2.761  25.581  0.00  0.00    +0.108 C 
ATOM     20  N   UNL     1      -1.794   3.254  24.945  0.00  0.00    -0.305 N 
ATOM     21  C   UNL     1      -2.215   2.959  24.301  0.00  0.00    +0.108 C 
ATOM     22  C   UNL     1      -2.453   2.169  24.291  0.00  0.00    +0.094 C 
BRANCH  20  23
ATOM     23  C   UNL     1      -1.556   4.045  24.955  0.00  0.00    +0.048 A 
ATOM     24  C   UNL     1      -0.805   4.252  24.684  0.00  0.00    +0.015 A 
ATOM     25  C   UNL     1      -0.567   5.041  24.694  0.00  0.00    +0.001 A 
ATOM     26  C   UNL     1      -1.079   5.624  24.975  0.00  0.00    +0.000 A 
ATOM     27  C   UNL     1      -1.830   5.416  25.246  0.00  0.00    +0.001 A 
ATOM     28  C   UNL     1      -2.069   4.626  25.237  0.00  0.00    +0.015 A 
ENDBRANCH  20  23
ENDBRANCH  16  17
ENDBRANCH  15  16
ENDBRANCH  14  15
TORSDOF 8
ENDMDL
MODEL 5
REMARK VINA RESULT:      -7.8      0.749      2.601
REMARK  Name = 
REMARK  8 active torsions:
REMARK  status: ('A' for Active; 'I' for Inactive)
REMARK    1  A    between atoms: O_2  and  C_3
REMARK    2  A    between atoms: C_3  and  C_4
REMARK    3  A    between atoms: C_9  and  C_10
REMARK    4  A    between atoms: C_10  and  C_11
REMARK    5  A    between atoms: C_14  and  C_15
REMARK    6  A    between atoms: C_15  and  C_16
REMARK    7  A    between atoms: C_16  and  N_17
REMARK    8  A    between atoms: N_20  and  C_23
REMARK                            x       y       z     vdW  Elec       q    Type
REMARK                         _______ _______ _______ _____ _____    ______ ____
ROOT
ATOM      4  C   UNL     1      -4.918   3.628  25.386  0.00  0.00    +0.256 C 
ATOM      5  O   UNL     1      -5.457   3.017  25.254  0.00  0.00    -0.272 OA
ATOM      6  N   UNL     1      -4.110   3.491  25.297  0.00  0.00    -0.278 N 
ATOM      7  C   UNL     1      -3.572   4.102  25.429  0.00  0.00    +0.093 C 
ATOM      8  C   UNL     1      -2.762   3.966  25.341  0.00  0.00    +0.022 C 
ATOM      9  C   UNL     1      -2.492   3.219  25.120  0.00  0.00    +0.015 C 
ATOM     14  C   UNL     1      -3.029   2.608  24.988  0.00  0.00    +0.022 C 
ATOM     29  C   UNL     1      -3.839   2.745  25.077  0.00  0.00    +0.093 C 
ENDROOT
BRANCH   4   3
ATOM      3  C   UNL     1      -5.190   4.375  25.607  0.00  0.00    +0.227 C 
BRANCH   3   2
ATOM      1  C   UNL     1      -6.290   5.286  25.601  0.00  0.00    +0.175 C 
ATOM      2  O   UNL     1      -5.999   4.517  25.673  0.00  0.00    -0.342 OA
ENDBRANCH   3   2
ENDBRANCH   4   3
BRANCH   9  10
ATOM     10  C   UNL     1      -1.683   3.083  25.031  0.00  0.00    +0.114 C 
BRANCH  10  11
ATOM     11  C   UNL     1      -1.138   3.586  25.391  0.00  0.00    +0.365 C 
ATOM     12  O   UNL     1      -0.845   3.407  26.143  0.00  0.00    -0.246 OA
ATOM     13  O   UNL     1      -0.885   4.267  25.002  0.00  0.00    -0.246 OA
ENDBRANCH  10  11
ENDBRANCH   9  10
BRANCH  14  15
ATOM     15  C   UNL     1      -2.759   1.861  24.767  0.00  0.00    +0.019 C 
BRANCH  15  16
ATOM     16  C   UNL     1      -3.155   1.436  24.180  0.00  0.00    +0.072 C 
BRANCH  16  17
ATOM     17  N   UNL     1      -3.230   0.617  24.243  0.00  0.00    -0.270 NA
ATOM     18  C   UNL     1      -2.559   0.146  24.321  0.00  0.00    +0.094 C 
ATOM     19  C   UNL     1      -2.634  -0.673  24.384  0.00  0.00    +0.108 C 
ATOM     20  N   UNL     1      -3.382  -1.020  24.369  0.00  0.00    -0.305 N 
ATOM     21  C   UNL     1      -4.053  -0.549  24.291  0.00  0.00    +0.108 C 
ATOM     22  C   UNL     1      -3.978   0.270  24.228  0.00  0.00    +0.094 C 
BRANCH  20  23
ATOM     23  C   UNL     1      -3.457  -1.840  24.431  0.00  0.00    +0.048 A 
ATOM     24  C   UNL     1      -3.884  -2.260  23.864  0.00  0.00    +0.015 A 
ATOM     25  C   UNL     1      -3.959  -3.078  23.927  0.00  0.00    +0.001 A 
ATOM     26  C   UNL     1      -3.608  -3.478  24.557  0.00  0.00    +0.000 A 
ATOM     27  C   UNL     1      -3.181  -3.059  25.125  0.00  0.00    +0.001 A 
ATOM     28  C   UNL     1      -3.106  -2.239  25.062  0.00  0.00    +0.015 A 
ENDBRANCH  20  23
ENDBRANCH  16  17
ENDBRANCH  15  16
ENDBRANCH  14  15
TORSDOF 8
ENDMDL
MODEL 6
REMARK VINA RESULT:      -7.8      1.816      3.084
REMARK  Name = 
REMARK  8 active torsions:
REMARK  status: ('A' for Active; 'I' for Inactive)
REMARK    1  A    between atoms: O_2  and  C_3
REMARK    2  A    between atoms: C_3  and  C_4
REMARK    3  A    between atoms: C_9  and  C_10
REMARK    4  A    between atoms: C_10  and  C_11
REMARK    5  A    between atoms: C_14  and  C_15
REMARK    6  A    between atoms: C_15  and  C_16
REMARK    7  A    between atoms: C_16  and  N_17
REMARK    8  A    between atoms: N_20  and  C_23
REMARK                            x       y       z     vdW  Elec       q    Type
REMARK                         _______ _______ _______ _____ _____    ______ ____
ROOT
ATOM      4  C   UNL     1      -1.586   4.027  25.346  0.00  0.00    +0.256 C 
ATOM      5  O   UNL     1      -2.329   3.943  25.695  0.00  0.00    -0.272 OA
ATOM      6  N   UNL     1      -1.143   3.359  25.151  0.00  0.00    -0.278 N 
ATOM      7  C   UNL     1      -0.400   3.445  24.803  0.00  0.00    +0.093 C 
ATOM      8  C   UNL     1       0.043   2.776  24.607  0.00  0.00    +0.022 C 
ATOM      9  C   UNL     1      -0.256   2.024  24.760  0.00  0.00    +0.015 C 
ATOM     14  C   UNL     1      -0.999   1.938  25.107  0.00  0.00    +0.022 C 
ATOM     29  C   UNL     1      -1.443   2.607  25.303  0.00  0.00    +0.093 C 
ENDROOT
BRANCH   4   3
ATOM      3  C   UNL     1      -1.287   4.781  25.194  0.00  0.00    +0.227 C 
BRANCH   3   2
ATOM      1  C   UNL     1      -1.572   6.160  24.954  0.00  0.00    +0.175 C 
ATOM      2  O   UNL     1      -1.756   5.445  25.324  0.00  0.00    -0.342 OA
ENDBRANCH   3   2
ENDBRANCH   4   3
BRANCH   9  10
ATOM     10  C   UNL     1       0.187   1.356  24.564  0.00  0.00    +0.114 C 
BRANCH  10  11
ATOM     11  C   UNL     1       0.703   1.377  23.921  0.00  0.00    +0.365 C 
ATOM     12  O   UNL     1       0.460   1.088  23.187  0.00  0.00    -0.246 OA
ATOM     13  O   UNL     1       1.462   1.686  24.012  0.00  0.00    -0.246 OA
ENDBRANCH  10  11
ENDBRANCH   9  10
BRANCH  14  15
ATOM     15  C   UNL     1      -1.299   1.185  25.260  0.00  0.00    +0.019 C 
BRANCH  15  16
ATOM     16  C   UNL     1      -2.112   1.077  25.352  0.00  0.00    +0.072 C 
BRANCH  16  17
ATOM     17  N   UNL     1      -2.462   0.364  25.125  0.00  0.00    -0.270 NA
ATOM     18  C   UNL     1      -2.989   0.348  24.491  0.00  0.00    +0.094 C 
ATOM     19  C   UNL     1      -3.339  -0.364  24.263  0.00  0.00    +0.108 C 
ATOM     20  N   UNL     1      -3.160  -1.058  24.671  0.00  0.00    -0.305 N 
ATOM     21  C   UNL     1      -2.634  -1.042  25.304  0.00  0.00    +0.108 C 
ATOM     22  C   UNL     1      -2.284  -0.331  25.532  0.00  0.00    +0.094 C 
BRANCH  20  23
ATOM     23  C   UNL     1      -3.510  -1.771  24.443  0.00  0.00    +0.048 A 
ATOM     24  C   UNL     1      -4.165  -1.767  23.941  0.00  0.00    +0.015 A 
ATOM     25  C   UNL     1      -4.514  -2.479  23.714  0.00  0.00    +0.001 A 
ATOM     26  C   UNL     1      -4.209  -3.195  23.988  0.00  0.00    +0.000 A 
ATOM     27  C   UNL     1      -3.555  -3.198  24.490  0.00  0.00    +0.001 A 
ATOM     28  C   UNL     1      -3.205  -2.486  24.718  0.00  0.00    +0.015 A 
ENDBRANCH  20  23
ENDBRANCH  16  17
ENDBRANCH  15  16
ENDBRANCH  14  15
TORSDOF 8
ENDMDL
MODEL 7
REMARK VINA RESULT:      -7.8      2.798      4.650
REMARK  Name = 
REMARK  8 active torsions:
REMARK  status: ('A' for Active; 'I' for Inactive)
REMARK    1  A    between atoms: O_2  and  C_3
REMARK    2  A    between atoms: C_3  and  C_4
REMARK    3  A    between atoms: C_9  and  C_10
REMARK    4  A    between atoms: C_10  and  C_11
REMARK    5  A    between atoms: C_14  and  C_15
REMARK    6  A    between atoms: C_15  and  C_16
REMARK    7  A    between atoms: C_16  and  N_17
REMARK    8  A    between atoms: N_20  and  C_23
REMARK                            x       y       z     vdW  Elec       q    Type
REMARK                         _______ _______ _______ _____ _____    ______ ____
ROOT
ATOM      4  C   UNL     1       0.786   0.199  23.118  0.00  0.00    +0.256 C 
ATOM      5  O   UNL     1       0.299  -0.362  22.761  0.00  0.00    -0.272 OA
ATOM      6  N   UNL     1       0.491   0.680  23.720  0.00  0.00    -0.278 N 
ATOM      7  C   UNL     1       0.979   1.242  24.075  0.00  0.00    +0.093 C 
ATOM      8  C   UNL     1       0.683   1.723  24.678  0.00  0.00    +0.022 C 
ATOM      9  C   UNL     1      -0.100   1.642  24.923  0.00  0.00    +0.015 C 
ATOM     14  C   UNL     1      -0.588   1.081  24.567  0.00  0.00    +0.022 C 
ATOM     29  C   UNL     1      -0.292   0.599  23.965  0.00  0.00    +0.093 C 
ENDROOT
BRANCH   4   3
ATOM      3  C   UNL     1       1.570   0.280  22.872  0.00  0.00    +0.227 C 
BRANCH   3   2
ATOM      1  C   UNL     1       2.630  -0.072  21.982  0.00  0.00    +0.175 C 
ATOM      2  O   UNL     1       1.842  -0.142  22.219  0.00  0.00    -0.342 OA
ENDBRANCH   3   2
ENDBRANCH   4   3
BRANCH   9  10
ATOM     10  C   UNL     1      -0.395   2.123  25.525  0.00  0.00    +0.114 C 
BRANCH  10  11
ATOM     11  C   UNL     1       0.067   2.733  25.830  0.00  0.00    +0.365 C 
ATOM     12  O   UNL     1       0.586   2.584  26.456  0.00  0.00    -0.246 OA
ATOM     13  O   UNL     1       0.013   3.492  25.512  0.00  0.00    -0.246 OA
ENDBRANCH  10  11
ENDBRANCH   9  10
BRANCH  14  15
ATOM     15  C   UNL     1      -1.372   0.999  24.812  0.00  0.00    +0.019 C 
BRANCH  15  16
ATOM     16  C   UNL     1      -1.972   0.916  24.252  0.00  0.00    +0.072 C 
BRANCH  16  17
ATOM     17  N   UNL     1      -2.747   1.125  24.444  0.00  0.00    -0.270 NA
ATOM     18  C   UNL     1      -3.193   0.642  24.941  0.00  0.00    +0.094 C 
ATOM     19  C   UNL     1      -3.968   0.851  25.133  0.00  0.00    +0.108 C 
ATOM     20  N   UNL     1      -4.296   1.542  24.826  0.00  0.00    -0.305 N 
ATOM     21  C   UNL     1      -3.850   2.024  24.328  0.00  0.00    +0.108 C 
ATOM     22  C   UNL     1      -3.075   1.816  24.136  0.00  0.00    +0.094 C 
BRANCH  20  23
ATOM     23  C   UNL     1      -5.071   1.751  25.017  0.00  0.00    +0.048 A 
ATOM     24  C   UNL     1      -5.703   1.324  24.703  0.00  0.00    +0.015 A 
ATOM     25  C   UNL     1      -6.477   1.533  24.894  0.00  0.00    +0.001 A 
ATOM     26  C   UNL     1      -6.621   2.169  25.400  0.00  0.00    +0.000 A 
ATOM     27  C   UNL     1      -5.989   2.596  25.714  0.00  0.00    +0.001 A 
ATOM     28  C   UNL     1      -5.214   2.387  25.523  0.00  0.00    +0.015 A 
ENDBRANCH  20  23
ENDBRANCH  16  17
ENDBRANCH  15  16
ENDBRANCH  14  15
TORSDOF 8
ENDMDL
MODEL 8
REMARK VINA RESULT:      -6.4     16.867     19.227
REMARK  Name = 
REMARK  8 active torsions:
REMARK  status: ('A' for Active; 'I' for Inactive)
REMARK    1  A    between atoms: O_2  and  C_3
REMARK    2  A    between atoms: C_3  and  C_4
REMARK    3  A    between atoms: C_9  and  C_10
REMARK    4  A    between atoms: C_10  and  C_11
REMARK    5  A    between atoms: C_14  and  C_15
REMARK    6  A    between atoms: C_15  and  C_16
REMARK    7  A    between atoms: C_16  and  N_17
REMARK    8  A    between atoms: N_20  and  C_23
REMARK                            x       y       z     vdW  Elec       q    Type
REMARK                         _______ _______ _______ _____ _____    ______ ____
ROOT
ATOM      4  C   UNL     1      11.705   8.823  16.927  0.00  0.00    +0.256 C 
ATOM      5  O   UNL     1      12.430   8.834  16.533  0.00  0.00    -0.272 OA
ATOM      6  N   UNL     1      11.682   8.739  17.747  0.00  0.00    -0.278 N 
ATOM      7  C   UNL     1      10.958   8.728  18.140  0.00  0.00    +0.093 C 
ATOM      8  C   UNL     1      10.935   8.643  18.962  0.00  0.00    +0.022 C 
ATOM      9  C   UNL     1      11.637   8.569  19.388  0.00  0.00    +0.015 C 
ATOM     14  C   UNL     1      12.361   8.581  18.995  0.00  0.00    +0.022 C 
ATOM     29  C   UNL     1      12.384   8.665  18.174  0.00  0.00    +0.093 C 
ENDROOT
BRANCH   4   3
ATOM      3  C   UNL     1      11.003   8.897  16.500  0.00  0.00    +0.227 C 
BRANCH   3   2
ATOM      1  C   UNL     1      10.481   9.094  15.185  0.00  0.00    +0.175 C 
ATOM      2  O   UNL     1      10.983   8.691  15.702  0.00  0.00    -0.342 OA
ENDBRANCH   3   2
ENDBRANCH   4   3
BRANCH   9  10
ATOM     10  C   UNL     1      11.614   8.485  20.208  0.00  0.00    +0.114 C 
BRANCH  10  11
ATOM     11  C   UNL     1      10.889   8.453  20.600  0.00  0.00    +0.365 C 
ATOM     12  O   UNL     1      10.640   9.093  21.060  0.00  0.00    -0.246 OA
ATOM     13  O   UNL     1      10.413   7.784  20.534  0.00  0.00    -0.246 OA
ENDBRANCH  10  11
ENDBRANCH   9  10
BRANCH  14  15
ATOM     15  C   UNL     1      13.064   8.507  19.421  0.00  0.00    +0.019 C 
BRANCH  15  16
ATOM     16  C   UNL     1      13.766   8.320  19.030  0.00  0.00    +0.072 C 
BRANCH  16  17
ATOM     17  N   UNL     1      14.373   7.931  19.433  0.00  0.00    -0.270 NA
ATOM     18  C   UNL     1      15.009   8.361  19.732  0.00  0.00    +0.094 C 
ATOM     19  C   UNL     1      15.616   7.973  20.135  0.00  0.00    +0.108 C 
ATOM     20  N   UNL     1      15.584   7.156  20.238  0.00  0.00    -0.305 N 
ATOM     21  C   UNL     1      14.947   6.726  19.940  0.00  0.00    +0.108 C 
ATOM     22  C   UNL     1      14.341   7.114  19.537  0.00  0.00    +0.094 C 
BRANCH  20  23
ATOM     23  C   UNL     1      16.191   6.767  20.642  0.00  0.00    +0.048 A 
ATOM     24  C   UNL     1      16.193   6.750  21.466  0.00  0.00    +0.015 A 
ATOM     25  C   UNL     1      16.800   6.362  21.869  0.00  0.00    +0.001 A 
ATOM     26  C   UNL     1      17.404   5.992  21.447  0.00  0.00    +0.000 A 
ATOM     27  C   UNL     1      17.402   6.009  20.622  0.00  0.00    +0.001 A 
ATOM     28  C   UNL     1      16.795   6.397  20.219  0.00  0.00    +0.015 A 
ENDBRANCH  20  23
ENDBRANCH  16  17
ENDBRANCH  15  16
ENDBRANCH  14  15
TORSDOF 8
ENDMDL
MODEL 9
REMARK VINA RESULT:      -5.9     19.376     20.718
REMARK  Name = 
REMARK  8 active torsions:
REMARK  status: ('A' for Active; 'I' for Inactive)
REMARK    1  A    between atoms: O_2  and  C_3
REMARK    2  A    between atoms: C_3  and  C_4
REMARK    3  A    between atoms: C_9  and  C_10
REMARK    4  A    between atoms: C_10  and  C_11
REMARK    5  A    between atoms: C_14  and  C_15
REMARK    6  A    between atoms: C_15  and  C_16
REMARK    7  A    between atoms: C_16  and  N_17
REMARK    8  A    between atoms: N_20  and  C_23
REMARK                            x       y       z     vdW  Elec       q    Type
REMARK                         _______ _______ _______ _____ _____    ______ ____
ROOT
ATOM      4  C   UNL     1      15.361  -4.453  30.815  0.00  0.00    +0.256 C 
ATOM      5  O   UNL     1      16.034  -4.359  30.347  0.00  0.00    -0.272 OA
ATOM      6  N   UNL     1      14.831  -5.066  30.658  0.00  0.00    -0.278 N 
ATOM      7  C   UNL     1      14.159  -5.158  31.126  0.00  0.00    +0.093 C 
ATOM      8  C   UNL     1      13.629  -5.772  30.970  0.00  0.00    +0.022 C 
ATOM      9  C   UNL     1      13.772  -6.292  30.346  0.00  0.00    +0.015 C 
ATOM     14  C   UNL     1      14.444  -6.199  29.878  0.00  0.00    +0.022 C 
ATOM     29  C   UNL     1      14.975  -5.585  30.035  0.00  0.00    +0.093 C 
ENDROOT
BRANCH   4   3
ATOM      3  C   UNL     1      15.218  -3.933  31.439  0.00  0.00    +0.227 C 
BRANCH   3   2
ATOM      1  C   UNL     1      15.635  -2.822  32.236  0.00  0.00    +0.175 C 
ATOM      2  O   UNL     1      15.709  -3.281  31.553  0.00  0.00    -0.342 OA
ENDBRANCH   3   2
ENDBRANCH   4   3
BRANCH   9  10
ATOM     10  C   UNL     1      13.242  -6.904  30.190  0.00  0.00    +0.114 C 
BRANCH  10  11
ATOM     11  C   UNL     1      12.552  -6.977  30.635  0.00  0.00    +0.365 C 
ATOM     12  O   UNL     1      12.545  -7.451  31.311  0.00  0.00    -0.246 OA
ATOM     13  O   UNL     1      11.869  -6.577  30.405  0.00  0.00    -0.246 OA
ENDBRANCH  10  11
ENDBRANCH   9  10
BRANCH  14  15
ATOM     15  C   UNL     1      14.588  -6.718  29.254  0.00  0.00    +0.019 C 
BRANCH  15  16
ATOM     16  C   UNL     1      15.291  -6.663  28.825  0.00  0.00    +0.072 C 
BRANCH  16  17
ATOM     17  N   UNL     1      15.435  -7.182  28.199  0.00  0.00    -0.270 NA
ATOM     18  C   UNL     1      15.667  -7.957  28.352  0.00  0.00    +0.094 C 
ATOM     19  C   UNL     1      15.811  -8.476  27.727  0.00  0.00    +0.108 C 
ATOM     20  N   UNL     1      15.723  -8.217  26.949  0.00  0.00    -0.305 N 
ATOM     21  C   UNL     1      15.491  -7.441  26.796  0.00  0.00    +0.108 C 
ATOM     22  C   UNL     1      15.346  -6.923  27.421  0.00  0.00    +0.094 C 
BRANCH  20  23
ATOM     23  C   UNL     1      15.867  -8.736  26.323  0.00  0.00    +0.048 A 
ATOM     24  C   UNL     1      16.607  -8.747  25.958  0.00  0.00    +0.015 A 
ATOM     25  C   UNL     1      16.750  -9.265  25.333  0.00  0.00    +0.001 A 
ATOM     26  C   UNL     1      16.155  -9.773  25.072  0.00  0.00    +0.000 A 
ATOM     27  C   UNL     1      15.415  -9.762  25.437  0.00  0.00    +0.001 A 
ATOM     28  C   UNL     1      15.271  -9.243  26.063  0.00  0.00    +0.015 A 
ENDBRANCH  20  23
ENDBRANCH  16  17
ENDBRANCH  15  16
ENDBRANCH  14  15
TORSDOF 8
ENDMDL
MODEL 10
REMARK VINA RESULT:      -5.8     16.318     19.254
REMARK  Name = 
REMARK  8 active torsions:
REMARK  status: ('A' for Active; 'I' for Inactive)
REMARK    1  A    between atoms: O_2  and  C_3
REMARK    2  A    between atoms: C_3  and  C_4
REMARK    3  A    between atoms: C_9  and  C_10
REMARK    4  A    between atoms: C_10  and  C_11
REMARK    5  A    between atoms: C_14  and  C_15
REMARK    6  A    between atoms: C_15  and  C_16
REMARK    7  A    between atoms: C_16  and  N_17
REMARK    8  A    between atoms: N_20  and  C_23
REMARK                            x       y       z     vdW  Elec       q    Type
REMARK                         _______ _______ _______ _____ _____    ______ ____
ROOT
ATOM      4  C   UNL     1      13.913   8.171  16.686  0.00  0.00    +0.256 C 
ATOM      5  O   UNL     1      13.149   8.473  16.755  0.00  0.00    -0.272 OA
ATOM      6  N   UNL     1      14.266   7.789  17.327  0.00  0.00    -0.278 N 
ATOM      7  C   UNL     1      15.030   7.487  17.258  0.00  0.00    +0.093 C 
ATOM      8  C   UNL     1      15.383   7.105  17.899  0.00  0.00    +0.022 C 
ATOM      9  C   UNL     1      14.971   7.026  18.609  0.00  0.00    +0.015 C 
ATOM     14  C   UNL     1      14.207   7.328  18.678  0.00  0.00    +0.022 C 
ATOM     29  C   UNL     1      13.854   7.710  18.037  0.00  0.00    +0.093 C 
ENDROOT
BRANCH   4   3
ATOM      3  C   UNL     1      14.325   8.251  15.976  0.00  0.00    +0.227 C 
BRANCH   3   2
ATOM      1  C   UNL     1      14.442   8.854  14.686  0.00  0.00    +0.175 C 
ATOM      2  O   UNL     1      13.985   8.658  15.345  0.00  0.00    -0.342 OA
ENDBRANCH   3   2
ENDBRANCH   4   3
BRANCH   9  10
ATOM     10  C   UNL     1      15.323   6.644  19.250  0.00  0.00    +0.114 C 
BRANCH  10  11
ATOM     11  C   UNL     1      16.135   6.500  19.249  0.00  0.00    +0.365 C 
ATOM     12  O   UNL     1      16.653   7.057  19.569  0.00  0.00    -0.246 OA
ATOM     13  O   UNL     1      16.429   5.800  18.929  0.00  0.00    -0.246 OA
ENDBRANCH  10  11
ENDBRANCH   9  10
BRANCH  14  15
ATOM     15  C   UNL     1      13.794   7.248  19.388  0.00  0.00    +0.019 C 
BRANCH  15  16
ATOM     16  C   UNL     1      12.973   7.163  19.380  0.00  0.00    +0.072 C 
BRANCH  16  17
ATOM     17  N   UNL     1      12.525   7.421  20.024  0.00  0.00    -0.270 NA
ATOM     18  C   UNL     1      11.928   7.978  19.913  0.00  0.00    +0.094 C 
ATOM     19  C   UNL     1      11.479   8.236  20.556  0.00  0.00    +0.108 C 
ATOM     20  N   UNL     1      11.630   7.936  21.309  0.00  0.00    -0.305 N 
ATOM     21  C   UNL     1      12.227   7.379  21.420  0.00  0.00    +0.108 C 
ATOM     22  C   UNL     1      12.675   7.121  20.777  0.00  0.00    +0.094 C 
BRANCH  20  23
ATOM     23  C   UNL     1      11.181   8.194  21.953  0.00  0.00    +0.048 A 
ATOM     24  C   UNL     1      10.467   7.823  22.133  0.00  0.00    +0.015 A 
ATOM     25  C   UNL     1      10.019   8.081  22.775  0.00  0.00    +0.001 A 
ATOM     26  C   UNL     1      10.285   8.710  23.239  0.00  0.00    +0.000 A 
ATOM     27  C   UNL     1      11.000   9.081  23.058  0.00  0.00    +0.001 A 
ATOM     28  C   UNL     1      11.449   8.823  22.415  0.00  0.00    +0.015 A 
ENDBRANCH  20  23
ENDBRANCH  16  17
ENDBRANCH  15  16
ENDBRANCH  14  15
TORSDOF 8
ENDMDL
