REMARK  Name = 
REMARK  8 active torsions:
REMARK  status: ('A' for Active; 'I' for Inactive)
REMARK    1  A    between atoms: O_2  and  C_3
REMARK    2  A    between atoms: C_6  and  C_7
REMARK    3  A    between atoms: C_7  and  N_8
REMARK    4  A    between atoms: C_9  and  C_11
REMARK    5  A    between atoms: C_11  and  C_13
REMARK    6  A    between atoms: C_20  and  N_21
REMARK    7  A    between atoms: C_22  and  C_24
REMARK    8  A    between atoms: C_24  and  C_25
REMARK                            x       y       z     vdW  Elec       q    Type
REMARK                         _______ _______ _______ _____ _____    ______ ____
ROOT
ATOM     13  C   UNL     1       5.716  -2.475   0.000  0.00  0.00    +0.039 C 
ATOM     14  C   UNL     1       5.716  -1.650   0.000  0.00  0.00    +0.003 C 
ATOM     15  C   UNL     1       6.430  -1.238   0.000  0.00  0.00    +0.000 C 
ATOM     16  C   UNL     1       7.145  -1.650   0.000  0.00  0.00    +0.002 C 
ATOM     17  C   UNL     1       7.145  -0.825   0.000  0.00  0.00    +0.000 C 
ATOM     18  C   UNL     1       7.859  -1.238   0.000  0.00  0.00    +0.002 C 
ATOM     19  C   UNL     1       8.574  -1.650   0.000  0.00  0.00    +0.022 C 
ATOM     20  C   UNL     1       8.574  -2.475   0.000  0.00  0.00    +0.095 C 
ATOM     29  C   UNL     1       7.859  -2.888   0.000  0.00  0.00    +0.022 C 
ATOM     30  C   UNL     1       7.859  -3.712   0.000  0.00  0.00    +0.002 C 
ATOM     31  C   UNL     1       7.145  -2.475   0.000  0.00  0.00    +0.032 C 
ATOM     32  C   UNL     1       6.430  -2.888   0.000  0.00  0.00    +0.152 C 
ATOM     33  O   UNL     1       6.430  -3.712   0.000  0.00  0.00    -0.223 OA
ENDROOT
BRANCH  20  21
ATOM     21  N   UNL     1       9.288  -2.888   0.000  0.00  0.00    -0.207 NA
ATOM     22  C   UNL     1      10.003  -2.475   0.000  0.00  0.00    +0.241 C 
ATOM     23  O   UNL     1      10.003  -1.650   0.000  0.00  0.00    -0.273 OA
BRANCH  22  24
ATOM     24  C   UNL     1      10.717  -2.888   0.000  0.00  0.00    +0.087 C 
BRANCH  24  25
ATOM     25  C   UNL     1      11.431  -2.475   0.000  0.00  0.00    +0.009 C 
ATOM     26  C   UNL     1      12.146  -2.062   0.000  0.00  0.00    +0.000 C 
ATOM     27  C   UNL     1      11.844  -3.189   0.000  0.00  0.00    +0.000 C 
ATOM     28  C   UNL     1      11.019  -1.760   0.000  0.00  0.00    +0.000 C 
ENDBRANCH  24  25
ENDBRANCH  22  24
ENDBRANCH  20  21
BRANCH  13  11
ATOM     11  C   UNL     1       5.001  -2.888   0.000  0.00  0.00    +0.081 C 
ATOM     12  C   UNL     1       5.001  -3.712   0.000  0.00  0.00    +0.010 C 
BRANCH  11   9
ATOM      8  N   UNL     1       3.572  -2.888   0.000  0.00  0.00    -0.201 NA
ATOM      9  C   UNL     1       4.287  -2.475   0.000  0.00  0.00    +0.241 C 
ATOM     10  O   UNL     1       4.287  -1.650   0.000  0.00  0.00    -0.273 OA
BRANCH   8   7
ATOM      7  C   UNL     1       2.858  -2.475   0.000  0.00  0.00    +0.141 C 
BRANCH   7   6
ATOM      3  C   UNL     1       0.715  -3.712   0.000  0.00  0.00    +0.139 A 
ATOM      4  C   UNL     1       0.715  -2.888   0.000  0.00  0.00    +0.037 A 
ATOM      5  C   UNL     1       1.429  -2.475   0.000  0.00  0.00    +0.001 A 
ATOM      6  C   UNL     1       2.143  -2.888   0.000  0.00  0.00    -0.000 A 
ATOM     34  C   UNL     1       2.143  -3.712   0.000  0.00  0.00    +0.001 A 
ATOM     35  C   UNL     1       1.429  -4.125   0.000  0.00  0.00    +0.037 A 
BRANCH   3   2
ATOM      1  C   UNL     1       0.000  -4.950   0.000  0.00  0.00    +0.252 C 
ATOM      2  O   UNL     1       0.000  -4.125   0.000  0.00  0.00    -0.471 OA
ENDBRANCH   3   2
ENDBRANCH   7   6
ENDBRANCH   8   7
ENDBRANCH  11   9
ENDBRANCH  13  11
TORSDOF 8
