REMARK  Name = 
REMARK  6 active torsions:
REMARK  status: ('A' for Active; 'I' for Inactive)
REMARK    1  A    between atoms: C_2  and  C_3
REMARK    2  A    between atoms: C_2  and  C_26
REMARK    3  A    between atoms: C_14  and  C_16
REMARK    4  A    between atoms: C_16  and  N_17
REMARK    5  A    between atoms: N_28  and  C_30
REMARK    6  A    between atoms: C_30  and  C_31
REMARK                            x       y       z     vdW  Elec       q    Type
REMARK                         _______ _______ _______ _____ _____    ______ ____
ROOT
ATOM      3  C   UNL     1       2.143  -1.238   0.000  0.00  0.00    +0.039 C 
ATOM      4  C   UNL     1       1.429  -1.650   0.000  0.00  0.00    +0.003 C 
ATOM      5  C   UNL     1       0.715  -1.238   0.000  0.00  0.00    +0.001 C 
ATOM      6  C   UNL     1       0.715  -0.412   0.000  0.00  0.00    +0.007 C 
ATOM      7  C   UNL     1       0.000  -0.825   0.000  0.00  0.00    +0.000 C 
ATOM      8  C   UNL     1       0.000   0.000   0.000  0.00  0.00    +0.034 C 
ATOM      9  C   UNL     1       0.000   0.825   0.000  0.00  0.00    +0.023 A 
ATOM     10  C   UNL     1       0.715   1.238   0.000  0.00  0.00    +0.063 A 
ATOM     11  N   UNL     1       0.543   2.045   0.000  0.00  0.00    -0.227 NA
ATOM     12  C   UNL     1      -0.278   2.131   0.000  0.00  0.00    +0.185 A 
ATOM     13  N   UNL     1      -0.690   2.845   0.000  0.00  0.00    -0.153 NA
ATOM     14  C   UNL     1      -1.515   2.845   0.000  0.00  0.00    +0.264 C 
ATOM     15  O   UNL     1      -1.927   2.131   0.000  0.00  0.00    -0.271 OA
ATOM     20  S   UNL     1      -0.613   1.377   0.000  0.00  0.00    -0.054 S 
ATOM     21  C   UNL     1       1.429   0.825   0.000  0.00  0.00    +0.043 C 
ATOM     22  C   UNL     1       2.143   1.238   0.000  0.00  0.00    +0.006 C 
ATOM     23  C   UNL     1       1.429   0.000   0.000  0.00  0.00    +0.036 C 
ATOM     24  C   UNL     1       2.143  -0.412   0.000  0.00  0.00    +0.153 C 
ATOM     25  O   UNL     1       2.858   0.000   0.000  0.00  0.00    -0.223 OA
ENDROOT
BRANCH   3   2
ATOM      1  C   UNL     1       2.858  -2.475   0.000  0.00  0.00    +0.010 C 
ATOM      2  C   UNL     1       2.858  -1.650   0.000  0.00  0.00    +0.079 C 
BRANCH   2  26
ATOM     26  C   UNL     1       3.572  -1.238   0.000  0.00  0.00    +0.226 C 
ATOM     27  O   UNL     1       3.572  -0.412   0.000  0.00  0.00    -0.275 OA
ATOM     28  N   UNL     1       4.287  -1.650   0.000  0.00  0.00    -0.274 N 
ATOM     29  C   UNL     1       4.287  -2.475   0.000  0.00  0.00    +0.115 C 
BRANCH  28  30
ATOM     30  C   UNL     1       5.001  -1.238   0.000  0.00  0.00    +0.120 C 
BRANCH  30  31
ATOM     31  C   UNL     1       5.716  -1.650   0.000  0.00  0.00    -0.005 C 
ATOM     32  C   UNL     1       6.430  -1.238   0.000  0.00  0.00    -0.003 C 
ENDBRANCH  30  31
ENDBRANCH  28  30
ENDBRANCH   2  26
ENDBRANCH   3   2
BRANCH  14  16
ATOM     16  C   UNL     1      -1.927   3.560   0.000  0.00  0.00    +0.161 C 
BRANCH  16  17
ATOM     17  N   UNL     1      -2.752   3.560   0.000  0.00  0.00    -0.263 NA
ATOM     18  C   UNL     1      -3.165   4.274   0.000  0.00  0.00    +0.090 C 
ATOM     19  C   UNL     1      -3.165   2.845   0.000  0.00  0.00    +0.090 C 
ENDBRANCH  16  17
ENDBRANCH  14  16
TORSDOF 6
