REMARK  Name = 
REMARK  8 active torsions:
REMARK  status: ('A' for Active; 'I' for Inactive)
REMARK    1  A    between atoms: C_2  and  N_4
REMARK    2  A    between atoms: C_5  and  C_7
REMARK    3  A    between atoms: C_7  and  C_8
REMARK    4  A    between atoms: C_8  and  C_9
REMARK    5  A    between atoms: C_16  and  N_19
REMARK    6  A    between atoms: N_19  and  C_20
REMARK    7  A    between atoms: C_20  and  C_21
REMARK    8  A    between atoms: C_24  and  C_25
REMARK                            x       y       z     vdW  Elec       q    Type
REMARK                         _______ _______ _______ _____ _____    ______ ____
ROOT
ATOM      9  C   UNL     1       2.858  -3.300   0.000  0.00  0.00    +0.080 C 
ATOM     10  C   UNL     1       2.858  -2.475   0.000  0.00  0.00    +0.131 C 
ATOM     11  N   UNL     1       3.572  -2.062   0.000  0.00  0.00    -0.203 NA
ATOM     12  C   UNL     1       4.287  -2.475   0.000  0.00  0.00    +0.256 C 
ATOM     13  O   UNL     1       5.001  -2.062   0.000  0.00  0.00    -0.272 OA
ATOM     14  C   UNL     1       4.287  -3.300   0.000  0.00  0.00    +0.138 C 
ATOM     15  C   UNL     1       4.900  -3.852   0.000  0.00  0.00    +0.044 C 
ATOM     16  C   UNL     1       4.564  -4.606   0.000  0.00  0.00    +0.091 C 
ATOM     17  C   UNL     1       3.744  -4.519   0.000  0.00  0.00    +0.090 C 
ATOM     18  N   UNL     1       3.572  -3.712   0.000  0.00  0.00    -0.265 NA
ENDROOT
BRANCH   9   8
ATOM      8  C   UNL     1       2.143  -3.712   0.000  0.00  0.00    +0.027 C 
BRANCH   8   7
ATOM      7  C   UNL     1       1.429  -3.300   0.000  0.00  0.00    +0.088 C 
BRANCH   7   5
ATOM      4  N   UNL     1       0.000  -3.300   0.000  0.00  0.00    -0.207 NA
ATOM      5  C   UNL     1       0.715  -3.712   0.000  0.00  0.00    +0.241 C 
ATOM      6  O   UNL     1       0.715  -4.537   0.000  0.00  0.00    -0.273 OA
BRANCH   4   2
ATOM      1  C   UNL     1      -1.429  -3.300   0.000  0.00  0.00    +0.023 C 
ATOM      2  C   UNL     1      -0.715  -3.712   0.000  0.00  0.00    +0.095 C 
ATOM      3  C   UNL     1      -0.715  -4.537   0.000  0.00  0.00    +0.023 C 
ENDBRANCH   4   2
ENDBRANCH   7   5
ENDBRANCH   8   7
ENDBRANCH   9   8
BRANCH  16  19
ATOM     19  N   UNL     1       4.977  -5.320   0.000  0.00  0.00    -0.210 NA
BRANCH  19  20
ATOM     20  C   UNL     1       4.564  -6.035   0.000  0.00  0.00    +0.153 C 
BRANCH  20  21
ATOM     21  C   UNL     1       4.977  -6.749   0.000  0.00  0.00    +0.140 A 
ATOM     22  C   UNL     1       5.797  -6.835   0.000  0.00  0.00    +0.037 A 
ATOM     23  C   UNL     1       5.969  -7.642   0.000  0.00  0.00    +0.038 A 
ATOM     24  C   UNL     1       5.254  -8.055   0.000  0.00  0.00    +0.156 A 
ATOM     27  O   UNL     1       4.641  -7.503   0.000  0.00  0.00    -0.458 OA
BRANCH  24  25
ATOM     25  C   UNL     1       5.168  -8.875   0.000  0.00  0.00    +0.246 C 
ATOM     26  O   UNL     1       5.836  -9.360   0.000  0.00  0.00    -0.212 OA
ENDBRANCH  24  25
ENDBRANCH  20  21
ENDBRANCH  19  20
ENDBRANCH  16  19
TORSDOF 8
