MODEL 1
REMARK VINA RESULT:     -10.5      0.000      0.000
REMARK  Name = 
REMARK  3 active torsions:
REMARK  status: ('A' for Active; 'I' for Inactive)
REMARK    1  A    between atoms: C_6  and  C_7
REMARK    2  A    between atoms: C_7  and  N_8
REMARK    3  A    between atoms: N_14  and  C_15
REMARK                            x       y       z     vdW  Elec       q    Type
REMARK                         _______ _______ _______ _____ _____    ______ ____
ROOT
ATOM      8  N   UNL     1      -3.347   2.424  24.375  0.00  0.00    -0.263 NA
ATOM      9  C   UNL     1      -4.158   2.421  24.526  0.00  0.00    +0.094 C 
ATOM     10  C   UNL     1      -4.558   1.705  24.610  0.00  0.00    +0.112 C 
ATOM     11  N   UNL     1      -4.148   0.992  24.543  0.00  0.00    -0.261 N 
ATOM     12  C   UNL     1      -3.337   0.996  24.393  0.00  0.00    +0.113 C 
ATOM     13  C   UNL     1      -3.080   0.213  24.356  0.00  0.00    +0.116 C 
ATOM     14  N   UNL     1      -3.733  -0.275  24.484  0.00  0.00    -0.264 N 
ATOM     21  C   UNL     1      -4.392   0.207  24.600  0.00  0.00    +0.307 C 
ATOM     22  O   UNL     1      -5.162  -0.052  24.746  0.00  0.00    -0.252 OA
ATOM     23  C   UNL     1      -2.936   1.712  24.308  0.00  0.00    +0.094 C 
ENDROOT
BRANCH  14  15
ATOM     15  C   UNL     1      -3.727  -1.100  24.494  0.00  0.00    +0.077 C 
ATOM     16  C   UNL     1      -3.404  -1.503  25.139  0.00  0.00    +0.020 C 
ATOM     17  C   UNL     1      -3.398  -2.328  25.149  0.00  0.00    +0.002 C 
ATOM     18  C   UNL     1      -3.715  -2.750  24.514  0.00  0.00    +0.000 C 
ATOM     19  C   UNL     1      -4.037  -2.348  23.871  0.00  0.00    +0.002 C 
ATOM     20  C   UNL     1      -4.043  -1.523  23.861  0.00  0.00    +0.020 C 
ENDBRANCH  14  15
BRANCH   8   7
ATOM      7  C   UNL     1      -2.946   3.141  24.291  0.00  0.00    +0.137 C 
BRANCH   7   6
ATOM      1  C   UNL     1      -1.368   3.944  24.582  0.00  0.00    +0.132 C 
ATOM      2  N   UNL     1      -2.015   3.949  25.092  0.00  0.00    -0.311 N 
ATOM      3  C   UNL     1      -2.052   4.324  25.826  0.00  0.00    +0.098 A 
ATOM      4  C   UNL     1      -2.800   4.186  26.146  0.00  0.00    +0.119 A 
ATOM      5  N   UNL     1      -3.226   3.726  25.610  0.00  0.00    -0.228 NA
ATOM      6  C   UNL     1      -2.742   3.580  24.959  0.00  0.00    +0.137 A 
ENDBRANCH   7   6
ENDBRANCH   8   7
TORSDOF 3
ENDMDL
MODEL 2
REMARK VINA RESULT:     -10.3      1.902      5.190
REMARK  Name = 
REMARK  3 active torsions:
REMARK  status: ('A' for Active; 'I' for Inactive)
REMARK    1  A    between atoms: C_6  and  C_7
REMARK    2  A    between atoms: C_7  and  N_8
REMARK    3  A    between atoms: N_14  and  C_15
REMARK                            x       y       z     vdW  Elec       q    Type
REMARK                         _______ _______ _______ _____ _____    ______ ____
ROOT
ATOM      8  N   UNL     1      -1.650   0.065  24.830  0.00  0.00    -0.263 NA
ATOM      9  C   UNL     1      -1.121   0.069  25.463  0.00  0.00    +0.094 C 
ATOM     10  C   UNL     1      -0.864   0.785  25.780  0.00  0.00    +0.112 C 
ATOM     11  N   UNL     1      -1.134   1.498  25.464  0.00  0.00    -0.261 N 
ATOM     12  C   UNL     1      -1.663   1.494  24.831  0.00  0.00    +0.113 C 
ATOM     13  C   UNL     1      -1.834   2.276  24.636  0.00  0.00    +0.116 C 
ATOM     14  N   UNL     1      -1.411   2.765  25.148  0.00  0.00    -0.264 N 
ATOM     21  C   UNL     1      -0.979   2.284  25.659  0.00  0.00    +0.307 C 
ATOM     22  O   UNL     1      -0.478   2.543  26.262  0.00  0.00    -0.252 OA
ATOM     23  C   UNL     1      -1.921   0.776  24.514  0.00  0.00    +0.094 C 
ENDROOT
BRANCH  14  15
ATOM     15  C   UNL     1      -1.418   3.590  25.148  0.00  0.00    +0.077 C 
ATOM     16  C   UNL     1      -0.796   4.009  24.803  0.00  0.00    +0.020 C 
ATOM     17  C   UNL     1      -0.804   4.834  24.803  0.00  0.00    +0.002 C 
ATOM     18  C   UNL     1      -1.434   5.240  25.149  0.00  0.00    +0.000 C 
ATOM     19  C   UNL     1      -2.055   4.822  25.494  0.00  0.00    +0.002 C 
ATOM     20  C   UNL     1      -2.047   3.997  25.493  0.00  0.00    +0.020 C 
ENDBRANCH  14  15
BRANCH   8   7
ATOM      7  C   UNL     1      -1.908  -0.653  24.513  0.00  0.00    +0.137 C 
BRANCH   7   6
ATOM      1  C   UNL     1      -2.172  -2.426  24.438  0.00  0.00    +0.132 C 
ATOM      2  N   UNL     1      -2.643  -1.883  24.842  0.00  0.00    -0.311 N 
ATOM      3  C   UNL     1      -3.317  -2.059  25.283  0.00  0.00    +0.098 A 
ATOM      4  C   UNL     1      -3.613  -1.352  25.591  0.00  0.00    +0.119 A 
ATOM      5  N   UNL     1      -3.121  -0.739  25.339  0.00  0.00    -0.228 NA
ATOM      6  C   UNL     1      -2.522  -1.067  24.877  0.00  0.00    +0.137 A 
ENDBRANCH   7   6
ENDBRANCH   8   7
TORSDOF 3
ENDMDL
MODEL 3
REMARK VINA RESULT:     -10.2      1.641      1.996
REMARK  Name = 
REMARK  3 active torsions:
REMARK  status: ('A' for Active; 'I' for Inactive)
REMARK    1  A    between atoms: C_6  and  C_7
REMARK    2  A    between atoms: C_7  and  N_8
REMARK    3  A    between atoms: N_14  and  C_15
REMARK                            x       y       z     vdW  Elec       q    Type
REMARK                         _______ _______ _______ _____ _____    ______ ____
ROOT
ATOM      8  N   UNL     1      -1.242   2.131  24.895  0.00  0.00    -0.263 NA
ATOM      9  C   UNL     1      -0.750   1.841  25.490  0.00  0.00    +0.094 C 
ATOM     10  C   UNL     1      -0.818   1.057  25.736  0.00  0.00    +0.112 C 
ATOM     11  N   UNL     1      -1.379   0.562  25.388  0.00  0.00    -0.261 N 
ATOM     12  C   UNL     1      -1.871   0.852  24.793  0.00  0.00    +0.113 C 
ATOM     13  C   UNL     1      -2.368   0.239  24.553  0.00  0.00    +0.116 C 
ATOM     14  N   UNL     1      -2.184  -0.429  24.999  0.00  0.00    -0.264 N 
ATOM     21  C   UNL     1      -1.573  -0.229  25.515  0.00  0.00    +0.307 C 
ATOM     22  O   UNL     1      -1.216  -0.733  26.064  0.00  0.00    -0.252 OA
ATOM     23  C   UNL     1      -1.802   1.637  24.546  0.00  0.00    +0.094 C 
ENDROOT
BRANCH  14  15
ATOM     15  C   UNL     1      -2.547  -1.167  24.941  0.00  0.00    +0.077 C 
ATOM     16  C   UNL     1      -3.259  -1.310  25.334  0.00  0.00    +0.020 C 
ATOM     17  C   UNL     1      -3.622  -2.048  25.275  0.00  0.00    +0.002 C 
ATOM     18  C   UNL     1      -3.274  -2.644  24.823  0.00  0.00    +0.000 C 
ATOM     19  C   UNL     1      -2.563  -2.502  24.430  0.00  0.00    +0.002 C 
ATOM     20  C   UNL     1      -2.200  -1.764  24.489  0.00  0.00    +0.020 C 
ENDBRANCH  14  15
BRANCH   8   7
ATOM      7  C   UNL     1      -1.173   2.915  24.647  0.00  0.00    +0.137 C 
BRANCH   7   6
ATOM      1  C   UNL     1      -0.702   4.644  24.749  0.00  0.00    +0.132 C 
ATOM      2  N   UNL     1      -1.373   4.304  25.087  0.00  0.00    -0.311 N 
ATOM      3  C   UNL     1      -1.945   4.698  25.532  0.00  0.00    +0.098 A 
ATOM      4  C   UNL     1      -2.516   4.147  25.760  0.00  0.00    +0.119 A 
ATOM      5  N   UNL     1      -2.295   3.412  25.456  0.00  0.00    -0.228 NA
ATOM      6  C   UNL     1      -1.590   3.509  25.041  0.00  0.00    +0.137 A 
ENDBRANCH   7   6
ENDBRANCH   8   7
TORSDOF 3
ENDMDL
MODEL 4
REMARK VINA RESULT:      -9.9      1.385      4.946
REMARK  Name = 
REMARK  3 active torsions:
REMARK  status: ('A' for Active; 'I' for Inactive)
REMARK    1  A    between atoms: C_6  and  C_7
REMARK    2  A    between atoms: C_7  and  N_8
REMARK    3  A    between atoms: N_14  and  C_15
REMARK                            x       y       z     vdW  Elec       q    Type
REMARK                         _______ _______ _______ _____ _____    ______ ____
ROOT
ATOM      8  N   UNL     1      -3.044   0.024  24.718  0.00  0.00    -0.263 NA
ATOM      9  C   UNL     1      -3.344   0.273  23.991  0.00  0.00    +0.094 C 
ATOM     10  C   UNL     1      -3.228   1.050  23.741  0.00  0.00    +0.112 C 
ATOM     11  N   UNL     1      -2.811   1.579  24.218  0.00  0.00    -0.261 N 
ATOM     12  C   UNL     1      -2.510   1.330  24.944  0.00  0.00    +0.113 C 
ATOM     13  C   UNL     1      -2.124   1.969  25.293  0.00  0.00    +0.116 C 
ATOM     14  N   UNL     1      -2.186   2.614  24.782  0.00  0.00    -0.264 N 
ATOM     21  C   UNL     1      -2.610   2.372  24.118  0.00  0.00    +0.307 C 
ATOM     22  O   UNL     1      -2.801   2.842  23.467  0.00  0.00    -0.252 OA
ATOM     23  C   UNL     1      -2.626   0.552  25.195  0.00  0.00    +0.094 C 
ENDROOT
BRANCH  14  15
ATOM     15  C   UNL     1      -1.878   3.368  24.913  0.00  0.00    +0.077 C 
ATOM     16  C   UNL     1      -2.345   3.949  25.268  0.00  0.00    +0.020 C 
ATOM     17  C   UNL     1      -2.036   4.703  25.399  0.00  0.00    +0.002 C 
ATOM     18  C   UNL     1      -1.261   4.876  25.174  0.00  0.00    +0.000 C 
ATOM     19  C   UNL     1      -0.795   4.296  24.820  0.00  0.00    +0.002 C 
ATOM     20  C   UNL     1      -1.103   3.542  24.689  0.00  0.00    +0.020 C 
ENDBRANCH  14  15
BRANCH   8   7
ATOM      7  C   UNL     1      -3.160  -0.754  24.968  0.00  0.00    +0.137 C 
BRANCH   7   6
ATOM      1  C   UNL     1      -3.509  -2.502  24.760  0.00  0.00    +0.132 C 
ATOM      2  N   UNL     1      -2.772  -2.141  24.674  0.00  0.00    -0.311 N 
ATOM      3  C   UNL     1      -2.066  -2.520  24.478  0.00  0.00    +0.098 A 
ATOM      4  C   UNL     1      -1.469  -1.950  24.452  0.00  0.00    +0.119 A 
ATOM      5  N   UNL     1      -1.807  -1.220  24.633  0.00  0.00    -0.228 NA
ATOM      6  C   UNL     1      -2.611  -1.337  24.770  0.00  0.00    +0.137 A 
ENDBRANCH   7   6
ENDBRANCH   8   7
TORSDOF 3
ENDMDL
