MODEL 1
REMARK VINA RESULT:     -12.6      0.000      0.000
REMARK  Name = 
REMARK  8 active torsions:
REMARK  status: ('A' for Active; 'I' for Inactive)
REMARK    1  A    between atoms: C_2  and  C_3
REMARK    2  A    between atoms: C_3  and  C_4
REMARK    3  A    between atoms: C_9  and  C_10
REMARK    4  A    between atoms: C_10  and  C_11
REMARK    5  A    between atoms: C_14  and  C_15
REMARK    6  A    between atoms: C_15  and  N_16
REMARK    7  A    between atoms: C_26  and  C_27
REMARK    8  A    between atoms: C_27  and  C_28
REMARK                            x       y       z     vdW  Elec       q    Type
REMARK                         _______ _______ _______ _____ _____    ______ ____
ROOT
ATOM      4  C   UNL     1      -0.680   2.813  25.002  0.00  0.00    +0.012 C 
ATOM      5  C   UNL     1      -0.103   3.029  24.452  0.00  0.00    +0.019 C 
ATOM      6  C   UNL     1      -0.030   3.817  24.220  0.00  0.00    +0.089 C 
ATOM      7  N   UNL     1      -0.531   4.389  24.537  0.00  0.00    -0.218 NA
ATOM      8  C   UNL     1      -1.107   4.174  25.087  0.00  0.00    +0.089 C 
ATOM      9  C   UNL     1      -1.182   3.385  25.319  0.00  0.00    +0.024 C 
ENDROOT
BRANCH   4   3
ATOM      3  C   UNL     1      -0.754   2.025  25.234  0.00  0.00    +0.085 C 
BRANCH   3   2
ATOM      1  O   UNL     1       0.025   1.603  24.113  0.00  0.00    -0.275 OA
ATOM      2  C   UNL     1      -0.475   1.423  24.742  0.00  0.00    +0.226 C 
ATOM     23  N   UNL     1      -0.699   0.641  24.881  0.00  0.00    -0.280 N 
ATOM     24  C   UNL     1      -0.420   0.039  24.389  0.00  0.00    +0.093 C 
ATOM     25  C   UNL     1      -0.644  -0.743  24.528  0.00  0.00    +0.022 C 
ATOM     26  C   UNL     1      -1.145  -0.923  25.158  0.00  0.00    +0.008 C 
ATOM     34  C   UNL     1      -1.423  -0.322  25.649  0.00  0.00    +0.022 C 
ATOM     35  C   UNL     1      -1.200   0.461  25.511  0.00  0.00    +0.093 C 
BRANCH  26  27
ATOM     27  C   UNL     1      -1.368  -1.705  25.296  0.00  0.00    +0.026 C 
BRANCH  27  28
ATOM     28  C   UNL     1      -2.108  -1.973  25.046  0.00  0.00    -0.022 A 
ATOM     29  C   UNL     1      -2.173  -2.418  24.354  0.00  0.00    -0.004 A 
ATOM     30  C   UNL     1      -2.912  -2.686  24.104  0.00  0.00    -0.000 A 
ATOM     31  C   UNL     1      -3.586  -2.510  24.546  0.00  0.00    -0.000 A 
ATOM     32  C   UNL     1      -3.521  -2.065  25.238  0.00  0.00    -0.000 A 
ATOM     33  C   UNL     1      -2.781  -1.797  25.488  0.00  0.00    -0.004 A 
ENDBRANCH  27  28
ENDBRANCH  26  27
ENDBRANCH   3   2
ENDBRANCH   4   3
BRANCH   9  10
ATOM     10  C   UNL     1      -1.758   3.170  25.868  0.00  0.00    +0.051 C 
BRANCH  10  11
ATOM     11  C   UNL     1      -2.517   3.490  25.817  0.00  0.00    +0.100 A 
ATOM     12  N   UNL     1      -2.813   4.111  26.272  0.00  0.00    -0.082 NA
ATOM     13  O   UNL     1      -3.593   4.249  26.038  0.00  0.00    -0.357 OA
ATOM     14  C   UNL     1      -3.778   3.713  25.439  0.00  0.00    +0.170 A 
ATOM     22  C   UNL     1      -3.113   3.244  25.302  0.00  0.00    +0.055 A 
BRANCH  14  15
ATOM     15  C   UNL     1      -4.500   3.656  25.045  0.00  0.00    +0.141 C 
BRANCH  15  16
ATOM     16  N   UNL     1      -5.006   3.023  25.201  0.00  0.00    -0.262 NA
ATOM     17  C   UNL     1      -5.513   3.051  25.851  0.00  0.00    +0.105 C 
ATOM     18  C   UNL     1      -6.019   2.417  26.007  0.00  0.00    +0.159 C 
ATOM     19  O   UNL     1      -6.017   1.757  25.513  0.00  0.00    -0.351 OA
ATOM     20  C   UNL     1      -5.510   1.730  24.863  0.00  0.00    +0.159 C 
ATOM     21  C   UNL     1      -5.004   2.363  24.707  0.00  0.00    +0.105 C 
ENDBRANCH  15  16
ENDBRANCH  14  15
ENDBRANCH  10  11
ENDBRANCH   9  10
TORSDOF 8
ENDMDL
MODEL 2
REMARK VINA RESULT:     -11.8      1.828      5.938
REMARK  Name = 
REMARK  8 active torsions:
REMARK  status: ('A' for Active; 'I' for Inactive)
REMARK    1  A    between atoms: C_2  and  C_3
REMARK    2  A    between atoms: C_3  and  C_4
REMARK    3  A    between atoms: C_9  and  C_10
REMARK    4  A    between atoms: C_10  and  C_11
REMARK    5  A    between atoms: C_14  and  C_15
REMARK    6  A    between atoms: C_15  and  N_16
REMARK    7  A    between atoms: C_26  and  C_27
REMARK    8  A    between atoms: C_27  and  C_28
REMARK                            x       y       z     vdW  Elec       q    Type
REMARK                         _______ _______ _______ _____ _____    ______ ____
ROOT
ATOM      4  C   UNL     1      -3.899  -1.206  24.465  0.00  0.00    +0.012 C 
ATOM      5  C   UNL     1      -4.494  -1.373  23.917  0.00  0.00    +0.019 C 
ATOM      6  C   UNL     1      -4.602  -2.145  23.649  0.00  0.00    +0.089 C 
ATOM      7  N   UNL     1      -4.116  -2.750  23.927  0.00  0.00    -0.218 NA
ATOM      8  C   UNL     1      -3.521  -2.584  24.473  0.00  0.00    +0.089 C 
ATOM      9  C   UNL     1      -3.413  -1.810  24.742  0.00  0.00    +0.024 C 
ENDROOT
BRANCH   4   3
ATOM      3  C   UNL     1      -3.791  -0.433  24.733  0.00  0.00    +0.085 C 
BRANCH   3   2
ATOM      1  O   UNL     1      -5.192  -0.231  24.930  0.00  0.00    -0.275 OA
ATOM      2  C   UNL     1      -4.439   0.075  24.795  0.00  0.00    +0.226 C 
ATOM     23  N   UNL     1      -4.331   0.890  24.723  0.00  0.00    -0.280 N 
ATOM     24  C   UNL     1      -4.979   1.398  24.785  0.00  0.00    +0.093 C 
ATOM     25  C   UNL     1      -4.871   2.213  24.713  0.00  0.00    +0.022 C 
ATOM     26  C   UNL     1      -4.117   2.519  24.578  0.00  0.00    +0.008 C 
ATOM     34  C   UNL     1      -3.471   2.012  24.516  0.00  0.00    +0.022 C 
ATOM     35  C   UNL     1      -3.577   1.196  24.588  0.00  0.00    +0.093 C 
BRANCH  26  27
ATOM     27  C   UNL     1      -4.010   3.334  24.506  0.00  0.00    +0.026 C 
BRANCH  27  28
ATOM     28  C   UNL     1      -3.460   3.722  24.984  0.00  0.00    -0.022 A 
ATOM     29  C   UNL     1      -2.727   3.940  24.675  0.00  0.00    -0.004 A 
ATOM     30  C   UNL     1      -2.178   4.328  25.153  0.00  0.00    -0.000 A 
ATOM     31  C   UNL     1      -2.362   4.498  25.940  0.00  0.00    -0.000 A 
ATOM     32  C   UNL     1      -3.095   4.280  26.247  0.00  0.00    -0.000 A 
ATOM     33  C   UNL     1      -3.645   3.892  25.769  0.00  0.00    -0.004 A 
ENDBRANCH  27  28
ENDBRANCH  26  27
ENDBRANCH   3   2
ENDBRANCH   4   3
BRANCH   9  10
ATOM     10  C   UNL     1      -2.818  -1.644  25.289  0.00  0.00    +0.051 C 
BRANCH  10  11
ATOM     11  C   UNL     1      -2.025  -1.708  25.069  0.00  0.00    +0.100 A 
ATOM     12  N   UNL     1      -1.672  -2.361  24.711  0.00  0.00    -0.082 NA
ATOM     13  O   UNL     1      -0.875  -2.186  24.589  0.00  0.00    -0.357 OA
ATOM     14  C   UNL     1      -0.735  -1.424  24.872  0.00  0.00    +0.170 A 
ATOM     22  C   UNL     1      -1.446  -1.128  25.169  0.00  0.00    +0.055 A 
BRANCH  14  15
ATOM     15  C   UNL     1      -0.012  -1.027  24.861  0.00  0.00    +0.141 C 
BRANCH  15  16
ATOM     16  N   UNL     1       0.129  -0.443  24.295  0.00  0.00    -0.262 NA
ATOM     17  C   UNL     1       0.476  -0.643  23.574  0.00  0.00    +0.105 C 
ATOM     18  C   UNL     1       0.617  -0.060  23.008  0.00  0.00    +0.159 C 
ATOM     19  O   UNL     1       0.411   0.723  23.163  0.00  0.00    -0.351 OA
ATOM     20  C   UNL     1       0.063   0.923  23.884  0.00  0.00    +0.159 C 
ATOM     21  C   UNL     1      -0.078   0.340  24.450  0.00  0.00    +0.105 C 
ENDBRANCH  15  16
ENDBRANCH  14  15
ENDBRANCH  10  11
ENDBRANCH   9  10
TORSDOF 8
ENDMDL
MODEL 3
REMARK VINA RESULT:     -11.8      1.219      3.839
REMARK  Name = 
REMARK  8 active torsions:
REMARK  status: ('A' for Active; 'I' for Inactive)
REMARK    1  A    between atoms: C_2  and  C_3
REMARK    2  A    between atoms: C_3  and  C_4
REMARK    3  A    between atoms: C_9  and  C_10
REMARK    4  A    between atoms: C_10  and  C_11
REMARK    5  A    between atoms: C_14  and  C_15
REMARK    6  A    between atoms: C_15  and  N_16
REMARK    7  A    between atoms: C_26  and  C_27
REMARK    8  A    between atoms: C_27  and  C_28
REMARK                            x       y       z     vdW  Elec       q    Type
REMARK                         _______ _______ _______ _____ _____    ______ ____
ROOT
ATOM      4  C   UNL     1      -4.887   2.728  25.063  0.00  0.00    +0.012 C 
ATOM      5  C   UNL     1      -5.607   2.742  25.465  0.00  0.00    +0.019 C 
ATOM      6  C   UNL     1      -5.886   3.448  25.787  0.00  0.00    +0.089 C 
ATOM      7  N   UNL     1      -5.446   4.140  25.706  0.00  0.00    -0.218 NA
ATOM      8  C   UNL     1      -4.726   4.127  25.305  0.00  0.00    +0.089 C 
ATOM      9  C   UNL     1      -4.446   3.420  24.983  0.00  0.00    +0.024 C 
ENDROOT
BRANCH   4   3
ATOM      3  C   UNL     1      -4.608   2.021  24.742  0.00  0.00    +0.085 C 
BRANCH   3   2
ATOM      1  O   UNL     1      -5.458   1.285  25.623  0.00  0.00    -0.275 OA
ATOM      2  C   UNL     1      -4.892   1.299  25.025  0.00  0.00    +0.226 C 
ATOM     23  N   UNL     1      -4.608   0.593  24.708  0.00  0.00    -0.280 N 
ATOM     24  C   UNL     1      -4.891  -0.129  24.992  0.00  0.00    +0.093 C 
ATOM     25  C   UNL     1      -4.607  -0.836  24.675  0.00  0.00    +0.022 C 
ATOM     26  C   UNL     1      -4.040  -0.822  24.076  0.00  0.00    +0.008 C 
ATOM     34  C   UNL     1      -3.757  -0.101  23.794  0.00  0.00    +0.022 C 
ATOM     35  C   UNL     1      -4.040   0.607  24.110  0.00  0.00    +0.093 C 
BRANCH  26  27
ATOM     27  C   UNL     1      -3.756  -1.529  23.761  0.00  0.00    +0.026 C 
BRANCH  27  28
ATOM     28  C   UNL     1      -3.188  -1.965  24.171  0.00  0.00    -0.022 A 
ATOM     29  C   UNL     1      -3.413  -2.629  24.607  0.00  0.00    -0.004 A 
ATOM     30  C   UNL     1      -2.845  -3.065  25.017  0.00  0.00    -0.000 A 
ATOM     31  C   UNL     1      -2.052  -2.838  24.990  0.00  0.00    -0.000 A 
ATOM     32  C   UNL     1      -1.828  -2.174  24.554  0.00  0.00    -0.000 A 
ATOM     33  C   UNL     1      -2.396  -1.738  24.145  0.00  0.00    -0.004 A 
ENDBRANCH  27  28
ENDBRANCH  26  27
ENDBRANCH   3   2
ENDBRANCH   4   3
BRANCH   9  10
ATOM     10  C   UNL     1      -3.726   3.407  24.581  0.00  0.00    +0.051 C 
BRANCH  10  11
ATOM     11  C   UNL     1      -3.041   3.678  24.952  0.00  0.00    +0.100 A 
ATOM     12  N   UNL     1      -3.005   4.071  25.676  0.00  0.00    -0.082 NA
ATOM     13  O   UNL     1      -2.213   4.240  25.836  0.00  0.00    -0.357 OA
ATOM     14  C   UNL     1      -1.759   3.952  25.210  0.00  0.00    +0.170 A 
ATOM     22  C   UNL     1      -2.271   3.604  24.663  0.00  0.00    +0.055 A 
BRANCH  14  15
ATOM     15  C   UNL     1      -0.939   4.002  25.142  0.00  0.00    +0.141 C 
BRANCH  15  16
ATOM     16  N   UNL     1      -0.475   3.327  25.246  0.00  0.00    -0.262 NA
ATOM     17  C   UNL     1      -0.307   3.055  26.006  0.00  0.00    +0.105 C 
ATOM     18  C   UNL     1       0.157   2.381  26.110  0.00  0.00    +0.159 C 
ATOM     19  O   UNL     1       0.453   1.979  25.453  0.00  0.00    -0.351 OA
ATOM     20  C   UNL     1       0.285   2.251  24.693  0.00  0.00    +0.159 C 
ATOM     21  C   UNL     1      -0.179   2.926  24.589  0.00  0.00    +0.105 C 
ENDBRANCH  15  16
ENDBRANCH  14  15
ENDBRANCH  10  11
ENDBRANCH   9  10
TORSDOF 8
ENDMDL
MODEL 4
REMARK VINA RESULT:     -11.7      1.254      3.946
REMARK  Name = 
REMARK  8 active torsions:
REMARK  status: ('A' for Active; 'I' for Inactive)
REMARK    1  A    between atoms: C_2  and  C_3
REMARK    2  A    between atoms: C_3  and  C_4
REMARK    3  A    between atoms: C_9  and  C_10
REMARK    4  A    between atoms: C_10  and  C_11
REMARK    5  A    between atoms: C_14  and  C_15
REMARK    6  A    between atoms: C_15  and  N_16
REMARK    7  A    between atoms: C_26  and  C_27
REMARK    8  A    between atoms: C_27  and  C_28
REMARK                            x       y       z     vdW  Elec       q    Type
REMARK                         _______ _______ _______ _____ _____    ______ ____
ROOT
ATOM      4  C   UNL     1      -3.050   3.336  25.088  0.00  0.00    +0.012 C 
ATOM      5  C   UNL     1      -3.412   3.676  25.748  0.00  0.00    +0.019 C 
ATOM      6  C   UNL     1      -3.021   4.264  26.174  0.00  0.00    +0.089 C 
ATOM      7  N   UNL     1      -2.269   4.511  25.943  0.00  0.00    -0.218 NA
ATOM      8  C   UNL     1      -1.907   4.171  25.285  0.00  0.00    +0.089 C 
ATOM      9  C   UNL     1      -2.298   3.583  24.857  0.00  0.00    +0.024 C 
ENDROOT
BRANCH   4   3
ATOM      3  C   UNL     1      -3.441   2.748  24.662  0.00  0.00    +0.085 C 
BRANCH   3   2
ATOM      1  O   UNL     1      -4.571   2.728  25.536  0.00  0.00    -0.275 OA
ATOM      2  C   UNL     1      -4.074   2.343  25.003  0.00  0.00    +0.226 C 
ATOM     23  N   UNL     1      -4.208   1.552  24.811  0.00  0.00    -0.280 N 
ATOM     24  C   UNL     1      -4.841   1.147  25.153  0.00  0.00    +0.093 C 
ATOM     25  C   UNL     1      -4.976   0.356  24.961  0.00  0.00    +0.022 C 
ATOM     26  C   UNL     1      -4.478  -0.030  24.428  0.00  0.00    +0.008 C 
ATOM     34  C   UNL     1      -3.846   0.375  24.087  0.00  0.00    +0.022 C 
ATOM     35  C   UNL     1      -3.711   1.166  24.278  0.00  0.00    +0.093 C 
BRANCH  26  27
ATOM     27  C   UNL     1      -4.613  -0.821  24.236  0.00  0.00    +0.026 C 
BRANCH  27  28
ATOM     28  C   UNL     1      -4.087  -1.403  24.493  0.00  0.00    -0.022 A 
ATOM     29  C   UNL     1      -3.868  -1.439  25.288  0.00  0.00    -0.004 A 
ATOM     30  C   UNL     1      -3.343  -2.021  25.544  0.00  0.00    -0.000 A 
ATOM     31  C   UNL     1      -3.036  -2.567  25.006  0.00  0.00    -0.000 A 
ATOM     32  C   UNL     1      -3.255  -2.530  24.212  0.00  0.00    -0.000 A 
ATOM     33  C   UNL     1      -3.781  -1.948  23.955  0.00  0.00    -0.004 A 
ENDBRANCH  27  28
ENDBRANCH  26  27
ENDBRANCH   3   2
ENDBRANCH   4   3
BRANCH   9  10
ATOM     10  C   UNL     1      -1.936   3.242  24.199  0.00  0.00    +0.051 C 
BRANCH  10  11
ATOM     11  C   UNL     1      -1.154   2.985  24.244  0.00  0.00    +0.100 A 
ATOM     12  N   UNL     1      -0.486   3.424  24.039  0.00  0.00    -0.082 NA
ATOM     13  O   UNL     1       0.179   2.954  24.171  0.00  0.00    -0.357 OA
ATOM     14  C   UNL     1      -0.077   2.225  24.459  0.00  0.00    +0.170 A 
ATOM     22  C   UNL     1      -0.901   2.244  24.504  0.00  0.00    +0.055 A 
BRANCH  14  15
ATOM     15  C   UNL     1       0.405   1.588  24.665  0.00  0.00    +0.141 C 
BRANCH  15  16
ATOM     16  N   UNL     1       0.365   0.884  24.235  0.00  0.00    -0.262 NA
ATOM     17  C   UNL     1       0.820   0.790  23.554  0.00  0.00    +0.105 C 
ATOM     18  C   UNL     1       0.780   0.087  23.124  0.00  0.00    +0.159 C 
ATOM     19  O   UNL     1       0.284  -0.522  23.376  0.00  0.00    -0.351 OA
ATOM     20  C   UNL     1      -0.172  -0.428  24.057  0.00  0.00    +0.159 C 
ATOM     21  C   UNL     1      -0.132   0.276  24.487  0.00  0.00    +0.105 C 
ENDBRANCH  15  16
ENDBRANCH  14  15
ENDBRANCH  10  11
ENDBRANCH   9  10
TORSDOF 8
ENDMDL
MODEL 5
REMARK VINA RESULT:     -11.4      1.374      4.385
REMARK  Name = 
REMARK  8 active torsions:
REMARK  status: ('A' for Active; 'I' for Inactive)
REMARK    1  A    between atoms: C_2  and  C_3
REMARK    2  A    between atoms: C_3  and  C_4
REMARK    3  A    between atoms: C_9  and  C_10
REMARK    4  A    between atoms: C_10  and  C_11
REMARK    5  A    between atoms: C_14  and  C_15
REMARK    6  A    between atoms: C_15  and  N_16
REMARK    7  A    between atoms: C_26  and  C_27
REMARK    8  A    between atoms: C_27  and  C_28
REMARK                            x       y       z     vdW  Elec       q    Type
REMARK                         _______ _______ _______ _____ _____    ______ ____
ROOT
ATOM      4  C   UNL     1      -1.407  -1.020  24.975  0.00  0.00    +0.012 C 
ATOM      5  C   UNL     1      -0.951  -1.534  24.515  0.00  0.00    +0.019 C 
ATOM      6  C   UNL     1      -1.286  -2.224  24.214  0.00  0.00    +0.089 C 
ATOM      7  N   UNL     1      -2.075  -2.403  24.372  0.00  0.00    -0.218 NA
ATOM      8  C   UNL     1      -2.531  -1.890  24.831  0.00  0.00    +0.089 C 
ATOM      9  C   UNL     1      -2.195  -1.198  25.132  0.00  0.00    +0.024 C 
ENDROOT
BRANCH   4   3
ATOM      3  C   UNL     1      -1.071  -0.329  25.275  0.00  0.00    +0.085 C 
BRANCH   3   2
ATOM      1  O   UNL     1      -0.266  -0.170  24.106  0.00  0.00    -0.275 OA
ATOM      2  C   UNL     1      -0.598   0.144  24.791  0.00  0.00    +0.226 C 
ATOM     23  N   UNL     1      -0.459   0.931  24.995  0.00  0.00    -0.280 N 
ATOM     24  C   UNL     1       0.014   1.404  24.511  0.00  0.00    +0.093 C 
ATOM     25  C   UNL     1       0.153   2.191  24.714  0.00  0.00    +0.022 C 
ATOM     26  C   UNL     1      -0.180   2.506  25.400  0.00  0.00    +0.008 C 
ATOM     34  C   UNL     1      -0.652   2.033  25.883  0.00  0.00    +0.022 C 
ATOM     35  C   UNL     1      -0.792   1.245  25.681  0.00  0.00    +0.093 C 
BRANCH  26  27
ATOM     27  C   UNL     1      -0.041   3.293  25.602  0.00  0.00    +0.026 C 
BRANCH  27  28
ATOM     28  C   UNL     1      -0.592   3.874  25.403  0.00  0.00    -0.022 A 
ATOM     29  C   UNL     1      -0.408   4.436  24.827  0.00  0.00    -0.004 A 
ATOM     30  C   UNL     1      -0.959   5.017  24.628  0.00  0.00    -0.000 A 
ATOM     31  C   UNL     1      -1.694   5.036  25.004  0.00  0.00    -0.000 A 
ATOM     32  C   UNL     1      -1.876   4.474  25.579  0.00  0.00    -0.000 A 
ATOM     33  C   UNL     1      -1.326   3.893  25.778  0.00  0.00    -0.004 A 
ENDBRANCH  27  28
ENDBRANCH  26  27
ENDBRANCH   3   2
ENDBRANCH   4   3
BRANCH   9  10
ATOM     10  C   UNL     1      -2.651  -0.686  25.591  0.00  0.00    +0.051 C 
BRANCH  10  11
ATOM     11  C   UNL     1      -3.413  -0.482  25.349  0.00  0.00    +0.100 A 
ATOM     12  N   UNL     1      -4.094  -0.935  25.458  0.00  0.00    -0.082 NA
ATOM     13  O   UNL     1      -4.730  -0.522  25.132  0.00  0.00    -0.357 OA
ATOM     14  C   UNL     1      -4.442   0.186  24.823  0.00  0.00    +0.170 A 
ATOM     22  C   UNL     1      -3.628   0.211  24.957  0.00  0.00    +0.055 A 
BRANCH  14  15
ATOM     15  C   UNL     1      -4.889   0.767  24.445  0.00  0.00    +0.141 C 
BRANCH  15  16
ATOM     16  N   UNL     1      -5.110   1.449  24.855  0.00  0.00    -0.262 NA
ATOM     17  C   UNL     1      -4.683   2.147  24.755  0.00  0.00    +0.105 C 
ATOM     18  C   UNL     1      -4.903   2.829  25.165  0.00  0.00    +0.159 C 
ATOM     19  O   UNL     1      -5.551   2.811  25.675  0.00  0.00    -0.351 OA
ATOM     20  C   UNL     1      -5.978   2.113  25.776  0.00  0.00    +0.159 C 
ATOM     21  C   UNL     1      -5.757   1.431  25.366  0.00  0.00    +0.105 C 
ENDBRANCH  15  16
ENDBRANCH  14  15
ENDBRANCH  10  11
ENDBRANCH   9  10
TORSDOF 8
ENDMDL
MODEL 6
REMARK VINA RESULT:     -11.2      1.713      4.762
REMARK  Name = 
REMARK  8 active torsions:
REMARK  status: ('A' for Active; 'I' for Inactive)
REMARK    1  A    between atoms: C_2  and  C_3
REMARK    2  A    between atoms: C_3  and  C_4
REMARK    3  A    between atoms: C_9  and  C_10
REMARK    4  A    between atoms: C_10  and  C_11
REMARK    5  A    between atoms: C_14  and  C_15
REMARK    6  A    between atoms: C_15  and  N_16
REMARK    7  A    between atoms: C_26  and  C_27
REMARK    8  A    between atoms: C_27  and  C_28
REMARK                            x       y       z     vdW  Elec       q    Type
REMARK                         _______ _______ _______ _____ _____    ______ ____
ROOT
ATOM      4  C   UNL     1      -0.001   0.646  24.333  0.00  0.00    +0.012 C 
ATOM      5  C   UNL     1       0.367   0.861  23.626  0.00  0.00    +0.019 C 
ATOM      6  C   UNL     1       0.588   0.281  23.083  0.00  0.00    +0.089 C 
ATOM      7  N   UNL     1       0.442  -0.514  23.247  0.00  0.00    -0.218 NA
ATOM      8  C   UNL     1       0.074  -0.729  23.953  0.00  0.00    +0.089 C 
ATOM      9  C   UNL     1      -0.147  -0.148  24.497  0.00  0.00    +0.024 C 
ENDROOT
BRANCH   4   3
ATOM      3  C   UNL     1      -0.221   1.227  24.876  0.00  0.00    +0.085 C 
BRANCH   3   2
ATOM      1  O   UNL     1       0.484   2.285  24.224  0.00  0.00    -0.275 OA
ATOM      2  C   UNL     1      -0.155   2.025  24.675  0.00  0.00    +0.226 C 
ATOM     23  N   UNL     1      -0.728   2.562  24.927  0.00  0.00    -0.280 N 
ATOM     24  C   UNL     1      -0.662   3.360  24.726  0.00  0.00    +0.093 C 
ATOM     25  C   UNL     1      -1.235   3.897  24.978  0.00  0.00    +0.022 C 
ATOM     26  C   UNL     1      -1.875   3.637  25.430  0.00  0.00    +0.008 C 
ATOM     34  C   UNL     1      -1.941   2.840  25.630  0.00  0.00    +0.022 C 
ATOM     35  C   UNL     1      -1.368   2.302  25.379  0.00  0.00    +0.093 C 
BRANCH  26  27
ATOM     27  C   UNL     1      -2.447   4.174  25.681  0.00  0.00    +0.026 C 
BRANCH  27  28
ATOM     28  C   UNL     1      -3.244   4.037  25.513  0.00  0.00    -0.022 A 
ATOM     29  C   UNL     1      -3.523   4.122  24.741  0.00  0.00    -0.004 A 
ATOM     30  C   UNL     1      -4.319   3.985  24.573  0.00  0.00    -0.000 A 
ATOM     31  C   UNL     1      -4.836   3.762  25.177  0.00  0.00    -0.000 A 
ATOM     32  C   UNL     1      -4.556   3.677  25.949  0.00  0.00    -0.000 A 
ATOM     33  C   UNL     1      -3.760   3.815  26.116  0.00  0.00    -0.004 A 
ENDBRANCH  27  28
ENDBRANCH  26  27
ENDBRANCH   3   2
ENDBRANCH   4   3
BRANCH   9  10
ATOM     10  C   UNL     1      -0.514  -0.364  25.203  0.00  0.00    +0.051 C 
BRANCH  10  11
ATOM     11  C   UNL     1      -1.049  -0.992  25.216  0.00  0.00    +0.100 A 
ATOM     12  N   UNL     1      -0.874  -1.781  25.055  0.00  0.00    -0.082 NA
ATOM     13  O   UNL     1      -1.570  -2.218  25.131  0.00  0.00    -0.357 OA
ATOM     14  C   UNL     1      -2.176  -1.698  25.340  0.00  0.00    +0.170 A 
ATOM     22  C   UNL     1      -1.854  -0.940  25.392  0.00  0.00    +0.055 A 
BRANCH  14  15
ATOM     15  C   UNL     1      -2.964  -1.900  25.472  0.00  0.00    +0.141 C 
BRANCH  15  16
ATOM     16  N   UNL     1      -3.483  -1.977  24.835  0.00  0.00    -0.262 NA
ATOM     17  C   UNL     1      -3.894  -1.320  24.555  0.00  0.00    +0.105 C 
ATOM     18  C   UNL     1      -4.413  -1.397  23.918  0.00  0.00    +0.159 C 
ATOM     19  O   UNL     1      -4.519  -2.133  23.560  0.00  0.00    -0.351 OA
ATOM     20  C   UNL     1      -4.107  -2.790  23.840  0.00  0.00    +0.159 C 
ATOM     21  C   UNL     1      -3.589  -2.713  24.477  0.00  0.00    +0.105 C 
ENDBRANCH  15  16
ENDBRANCH  14  15
ENDBRANCH  10  11
ENDBRANCH   9  10
TORSDOF 8
ENDMDL
MODEL 7
REMARK VINA RESULT:     -11.2      1.413      4.587
REMARK  Name = 
REMARK  8 active torsions:
REMARK  status: ('A' for Active; 'I' for Inactive)
REMARK    1  A    between atoms: C_2  and  C_3
REMARK    2  A    between atoms: C_3  and  C_4
REMARK    3  A    between atoms: C_9  and  C_10
REMARK    4  A    between atoms: C_10  and  C_11
REMARK    5  A    between atoms: C_14  and  C_15
REMARK    6  A    between atoms: C_15  and  N_16
REMARK    7  A    between atoms: C_26  and  C_27
REMARK    8  A    between atoms: C_27  and  C_28
REMARK                            x       y       z     vdW  Elec       q    Type
REMARK                         _______ _______ _______ _____ _____    ______ ____
ROOT
ATOM      4  C   UNL     1      -0.727   2.579  24.872  0.00  0.00    +0.012 C 
ATOM      5  C   UNL     1      -0.468   3.108  25.452  0.00  0.00    +0.019 C 
ATOM      6  C   UNL     1       0.217   2.944  25.882  0.00  0.00    +0.089 C 
ATOM      7  N   UNL     1       0.641   2.253  25.734  0.00  0.00    -0.218 NA
ATOM      8  C   UNL     1       0.383   1.725  25.156  0.00  0.00    +0.089 C 
ATOM      9  C   UNL     1      -0.302   1.889  24.725  0.00  0.00    +0.024 C 
ENDROOT
BRANCH   4   3
ATOM      3  C   UNL     1      -1.411   2.743  24.442  0.00  0.00    +0.085 C 
BRANCH   3   2
ATOM      1  O   UNL     1      -1.557   4.085  24.912  0.00  0.00    -0.275 OA
ATOM      2  C   UNL     1      -1.894   3.376  24.661  0.00  0.00    +0.226 C 
ATOM     23  N   UNL     1      -2.715   3.298  24.629  0.00  0.00    -0.280 N 
ATOM     24  C   UNL     1      -3.198   3.931  24.848  0.00  0.00    +0.093 C 
ATOM     25  C   UNL     1      -4.018   3.853  24.815  0.00  0.00    +0.022 C 
ATOM     26  C   UNL     1      -4.356   3.143  24.564  0.00  0.00    +0.008 C 
ATOM     34  C   UNL     1      -3.873   2.512  24.345  0.00  0.00    +0.022 C 
ATOM     35  C   UNL     1      -3.052   2.588  24.377  0.00  0.00    +0.093 C 
BRANCH  26  27
ATOM     27  C   UNL     1      -5.176   3.066  24.532  0.00  0.00    +0.026 C 
BRANCH  27  28
ATOM     28  C   UNL     1      -5.567   2.581  25.075  0.00  0.00    -0.022 A 
ATOM     29  C   UNL     1      -5.799   1.820  24.855  0.00  0.00    -0.004 A 
ATOM     30  C   UNL     1      -6.189   1.336  25.398  0.00  0.00    -0.000 A 
ATOM     31  C   UNL     1      -6.347   1.613  26.159  0.00  0.00    -0.000 A 
ATOM     32  C   UNL     1      -6.115   2.374  26.377  0.00  0.00    -0.000 A 
ATOM     33  C   UNL     1      -5.725   2.858  25.835  0.00  0.00    -0.004 A 
ENDBRANCH  27  28
ENDBRANCH  26  27
ENDBRANCH   3   2
ENDBRANCH   4   3
BRANCH   9  10
ATOM     10  C   UNL     1      -0.560   1.361  24.146  0.00  0.00    +0.051 C 
BRANCH  10  11
ATOM     11  C   UNL     1      -0.494   0.548  24.270  0.00  0.00    +0.100 A 
ATOM     12  N   UNL     1       0.015   0.036  23.871  0.00  0.00    -0.082 NA
ATOM     13  O   UNL     1      -0.101  -0.724  24.169  0.00  0.00    -0.357 OA
ATOM     14  C   UNL     1      -0.683  -0.683  24.752  0.00  0.00    +0.170 A 
ATOM     22  C   UNL     1      -0.926   0.103  24.815  0.00  0.00    +0.055 A 
BRANCH  14  15
ATOM     15  C   UNL     1      -0.971  -1.316  25.195  0.00  0.00    +0.141 C 
BRANCH  15  16
ATOM     16  N   UNL     1      -1.686  -1.674  24.987  0.00  0.00    -0.262 NA
ATOM     17  C   UNL     1      -1.689  -2.321  24.477  0.00  0.00    +0.105 C 
ATOM     18  C   UNL     1      -2.404  -2.679  24.268  0.00  0.00    +0.159 C 
ATOM     19  O   UNL     1      -3.113  -2.387  24.571  0.00  0.00    -0.351 OA
ATOM     20  C   UNL     1      -3.110  -1.740  25.081  0.00  0.00    +0.159 C 
ATOM     21  C   UNL     1      -2.395  -1.382  25.290  0.00  0.00    +0.105 C 
ENDBRANCH  15  16
ENDBRANCH  14  15
ENDBRANCH  10  11
ENDBRANCH   9  10
TORSDOF 8
ENDMDL
