MODEL 1
REMARK VINA RESULT:     -12.6      0.000      0.000
REMARK  Name = 
REMARK  4 active torsions:
REMARK  status: ('A' for Active; 'I' for Inactive)
REMARK    1  A    between atoms: C_2  and  C_4
REMARK    2  A    between atoms: C_7  and  C_8
REMARK    3  A    between atoms: C_8  and  N_9
REMARK    4  A    between atoms: C_12  and  C_14
REMARK                            x       y       z     vdW  Elec       q    Type
REMARK                         _______ _______ _______ _____ _____    ______ ____
ROOT
ATOM      9  N   UNL     1      -4.532   2.047  24.655  0.00  0.00    -0.269 NA
ATOM     10  C   UNL     1      -5.116   1.844  25.200  0.00  0.00    +0.073 C 
ATOM     11  C   UNL     1      -5.090   1.027  25.310  0.00  0.00    +0.026 C 
ATOM     12  C   UNL     1      -4.489   0.724  24.832  0.00  0.00    +0.076 C 
ATOM     13  C   UNL     1      -4.144   1.354  24.427  0.00  0.00    +0.080 C 
ENDROOT
BRANCH  12  14
ATOM     14  C   UNL     1      -4.272  -0.069  24.771  0.00  0.00    +0.140 A 
ATOM     15  N   UNL     1      -4.457  -0.576  24.147  0.00  0.00    -0.229 NA
ATOM     16  C   UNL     1      -4.131  -1.315  24.313  0.00  0.00    +0.100 A 
ATOM     17  C   UNL     1      -3.744  -1.265  25.040  0.00  0.00    +0.100 A 
ATOM     18  N   UNL     1      -3.831  -0.496  25.323  0.00  0.00    -0.229 NA
ATOM     19  C   UNL     1      -3.362  -1.928  25.349  0.00  0.00    +0.021 A 
ATOM     20  C   UNL     1      -3.368  -2.640  24.933  0.00  0.00    +0.002 A 
ATOM     21  C   UNL     1      -3.755  -2.689  24.206  0.00  0.00    +0.002 A 
ATOM     22  C   UNL     1      -4.137  -2.027  23.896  0.00  0.00    +0.021 A 
ENDBRANCH  12  14
BRANCH   9   8
ATOM      8  C   UNL     1      -4.364   2.807  24.384  0.00  0.00    +0.099 C 
BRANCH   8   7
ATOM      4  C   UNL     1      -2.295   3.952  25.113  0.00  0.00    +0.080 A 
ATOM      5  C   UNL     1      -2.300   3.519  24.412  0.00  0.00    +0.006 A 
ATOM      6  C   UNL     1      -2.990   3.137  24.168  0.00  0.00    -0.003 A 
ATOM      7  C   UNL     1      -3.674   3.189  24.627  0.00  0.00    -0.006 A 
ATOM     23  C   UNL     1      -3.668   3.623  25.329  0.00  0.00    -0.003 A 
ATOM     24  C   UNL     1      -2.978   4.005  25.572  0.00  0.00    +0.006 A 
BRANCH   4   2
ATOM      1  O   UNL     1      -1.560   5.158  25.336  0.00  0.00    -0.241 OA
ATOM      2  C   UNL     1      -1.604   4.334  25.356  0.00  0.00    +0.388 C 
ATOM      3  O   UNL     1      -0.959   3.893  25.618  0.00  0.00    -0.241 OA
ENDBRANCH   4   2
ENDBRANCH   8   7
ENDBRANCH   9   8
TORSDOF 4
ENDMDL
MODEL 2
REMARK VINA RESULT:     -12.5      2.300      5.197
REMARK  Name = 
REMARK  4 active torsions:
REMARK  status: ('A' for Active; 'I' for Inactive)
REMARK    1  A    between atoms: C_2  and  C_4
REMARK    2  A    between atoms: C_7  and  C_8
REMARK    3  A    between atoms: C_8  and  N_9
REMARK    4  A    between atoms: C_12  and  C_14
REMARK                            x       y       z     vdW  Elec       q    Type
REMARK                         _______ _______ _______ _____ _____    ______ ____
ROOT
ATOM      9  N   UNL     1      -4.125   1.130  24.820  0.00  0.00    -0.269 NA
ATOM     10  C   UNL     1      -4.319   1.444  24.082  0.00  0.00    +0.073 C 
ATOM     11  C   UNL     1      -3.855   2.116  23.961  0.00  0.00    +0.026 C 
ATOM     12  C   UNL     1      -3.375   2.217  24.625  0.00  0.00    +0.076 C 
ATOM     13  C   UNL     1      -3.542   1.608  25.156  0.00  0.00    +0.080 C 
ENDROOT
BRANCH  12  14
ATOM     14  C   UNL     1      -2.825   2.822  24.738  0.00  0.00    +0.140 A 
ATOM     15  N   UNL     1      -2.990   3.584  25.004  0.00  0.00    -0.229 NA
ATOM     16  C   UNL     1      -2.281   4.003  25.035  0.00  0.00    +0.100 A 
ATOM     17  C   UNL     1      -1.676   3.499  24.788  0.00  0.00    +0.100 A 
ATOM     18  N   UNL     1      -2.012   2.769  24.604  0.00  0.00    -0.229 NA
ATOM     19  C   UNL     1      -0.898   3.771  24.762  0.00  0.00    +0.021 A 
ATOM     20  C   UNL     1      -0.723   4.546  24.983  0.00  0.00    +0.002 A 
ATOM     21  C   UNL     1      -1.328   5.050  25.230  0.00  0.00    +0.002 A 
ATOM     22  C   UNL     1      -2.107   4.779  25.257  0.00  0.00    +0.021 A 
ENDBRANCH  12  14
BRANCH   9   8
ATOM      8  C   UNL     1      -4.456   0.457  25.163  0.00  0.00    +0.099 C 
BRANCH   8   7
ATOM      4  C   UNL     1      -3.508  -1.776  24.672  0.00  0.00    +0.080 A 
ATOM      5  C   UNL     1      -4.016  -1.415  24.130  0.00  0.00    +0.006 A 
ATOM      6  C   UNL     1      -4.332  -0.671  24.294  0.00  0.00    -0.003 A 
ATOM      7  C   UNL     1      -4.140  -0.287  24.999  0.00  0.00    -0.006 A 
ATOM     23  C   UNL     1      -3.633  -0.648  25.540  0.00  0.00    -0.003 A 
ATOM     24  C   UNL     1      -3.317  -1.393  25.376  0.00  0.00    +0.006 A 
BRANCH   4   2
ATOM      1  O   UNL     1      -2.399  -2.594  24.294  0.00  0.00    -0.241 OA
ATOM      2  C   UNL     1      -3.193  -2.520  24.507  0.00  0.00    +0.388 C 
ATOM      3  O   UNL     1      -3.670  -3.191  24.556  0.00  0.00    -0.241 OA
ENDBRANCH   4   2
ENDBRANCH   8   7
ENDBRANCH   9   8
TORSDOF 4
ENDMDL
MODEL 3
REMARK VINA RESULT:     -11.7      2.911      5.692
REMARK  Name = 
REMARK  4 active torsions:
REMARK  status: ('A' for Active; 'I' for Inactive)
REMARK    1  A    between atoms: C_2  and  C_4
REMARK    2  A    between atoms: C_7  and  C_8
REMARK    3  A    between atoms: C_8  and  N_9
REMARK    4  A    between atoms: C_12  and  C_14
REMARK                            x       y       z     vdW  Elec       q    Type
REMARK                         _______ _______ _______ _____ _____    ______ ____
ROOT
ATOM      9  N   UNL     1      -1.113   0.089  25.354  0.00  0.00    -0.269 NA
ATOM     10  C   UNL     1      -0.569   0.175  24.739  0.00  0.00    +0.073 C 
ATOM     11  C   UNL     1      -0.501   0.980  24.570  0.00  0.00    +0.026 C 
ATOM     12  C   UNL     1      -1.002   1.391  25.080  0.00  0.00    +0.076 C 
ATOM     13  C   UNL     1      -1.380   0.841  25.564  0.00  0.00    +0.080 C 
ENDROOT
BRANCH  12  14
ATOM     14  C   UNL     1      -1.107   2.209  25.102  0.00  0.00    +0.140 A 
ATOM     15  N   UNL     1      -1.785   2.605  25.357  0.00  0.00    -0.229 NA
ATOM     16  C   UNL     1      -1.649   3.415  25.285  0.00  0.00    +0.100 A 
ATOM     17  C   UNL     1      -0.888   3.521  24.986  0.00  0.00    +0.100 A 
ATOM     18  N   UNL     1      -0.553   2.776  24.872  0.00  0.00    -0.229 NA
ATOM     19  C   UNL     1      -0.598   4.282  24.855  0.00  0.00    +0.021 A 
ATOM     20  C   UNL     1      -1.069   4.937  25.023  0.00  0.00    +0.002 A 
ATOM     21  C   UNL     1      -1.830   4.832  25.323  0.00  0.00    +0.002 A 
ATOM     22  C   UNL     1      -2.121   4.071  25.454  0.00  0.00    +0.021 A 
ENDBRANCH  12  14
BRANCH   9   8
ATOM      8  C   UNL     1      -1.348  -0.623  25.697  0.00  0.00    +0.099 C 
BRANCH   8   7
ATOM      4  C   UNL     1      -3.159  -1.957  24.666  0.00  0.00    +0.080 A 
ATOM      5  C   UNL     1      -2.374  -2.088  24.447  0.00  0.00    +0.006 A 
ATOM      6  C   UNL     1      -1.770  -1.643  24.790  0.00  0.00    -0.003 A 
ATOM      7  C   UNL     1      -1.952  -1.067  25.354  0.00  0.00    -0.006 A 
ATOM     23  C   UNL     1      -2.736  -0.937  25.573  0.00  0.00    -0.003 A 
ATOM     24  C   UNL     1      -3.340  -1.382  25.229  0.00  0.00    +0.006 A 
BRANCH   4   2
ATOM      1  O   UNL     1      -3.783  -3.221  24.427  0.00  0.00    -0.241 OA
ATOM      2  C   UNL     1      -3.762  -2.403  24.322  0.00  0.00    +0.388 C 
ATOM      3  O   UNL     1      -4.345  -2.030  23.873  0.00  0.00    -0.241 OA
ENDBRANCH   4   2
ENDBRANCH   8   7
ENDBRANCH   9   8
TORSDOF 4
ENDMDL
MODEL 4
REMARK VINA RESULT:     -11.6      1.886      2.471
REMARK  Name = 
REMARK  4 active torsions:
REMARK  status: ('A' for Active; 'I' for Inactive)
REMARK    1  A    between atoms: C_2  and  C_4
REMARK    2  A    between atoms: C_7  and  C_8
REMARK    3  A    between atoms: C_8  and  N_9
REMARK    4  A    between atoms: C_12  and  C_14
REMARK                            x       y       z     vdW  Elec       q    Type
REMARK                         _______ _______ _______ _____ _____    ______ ____
ROOT
ATOM      9  N   UNL     1      -0.756   1.120  25.271  0.00  0.00    -0.269 NA
ATOM     10  C   UNL     1      -0.355   0.848  24.603  0.00  0.00    +0.073 C 
ATOM     11  C   UNL     1      -0.788   0.222  24.284  0.00  0.00    +0.026 C 
ATOM     12  C   UNL     1      -1.456   0.107  24.755  0.00  0.00    +0.076 C 
ATOM     13  C   UNL     1      -1.436   0.662  25.365  0.00  0.00    +0.080 C 
ENDROOT
BRANCH  12  14
ATOM     14  C   UNL     1      -2.040  -0.464  24.637  0.00  0.00    +0.140 A 
ATOM     15  N   UNL     1      -2.799  -0.327  24.345  0.00  0.00    -0.229 NA
ATOM     16  C   UNL     1      -3.196  -1.049  24.318  0.00  0.00    +0.100 A 
ATOM     17  C   UNL     1      -2.681  -1.633  24.593  0.00  0.00    +0.100 A 
ATOM     18  N   UNL     1      -1.967  -1.272  24.790  0.00  0.00    -0.229 NA
ATOM     19  C   UNL     1      -2.931  -2.419  24.627  0.00  0.00    +0.021 A 
ATOM     20  C   UNL     1      -3.694  -2.621  24.388  0.00  0.00    +0.002 A 
ATOM     21  C   UNL     1      -4.208  -2.037  24.113  0.00  0.00    +0.002 A 
ATOM     22  C   UNL     1      -3.959  -1.251  24.078  0.00  0.00    +0.021 A 
ENDBRANCH  12  14
BRANCH   9   8
ATOM      8  C   UNL     1      -0.519   1.741  25.759  0.00  0.00    +0.099 C 
BRANCH   8   7
ATOM      4  C   UNL     1      -1.298   4.045  25.299  0.00  0.00    +0.080 A 
ATOM      5  C   UNL     1      -0.626   3.753  24.920  0.00  0.00    +0.006 A 
ATOM      6  C   UNL     1      -0.366   2.985  25.073  0.00  0.00    -0.003 A 
ATOM      7  C   UNL     1      -0.779   2.509  25.606  0.00  0.00    -0.006 A 
ATOM     23  C   UNL     1      -1.451   2.800  25.985  0.00  0.00    -0.003 A 
ATOM     24  C   UNL     1      -1.711   3.569  25.831  0.00  0.00    +0.006 A 
BRANCH   4   2
ATOM      1  O   UNL     1      -2.366   4.977  25.114  0.00  0.00    -0.241 OA
ATOM      2  C   UNL     1      -1.558   4.813  25.145  0.00  0.00    +0.388 C 
ATOM      3  O   UNL     1      -1.009   5.416  25.022  0.00  0.00    -0.241 OA
ENDBRANCH   4   2
ENDBRANCH   8   7
ENDBRANCH   9   8
TORSDOF 4
ENDMDL
