MODEL 1
REMARK VINA RESULT:     -10.3      0.000      0.000
REMARK  Name = 
REMARK  5 active torsions:
REMARK  status: ('A' for Active; 'I' for Inactive)
REMARK    1  A    between atoms: N_2  and  C_3
REMARK    2  A    between atoms: C_6  and  C_9
REMARK    3  A    between atoms: C_12  and  C_14
REMARK    4  A    between atoms: N_18  and  C_19
REMARK    5  A    between atoms: C_19  and  C_20
REMARK                            x       y       z     vdW  Elec       q    Type
REMARK                         _______ _______ _______ _____ _____    ______ ____
ROOT
ATOM      9  C   UNL     1      -3.902   0.463  24.477  0.00  0.00    +0.205 A 
ATOM     10  N   UNL     1      -3.688   0.863  23.788  0.00  0.00    -0.056 NA
ATOM     11  O   UNL     1      -3.878   1.660  23.887  0.00  0.00    -0.336 OA
ATOM     12  C   UNL     1      -4.210   1.752  24.637  0.00  0.00    +0.251 A 
ATOM     13  N   UNL     1      -4.225   1.011  25.001  0.00  0.00    -0.190 NA
ENDROOT
BRANCH   9   6
ATOM      3  C   UNL     1      -3.627  -1.961  24.896  0.00  0.00    +0.148 A 
ATOM      4  C   UNL     1      -4.032  -1.702  24.226  0.00  0.00    +0.036 A 
ATOM      5  C   UNL     1      -4.123  -0.894  24.086  0.00  0.00    +0.008 A 
ATOM      6  C   UNL     1      -3.810  -0.346  24.617  0.00  0.00    +0.058 A 
ATOM      7  C   UNL     1      -3.406  -0.605  25.287  0.00  0.00    +0.103 A 
ATOM      8  N   UNL     1      -3.315  -1.413  25.427  0.00  0.00    -0.228 NA
BRANCH   3   2
ATOM      1  C   UNL     1      -3.259  -3.263  24.436  0.00  0.00    +0.137 C 
ATOM      2  N   UNL     1      -3.536  -2.769  25.036  0.00  0.00    -0.218 NA
ENDBRANCH   3   2
ENDBRANCH   9   6
BRANCH  12  14
ATOM     14  C   UNL     1      -4.479   2.460  24.964  0.00  0.00    +0.138 C 
ATOM     15  C   UNL     1      -5.266   2.661  25.105  0.00  0.00    +0.027 C 
ATOM     16  C   UNL     1      -5.281   3.417  25.436  0.00  0.00    +0.019 C 
ATOM     17  C   UNL     1      -4.502   3.683  25.500  0.00  0.00    +0.073 C 
ATOM     18  N   UNL     1      -4.006   3.091  25.208  0.00  0.00    -0.266 NA
BRANCH  18  19
ATOM     19  C   UNL     1      -3.183   3.125  25.168  0.00  0.00    +0.072 C 
BRANCH  19  20
ATOM     20  C   UNL     1      -2.780   3.762  25.507  0.00  0.00    +0.016 C 
ATOM     21  C   UNL     1      -2.546   4.186  26.174  0.00  0.00    +0.001 C 
ATOM     22  C   UNL     1      -2.317   4.440  25.423  0.00  0.00    +0.001 C 
ENDBRANCH  19  20
ENDBRANCH  18  19
ENDBRANCH  12  14
TORSDOF 5
ENDMDL
MODEL 2
REMARK VINA RESULT:      -9.6      1.343      4.568
REMARK  Name = 
REMARK  5 active torsions:
REMARK  status: ('A' for Active; 'I' for Inactive)
REMARK    1  A    between atoms: N_2  and  C_3
REMARK    2  A    between atoms: C_6  and  C_9
REMARK    3  A    between atoms: C_12  and  C_14
REMARK    4  A    between atoms: N_18  and  C_19
REMARK    5  A    between atoms: C_19  and  C_20
REMARK                            x       y       z     vdW  Elec       q    Type
REMARK                         _______ _______ _______ _____ _____    ______ ____
ROOT
ATOM      9  C   UNL     1      -4.160   0.806  24.511  0.00  0.00    +0.205 A 
ATOM     10  N   UNL     1      -3.864   0.776  23.742  0.00  0.00    -0.056 NA
ATOM     11  O   UNL     1      -3.546   0.024  23.621  0.00  0.00    -0.336 OA
ATOM     12  C   UNL     1      -3.645  -0.410  24.316  0.00  0.00    +0.251 A 
ATOM     13  N   UNL     1      -4.025   0.074  24.866  0.00  0.00    -0.190 NA
ENDROOT
BRANCH   9   6
ATOM      3  C   UNL     1      -5.261   2.754  25.570  0.00  0.00    +0.148 A 
ATOM      4  C   UNL     1      -5.700   2.080  25.389  0.00  0.00    +0.036 A 
ATOM      5  C   UNL     1      -5.333   1.431  25.036  0.00  0.00    +0.008 A 
ATOM      6  C   UNL     1      -4.527   1.456  24.864  0.00  0.00    +0.058 A 
ATOM      7  C   UNL     1      -4.088   2.130  25.045  0.00  0.00    +0.103 A 
ATOM      8  N   UNL     1      -4.455   2.779  25.398  0.00  0.00    -0.228 NA
BRANCH   3   2
ATOM      1  C   UNL     1      -5.628   4.135  25.541  0.00  0.00    +0.137 C 
ATOM      2  N   UNL     1      -5.628   3.404  25.923  0.00  0.00    -0.218 NA
ENDBRANCH   3   2
ENDBRANCH   9   6
BRANCH  12  14
ATOM     14  C   UNL     1      -3.407  -1.190  24.439  0.00  0.00    +0.138 C 
ATOM     15  C   UNL     1      -3.873  -1.863  24.333  0.00  0.00    +0.027 C 
ATOM     16  C   UNL     1      -3.414  -2.522  24.518  0.00  0.00    +0.019 C 
ATOM     17  C   UNL     1      -2.664  -2.259  24.738  0.00  0.00    +0.073 C 
ATOM     18  N   UNL     1      -2.660  -1.435  24.689  0.00  0.00    -0.266 NA
BRANCH  18  19
ATOM     19  C   UNL     1      -2.020  -0.943  24.861  0.00  0.00    +0.072 C 
BRANCH  19  20
ATOM     20  C   UNL     1      -1.266  -1.266  24.958  0.00  0.00    +0.016 C 
ATOM     21  C   UNL     1      -0.519  -1.438  24.655  0.00  0.00    +0.001 C 
ATOM     22  C   UNL     1      -0.710  -1.652  25.429  0.00  0.00    +0.001 C 
ENDBRANCH  19  20
ENDBRANCH  18  19
ENDBRANCH  12  14
TORSDOF 5
ENDMDL
MODEL 3
REMARK VINA RESULT:      -9.4      1.435      4.864
REMARK  Name = 
REMARK  5 active torsions:
REMARK  status: ('A' for Active; 'I' for Inactive)
REMARK    1  A    between atoms: N_2  and  C_3
REMARK    2  A    between atoms: C_6  and  C_9
REMARK    3  A    between atoms: C_12  and  C_14
REMARK    4  A    between atoms: N_18  and  C_19
REMARK    5  A    between atoms: C_19  and  C_20
REMARK                            x       y       z     vdW  Elec       q    Type
REMARK                         _______ _______ _______ _____ _____    ______ ____
ROOT
ATOM      9  C   UNL     1      -2.729   1.430  24.452  0.00  0.00    +0.205 A 
ATOM     10  N   UNL     1      -2.330   1.361  23.733  0.00  0.00    -0.056 NA
ATOM     11  O   UNL     1      -1.883   0.667  23.755  0.00  0.00    -0.336 OA
ATOM     12  C   UNL     1      -2.006   0.308  24.488  0.00  0.00    +0.251 A 
ATOM     13  N   UNL     1      -2.529   0.780  24.919  0.00  0.00    -0.190 NA
ENDROOT
BRANCH   9   6
ATOM      3  C   UNL     1      -4.259   3.265  25.097  0.00  0.00    +0.148 A 
ATOM      4  C   UNL     1      -4.553   2.602  24.705  0.00  0.00    +0.036 A 
ATOM      5  C   UNL     1      -4.043   1.990  24.490  0.00  0.00    +0.008 A 
ATOM      6  C   UNL     1      -3.239   2.042  24.667  0.00  0.00    +0.058 A 
ATOM      7  C   UNL     1      -2.945   2.705  25.059  0.00  0.00    +0.103 A 
ATOM      8  N   UNL     1      -3.455   3.317  25.274  0.00  0.00    -0.228 NA
BRANCH   3   2
ATOM      1  C   UNL     1      -5.519   3.705  25.607  0.00  0.00    +0.137 C 
ATOM      2  N   UNL     1      -4.769   3.878  25.312  0.00  0.00    -0.218 NA
ENDBRANCH   3   2
ENDBRANCH   9   6
BRANCH  12  14
ATOM     14  C   UNL     1      -1.665  -0.399  24.745  0.00  0.00    +0.138 C 
ATOM     15  C   UNL     1      -0.907  -0.486  25.058  0.00  0.00    +0.027 C 
ATOM     16  C   UNL     1      -0.797  -1.283  25.239  0.00  0.00    +0.019 C 
ATOM     17  C   UNL     1      -1.487  -1.689  25.039  0.00  0.00    +0.073 C 
ATOM     18  N   UNL     1      -2.024  -1.141  24.733  0.00  0.00    -0.266 NA
BRANCH  18  19
ATOM     19  C   UNL     1      -2.786  -1.309  24.463  0.00  0.00    +0.072 C 
BRANCH  19  20
ATOM     20  C   UNL     1      -3.114  -2.055  24.593  0.00  0.00    +0.016 C 
ATOM     21  C   UNL     1      -3.474  -2.599  25.098  0.00  0.00    +0.001 C 
ATOM     22  C   UNL     1      -3.323  -2.802  24.312  0.00  0.00    +0.001 C 
ENDBRANCH  19  20
ENDBRANCH  18  19
ENDBRANCH  12  14
TORSDOF 5
ENDMDL
MODEL 4
REMARK VINA RESULT:      -9.3      1.880      2.523
REMARK  Name = 
REMARK  5 active torsions:
REMARK  status: ('A' for Active; 'I' for Inactive)
REMARK    1  A    between atoms: N_2  and  C_3
REMARK    2  A    between atoms: C_6  and  C_9
REMARK    3  A    between atoms: C_12  and  C_14
REMARK    4  A    between atoms: N_18  and  C_19
REMARK    5  A    between atoms: C_19  and  C_20
REMARK                            x       y       z     vdW  Elec       q    Type
REMARK                         _______ _______ _______ _____ _____    ______ ____
ROOT
ATOM      9  C   UNL     1      -1.871   0.204  24.680  0.00  0.00    +0.205 A 
ATOM     10  N   UNL     1      -1.662   0.574  23.973  0.00  0.00    -0.056 NA
ATOM     11  O   UNL     1      -1.257   1.269  24.159  0.00  0.00    -0.336 OA
ATOM     12  C   UNL     1      -1.216   1.328  24.981  0.00  0.00    +0.251 A 
ATOM     13  N   UNL     1      -1.596   0.669  25.303  0.00  0.00    -0.190 NA
ENDROOT
BRANCH   9   6
ATOM      3  C   UNL     1      -3.107  -1.930  24.895  0.00  0.00    +0.148 A 
ATOM      4  C   UNL     1      -3.511  -1.212  24.946  0.00  0.00    +0.036 A 
ATOM      5  C   UNL     1      -3.099  -0.501  24.875  0.00  0.00    +0.008 A 
ATOM      6  C   UNL     1      -2.283  -0.508  24.752  0.00  0.00    +0.058 A 
ATOM      7  C   UNL     1      -1.880  -1.225  24.700  0.00  0.00    +0.103 A 
ATOM      8  N   UNL     1      -2.292  -1.937  24.772  0.00  0.00    -0.228 NA
BRANCH   3   2
ATOM      1  C   UNL     1      -3.844  -2.999  24.299  0.00  0.00    +0.137 C 
ATOM      2  N   UNL     1      -3.520  -2.641  24.967  0.00  0.00    -0.218 NA
ENDBRANCH   3   2
ENDBRANCH   9   6
BRANCH  12  14
ATOM     14  C   UNL     1      -0.858   1.938  25.406  0.00  0.00    +0.138 C 
ATOM     15  C   UNL     1      -0.113   1.911  25.760  0.00  0.00    +0.027 C 
ATOM     16  C   UNL     1       0.022   2.639  26.124  0.00  0.00    +0.019 C 
ATOM     17  C   UNL     1      -0.639   3.115  25.996  0.00  0.00    +0.073 C 
ATOM     18  N   UNL     1      -1.184   2.682  25.552  0.00  0.00    -0.266 NA
BRANCH  18  19
ATOM     19  C   UNL     1      -1.923   2.947  25.299  0.00  0.00    +0.072 C 
BRANCH  19  20
ATOM     20  C   UNL     1      -2.198   3.689  25.536  0.00  0.00    +0.016 C 
ATOM     21  C   UNL     1      -2.189   4.510  25.465  0.00  0.00    +0.001 C 
ATOM     22  C   UNL     1      -2.684   4.149  26.017  0.00  0.00    +0.001 C 
ENDBRANCH  19  20
ENDBRANCH  18  19
ENDBRANCH  12  14
TORSDOF 5
ENDMDL
MODEL 5
REMARK VINA RESULT:      -9.2      1.933      5.312
REMARK  Name = 
REMARK  5 active torsions:
REMARK  status: ('A' for Active; 'I' for Inactive)
REMARK    1  A    between atoms: N_2  and  C_3
REMARK    2  A    between atoms: C_6  and  C_9
REMARK    3  A    between atoms: C_12  and  C_14
REMARK    4  A    between atoms: N_18  and  C_19
REMARK    5  A    between atoms: C_19  and  C_20
REMARK                            x       y       z     vdW  Elec       q    Type
REMARK                         _______ _______ _______ _____ _____    ______ ____
ROOT
ATOM      9  C   UNL     1      -1.539   1.637  24.475  0.00  0.00    +0.205 A 
ATOM     10  N   UNL     1      -1.518   1.384  23.690  0.00  0.00    -0.056 NA
ATOM     11  O   UNL     1      -1.424   0.564  23.689  0.00  0.00    -0.336 OA
ATOM     12  C   UNL     1      -1.387   0.310  24.473  0.00  0.00    +0.251 A 
ATOM     13  N   UNL     1      -1.458   0.974  24.959  0.00  0.00    -0.190 NA
ENDROOT
BRANCH   9   6
ATOM      3  C   UNL     1      -1.800   3.975  25.243  0.00  0.00    +0.148 A 
ATOM      4  C   UNL     1      -1.053   3.627  25.227  0.00  0.00    +0.036 A 
ATOM      5  C   UNL     1      -0.966   2.848  24.971  0.00  0.00    +0.008 A 
ATOM      6  C   UNL     1      -1.627   2.417  24.731  0.00  0.00    +0.058 A 
ATOM      7  C   UNL     1      -2.374   2.764  24.747  0.00  0.00    +0.103 A 
ATOM      8  N   UNL     1      -2.461   3.544  25.003  0.00  0.00    -0.228 NA
BRANCH   3   2
ATOM      1  C   UNL     1      -1.478   5.362  25.120  0.00  0.00    +0.137 C 
ATOM      2  N   UNL     1      -1.887   4.755  25.500  0.00  0.00    -0.218 NA
ENDBRANCH   3   2
ENDBRANCH   9   6
BRANCH  12  14
ATOM     14  C   UNL     1      -1.295  -0.469  24.727  0.00  0.00    +0.138 C 
ATOM     15  C   UNL     1      -0.590  -0.819  24.974  0.00  0.00    +0.027 C 
ATOM     16  C   UNL     1      -0.752  -1.602  25.177  0.00  0.00    +0.019 C 
ATOM     17  C   UNL     1      -1.556  -1.736  25.056  0.00  0.00    +0.073 C 
ATOM     18  N   UNL     1      -1.892  -1.036  24.777  0.00  0.00    -0.266 NA
BRANCH  18  19
ATOM     19  C   UNL     1      -2.687  -0.923  24.584  0.00  0.00    +0.072 C 
BRANCH  19  20
ATOM     20  C   UNL     1      -3.215  -1.556  24.626  0.00  0.00    +0.016 C 
ATOM     21  C   UNL     1      -3.710  -2.100  24.253  0.00  0.00    +0.001 C 
ATOM     22  C   UNL     1      -3.635  -2.107  25.075  0.00  0.00    +0.001 C 
ENDBRANCH  19  20
ENDBRANCH  18  19
ENDBRANCH  12  14
TORSDOF 5
ENDMDL
MODEL 6
REMARK VINA RESULT:      -9.1      0.756      1.630
REMARK  Name = 
REMARK  5 active torsions:
REMARK  status: ('A' for Active; 'I' for Inactive)
REMARK    1  A    between atoms: N_2  and  C_3
REMARK    2  A    between atoms: C_6  and  C_9
REMARK    3  A    between atoms: C_12  and  C_14
REMARK    4  A    between atoms: N_18  and  C_19
REMARK    5  A    between atoms: C_19  and  C_20
REMARK                            x       y       z     vdW  Elec       q    Type
REMARK                         _______ _______ _______ _____ _____    ______ ____
ROOT
ATOM      9  C   UNL     1      -2.986   0.559  24.372  0.00  0.00    +0.205 A 
ATOM     10  N   UNL     1      -2.835   0.920  23.646  0.00  0.00    -0.056 NA
ATOM     11  O   UNL     1      -2.764   1.732  23.776  0.00  0.00    -0.336 OA
ATOM     12  C   UNL     1      -2.871   1.873  24.582  0.00  0.00    +0.251 A 
ATOM     13  N   UNL     1      -3.008   1.147  24.951  0.00  0.00    -0.190 NA
ENDROOT
BRANCH   9   6
ATOM      3  C   UNL     1      -3.315  -1.865  24.751  0.00  0.00    +0.148 A 
ATOM      4  C   UNL     1      -3.949  -1.394  24.515  0.00  0.00    +0.036 A 
ATOM      5  C   UNL     1      -3.840  -0.586  24.389  0.00  0.00    +0.008 A 
ATOM      6  C   UNL     1      -3.095  -0.249  24.499  0.00  0.00    +0.058 A 
ATOM      7  C   UNL     1      -2.460  -0.719  24.735  0.00  0.00    +0.103 A 
ATOM      8  N   UNL     1      -2.570  -1.528  24.861  0.00  0.00    -0.228 NA
BRANCH   3   2
ATOM      1  C   UNL     1      -3.556  -3.176  24.238  0.00  0.00    +0.137 C 
ATOM      2  N   UNL     1      -3.424  -2.673  24.877  0.00  0.00    -0.218 NA
ENDBRANCH   3   2
ENDBRANCH   9   6
BRANCH  12  14
ATOM     14  C   UNL     1      -2.845   2.609  24.953  0.00  0.00    +0.138 C 
ATOM     15  C   UNL     1      -2.173   2.970  25.268  0.00  0.00    +0.027 C 
ATOM     16  C   UNL     1      -2.400   3.698  25.584  0.00  0.00    +0.019 C 
ATOM     17  C   UNL     1      -3.212   3.786  25.465  0.00  0.00    +0.073 C 
ATOM     18  N   UNL     1      -3.487   3.113  25.074  0.00  0.00    -0.266 NA
BRANCH  18  19
ATOM     19  C   UNL     1      -4.267   2.970  24.846  0.00  0.00    +0.072 C 
BRANCH  19  20
ATOM     20  C   UNL     1      -4.889   3.317  25.264  0.00  0.00    +0.016 C 
ATOM     21  C   UNL     1      -5.343   3.980  25.450  0.00  0.00    +0.001 C 
ATOM     22  C   UNL     1      -5.511   3.253  25.801  0.00  0.00    +0.001 C 
ENDBRANCH  19  20
ENDBRANCH  18  19
ENDBRANCH  12  14
TORSDOF 5
ENDMDL
