MODEL 1
REMARK VINA RESULT:     -10.6      0.000      0.000
REMARK  Name = 
REMARK  7 active torsions:
REMARK  status: ('A' for Active; 'I' for Inactive)
REMARK    1  A    between atoms: C_2  and  N_3
REMARK    2  A    between atoms: N_3  and  C_4
REMARK    3  A    between atoms: C_6  and  C_8
REMARK    4  A    between atoms: C_8  and  C_9
REMARK    5  A    between atoms: C_9  and  C_10
REMARK    6  A    between atoms: C_17  and  N_20
REMARK    7  A    between atoms: N_23  and  C_24
REMARK                            x       y       z     vdW  Elec       q    Type
REMARK                         _______ _______ _______ _____ _____    ______ ____
ROOT
ATOM     10  C   UNL     1      -4.457   0.989  25.051  0.00  0.00    +0.080 C 
ATOM     11  C   UNL     1      -5.257   0.835  24.921  0.00  0.00    +0.131 C 
ATOM     12  N   UNL     1      -5.789   1.460  24.847  0.00  0.00    -0.203 NA
ATOM     13  C   UNL     1      -5.522   2.239  24.902  0.00  0.00    +0.256 C 
ATOM     14  O   UNL     1      -6.056   2.864  24.828  0.00  0.00    -0.272 OA
ATOM     15  C   UNL     1      -4.723   2.392  25.032  0.00  0.00    +0.138 C 
ATOM     16  C   UNL     1      -4.301   3.097  25.110  0.00  0.00    +0.049 C 
ATOM     17  C   UNL     1      -3.508   2.907  25.233  0.00  0.00    +0.115 C 
ATOM     18  C   UNL     1      -3.438   2.086  25.231  0.00  0.00    +0.094 C 
ATOM     19  N   UNL     1      -4.190   1.767  25.106  0.00  0.00    -0.265 NA
ENDROOT
BRANCH  17  20
ATOM     20  N   UNL     1      -2.891   3.446  25.340  0.00  0.00    -0.187 NA
ATOM     21  C   UNL     1      -2.856   3.901  26.027  0.00  0.00    +0.343 C 
ATOM     22  O   UNL     1      -3.437   3.819  26.607  0.00  0.00    -0.249 OA
ATOM     23  N   UNL     1      -2.240   4.439  26.134  0.00  0.00    -0.161 NA
BRANCH  23  24
ATOM     24  C   UNL     1      -1.659   4.522  25.554  0.00  0.00    +0.075 A 
ATOM     25  C   UNL     1      -1.660   5.184  25.061  0.00  0.00    +0.017 A 
ATOM     26  C   UNL     1      -1.079   5.268  24.481  0.00  0.00    +0.001 A 
ATOM     27  C   UNL     1      -0.497   4.688  24.394  0.00  0.00    +0.000 A 
ATOM     28  C   UNL     1      -0.496   4.026  24.886  0.00  0.00    +0.001 A 
ATOM     29  C   UNL     1      -1.078   3.944  25.466  0.00  0.00    +0.017 A 
ENDBRANCH  23  24
ENDBRANCH  17  20
BRANCH  10   9
ATOM      9  C   UNL     1      -3.924   0.363  25.125  0.00  0.00    +0.027 C 
BRANCH   9   8
ATOM      8  C   UNL     1      -4.145  -0.398  24.895  0.00  0.00    +0.087 C 
BRANCH   8   6
ATOM      3  N   UNL     1      -3.663  -1.722  24.664  0.00  0.00    -0.280 N 
ATOM      6  C   UNL     1      -3.700  -1.048  25.138  0.00  0.00    +0.226 C 
ATOM      7  O   UNL     1      -3.292  -1.024  25.854  0.00  0.00    -0.275 OA
BRANCH   3   2
ATOM      1  C   UNL     1      -2.509  -2.554  24.526  0.00  0.00    +0.023 C 
ATOM      2  C   UNL     1      -3.218  -2.374  24.907  0.00  0.00    +0.093 C 
ENDBRANCH   3   2
BRANCH   3   4
ATOM      4  C   UNL     1      -4.071  -1.747  23.947  0.00  0.00    +0.093 C 
ATOM      5  C   UNL     1      -4.401  -2.457  23.685  0.00  0.00    +0.023 C 
ENDBRANCH   3   4
ENDBRANCH   8   6
ENDBRANCH   9   8
ENDBRANCH  10   9
TORSDOF 7
ENDMDL
MODEL 2
REMARK VINA RESULT:     -10.2      2.203      6.039
REMARK  Name = 
REMARK  7 active torsions:
REMARK  status: ('A' for Active; 'I' for Inactive)
REMARK    1  A    between atoms: C_2  and  N_3
REMARK    2  A    between atoms: N_3  and  C_4
REMARK    3  A    between atoms: C_6  and  C_8
REMARK    4  A    between atoms: C_8  and  C_9
REMARK    5  A    between atoms: C_9  and  C_10
REMARK    6  A    between atoms: C_17  and  N_20
REMARK    7  A    between atoms: N_23  and  C_24
REMARK                            x       y       z     vdW  Elec       q    Type
REMARK                         _______ _______ _______ _____ _____    ______ ____
ROOT
ATOM     10  C   UNL     1      -0.289   1.625  24.837  0.00  0.00    +0.080 C 
ATOM     11  C   UNL     1       0.421   1.816  24.464  0.00  0.00    +0.131 C 
ATOM     12  N   UNL     1       0.769   1.279  23.943  0.00  0.00    -0.203 NA
ATOM     13  C   UNL     1       0.407   0.553  23.795  0.00  0.00    +0.256 C 
ATOM     14  O   UNL     1       0.756   0.017  23.274  0.00  0.00    -0.272 OA
ATOM     15  C   UNL     1      -0.303   0.363  24.168  0.00  0.00    +0.138 C 
ATOM     16  C   UNL     1      -0.785  -0.306  24.131  0.00  0.00    +0.049 C 
ATOM     17  C   UNL     1      -1.431  -0.183  24.629  0.00  0.00    +0.115 C 
ATOM     18  C   UNL     1      -1.349   0.561  24.974  0.00  0.00    +0.094 C 
ATOM     19  N   UNL     1      -0.652   0.899  24.689  0.00  0.00    -0.265 NA
ENDROOT
BRANCH  17  20
ATOM     20  N   UNL     1      -2.051  -0.712  24.759  0.00  0.00    -0.187 NA
ATOM     21  C   UNL     1      -2.169  -1.033  25.510  0.00  0.00    +0.343 C 
ATOM     22  O   UNL     1      -1.667  -0.824  26.130  0.00  0.00    -0.249 OA
ATOM     23  N   UNL     1      -2.788  -1.561  25.639  0.00  0.00    -0.161 NA
BRANCH  23  24
ATOM     24  C   UNL     1      -3.290  -1.770  25.018  0.00  0.00    +0.075 A 
ATOM     25  C   UNL     1      -3.193  -2.494  24.635  0.00  0.00    +0.017 A 
ATOM     26  C   UNL     1      -3.694  -2.704  24.015  0.00  0.00    +0.001 A 
ATOM     27  C   UNL     1      -4.294  -2.188  23.777  0.00  0.00    +0.000 A 
ATOM     28  C   UNL     1      -4.392  -1.464  24.161  0.00  0.00    +0.001 A 
ATOM     29  C   UNL     1      -3.889  -1.256  24.781  0.00  0.00    +0.017 A 
ENDBRANCH  23  24
ENDBRANCH  17  20
BRANCH  10   9
ATOM      9  C   UNL     1      -0.638   2.162  25.358  0.00  0.00    +0.027 C 
BRANCH   9   8
ATOM      8  C   UNL     1      -0.683   2.961  25.159  0.00  0.00    +0.087 C 
BRANCH   8   6
ATOM      3  N   UNL     1      -1.321   4.231  25.304  0.00  0.00    -0.280 N 
ATOM      6  C   UNL     1      -1.193   3.461  25.571  0.00  0.00    +0.226 C 
ATOM      7  O   UNL     1      -1.576   3.191  26.250  0.00  0.00    -0.275 OA
BRANCH   3   2
ATOM      1  C   UNL     1      -2.574   4.911  25.403  0.00  0.00    +0.023 C 
ATOM      2  C   UNL     1      -1.832   4.731  25.716  0.00  0.00    +0.093 C 
ENDBRANCH   3   2
BRANCH   3   4
ATOM      4  C   UNL     1      -0.939   4.501  24.625  0.00  0.00    +0.093 C 
ATOM      5  C   UNL     1      -0.671   5.281  24.586  0.00  0.00    +0.023 C 
ENDBRANCH   3   4
ENDBRANCH   8   6
ENDBRANCH   9   8
ENDBRANCH  10   9
TORSDOF 7
ENDMDL
MODEL 3
REMARK VINA RESULT:     -10.0      1.120      5.187
REMARK  Name = 
REMARK  7 active torsions:
REMARK  status: ('A' for Active; 'I' for Inactive)
REMARK    1  A    between atoms: C_2  and  N_3
REMARK    2  A    between atoms: N_3  and  C_4
REMARK    3  A    between atoms: C_6  and  C_8
REMARK    4  A    between atoms: C_8  and  C_9
REMARK    5  A    between atoms: C_9  and  C_10
REMARK    6  A    between atoms: C_17  and  N_20
REMARK    7  A    between atoms: N_23  and  C_24
REMARK                            x       y       z     vdW  Elec       q    Type
REMARK                         _______ _______ _______ _____ _____    ______ ____
ROOT
ATOM     10  C   UNL     1      -3.750   2.285  24.340  0.00  0.00    +0.080 C 
ATOM     11  C   UNL     1      -4.339   2.863  24.348  0.00  0.00    +0.131 C 
ATOM     12  N   UNL     1      -5.111   2.660  24.553  0.00  0.00    -0.203 NA
ATOM     13  C   UNL     1      -5.296   1.881  24.750  0.00  0.00    +0.256 C 
ATOM     14  O   UNL     1      -6.069   1.680  24.955  0.00  0.00    -0.272 OA
ATOM     15  C   UNL     1      -4.707   1.304  24.742  0.00  0.00    +0.138 C 
ATOM     16  C   UNL     1      -4.724   0.496  24.909  0.00  0.00    +0.049 C 
ATOM     17  C   UNL     1      -3.961   0.199  24.807  0.00  0.00    +0.115 C 
ATOM     18  C   UNL     1      -3.473   0.822  24.577  0.00  0.00    +0.094 C 
ATOM     19  N   UNL     1      -3.935   1.505  24.537  0.00  0.00    -0.265 NA
ENDROOT
BRANCH  17  20
ATOM     20  N   UNL     1      -3.728  -0.586  24.916  0.00  0.00    -0.187 NA
ATOM     21  C   UNL     1      -3.710  -0.909  25.674  0.00  0.00    +0.343 C 
ATOM     22  O   UNL     1      -3.926  -0.449  26.324  0.00  0.00    -0.249 OA
ATOM     23  N   UNL     1      -3.476  -1.693  25.783  0.00  0.00    -0.161 NA
BRANCH  23  24
ATOM     24  C   UNL     1      -3.260  -2.153  25.133  0.00  0.00    +0.075 A 
ATOM     25  C   UNL     1      -2.467  -2.209  24.913  0.00  0.00    +0.017 A 
ATOM     26  C   UNL     1      -2.250  -2.669  24.264  0.00  0.00    +0.001 A 
ATOM     27  C   UNL     1      -2.827  -3.074  23.834  0.00  0.00    +0.000 A 
ATOM     28  C   UNL     1      -3.620  -3.019  24.054  0.00  0.00    +0.001 A 
ATOM     29  C   UNL     1      -3.836  -2.558  24.704  0.00  0.00    +0.017 A 
ENDBRANCH  23  24
ENDBRANCH  17  20
BRANCH  10   9
ATOM      9  C   UNL     1      -2.977   2.487  24.135  0.00  0.00    +0.027 C 
BRANCH   9   8
ATOM      8  C   UNL     1      -2.618   3.147  24.476  0.00  0.00    +0.087 C 
BRANCH   8   6
ATOM      3  N   UNL     1      -1.432   3.868  24.812  0.00  0.00    -0.280 N 
ATOM      6  C   UNL     1      -1.806   3.263  24.395  0.00  0.00    +0.226 C 
ATOM      7  O   UNL     1      -1.366   2.774  23.897  0.00  0.00    -0.275 OA
BRANCH   3   2
ATOM      1  C   UNL     1      -0.106   3.742  25.330  0.00  0.00    +0.023 C 
ATOM      2  C   UNL     1      -0.619   3.985  24.731  0.00  0.00    +0.093 C 
ENDBRANCH   3   2
BRANCH   3   4
ATOM      4  C   UNL     1      -1.871   4.358  25.311  0.00  0.00    +0.093 C 
ATOM      5  C   UNL     1      -1.728   5.171  25.319  0.00  0.00    +0.023 C 
ENDBRANCH   3   4
ENDBRANCH   8   6
ENDBRANCH   9   8
ENDBRANCH  10   9
TORSDOF 7
ENDMDL
MODEL 4
REMARK VINA RESULT:      -9.9      2.501      3.530
REMARK  Name = 
REMARK  7 active torsions:
REMARK  status: ('A' for Active; 'I' for Inactive)
REMARK    1  A    between atoms: C_2  and  N_3
REMARK    2  A    between atoms: N_3  and  C_4
REMARK    3  A    between atoms: C_6  and  C_8
REMARK    4  A    between atoms: C_8  and  C_9
REMARK    5  A    between atoms: C_9  and  C_10
REMARK    6  A    between atoms: C_17  and  N_20
REMARK    7  A    between atoms: N_23  and  C_24
REMARK                            x       y       z     vdW  Elec       q    Type
REMARK                         _______ _______ _______ _____ _____    ______ ____
ROOT
ATOM     10  C   UNL     1      -0.564  -0.465  24.338  0.00  0.00    +0.080 C 
ATOM     11  C   UNL     1      -0.096  -0.910  23.824  0.00  0.00    +0.131 C 
ATOM     12  N   UNL     1       0.493  -0.540  23.380  0.00  0.00    -0.203 NA
ATOM     13  C   UNL     1       0.615   0.273  23.451  0.00  0.00    +0.256 C 
ATOM     14  O   UNL     1       1.204   0.641  23.007  0.00  0.00    -0.272 OA
ATOM     15  C   UNL     1       0.147   0.716  23.965  0.00  0.00    +0.138 C 
ATOM     16  C   UNL     1       0.139   1.520  24.150  0.00  0.00    +0.049 C 
ATOM     17  C   UNL     1      -0.455   1.648  24.707  0.00  0.00    +0.115 C 
ATOM     18  C   UNL     1      -0.815   0.924  24.868  0.00  0.00    +0.094 C 
ATOM     19  N   UNL     1      -0.442   0.347  24.409  0.00  0.00    -0.265 NA
ENDROOT
BRANCH  17  20
ATOM     20  N   UNL     1      -0.656   2.374  25.045  0.00  0.00    -0.187 NA
ATOM     21  C   UNL     1      -0.215   2.671  25.676  0.00  0.00    +0.343 C 
ATOM     22  O   UNL     1       0.427   2.242  25.969  0.00  0.00    -0.249 OA
ATOM     23  N   UNL     1      -0.415   3.396  26.013  0.00  0.00    -0.161 NA
BRANCH  23  24
ATOM     24  C   UNL     1      -1.056   3.825  25.721  0.00  0.00    +0.075 A 
ATOM     25  C   UNL     1      -0.935   4.410  25.151  0.00  0.00    +0.017 A 
ATOM     26  C   UNL     1      -1.575   4.839  24.858  0.00  0.00    +0.001 A 
ATOM     27  C   UNL     1      -2.337   4.684  25.135  0.00  0.00    +0.000 A 
ATOM     28  C   UNL     1      -2.458   4.100  25.704  0.00  0.00    +0.001 A 
ATOM     29  C   UNL     1      -1.817   3.671  25.997  0.00  0.00    +0.017 A 
ENDBRANCH  23  24
ENDBRANCH  17  20
BRANCH  10   9
ATOM      9  C   UNL     1      -1.154  -0.835  24.782  0.00  0.00    +0.027 C 
BRANCH   9   8
ATOM      8  C   UNL     1      -1.777  -1.219  24.402  0.00  0.00    +0.087 C 
BRANCH   8   6
ATOM      3  N   UNL     1      -3.017  -1.899  24.603  0.00  0.00    -0.280 N 
ATOM      6  C   UNL     1      -2.227  -1.777  24.809  0.00  0.00    +0.226 C 
ATOM      7  O   UNL     1      -1.889  -2.212  25.423  0.00  0.00    -0.275 OA
BRANCH   3   2
ATOM      1  C   UNL     1      -3.671  -3.170  24.646  0.00  0.00    +0.023 C 
ATOM      2  C   UNL     1      -3.468  -2.458  25.010  0.00  0.00    +0.093 C 
ENDBRANCH   3   2
BRANCH   3   4
ATOM      4  C   UNL     1      -3.356  -1.464  23.990  0.00  0.00    +0.093 C 
ATOM      5  C   UNL     1      -4.156  -1.261  24.022  0.00  0.00    +0.023 C 
ENDBRANCH   3   4
ENDBRANCH   8   6
ENDBRANCH   9   8
ENDBRANCH  10   9
TORSDOF 7
ENDMDL
MODEL 5
REMARK VINA RESULT:      -8.5     16.061     19.026
REMARK  Name = 
REMARK  7 active torsions:
REMARK  status: ('A' for Active; 'I' for Inactive)
REMARK    1  A    between atoms: C_2  and  N_3
REMARK    2  A    between atoms: N_3  and  C_4
REMARK    3  A    between atoms: C_6  and  C_8
REMARK    4  A    between atoms: C_8  and  C_9
REMARK    5  A    between atoms: C_9  and  C_10
REMARK    6  A    between atoms: C_17  and  N_20
REMARK    7  A    between atoms: N_23  and  C_24
REMARK                            x       y       z     vdW  Elec       q    Type
REMARK                         _______ _______ _______ _____ _____    ______ ____
ROOT
ATOM     10  C   UNL     1      14.271   7.674  18.606  0.00  0.00    +0.080 C 
ATOM     11  C   UNL     1      14.357   7.620  17.787  0.00  0.00    +0.131 C 
ATOM     12  N   UNL     1      13.692   7.532  17.308  0.00  0.00    -0.203 NA
ATOM     13  C   UNL     1      12.940   7.498  17.647  0.00  0.00    +0.256 C 
ATOM     14  O   UNL     1      12.275   7.410  17.167  0.00  0.00    -0.272 OA
ATOM     15  C   UNL     1      12.855   7.553  18.465  0.00  0.00    +0.138 C 
ATOM     16  C   UNL     1      12.190   7.537  18.953  0.00  0.00    +0.049 C 
ATOM     17  C   UNL     1      12.444   7.615  19.734  0.00  0.00    +0.115 C 
ATOM     18  C   UNL     1      13.266   7.679  19.730  0.00  0.00    +0.094 C 
ATOM     19  N   UNL     1      13.520   7.641  18.945  0.00  0.00    -0.265 NA
ENDROOT
BRANCH  17  20
ATOM     20  N   UNL     1      11.960   7.627  20.403  0.00  0.00    -0.187 NA
ATOM     21  C   UNL     1      11.638   6.925  20.692  0.00  0.00    +0.343 C 
ATOM     22  O   UNL     1      11.799   6.211  20.312  0.00  0.00    -0.249 OA
ATOM     23  N   UNL     1      11.155   6.937  21.360  0.00  0.00    -0.161 NA
BRANCH  23  24
ATOM     24  C   UNL     1      10.994   7.652  21.740  0.00  0.00    +0.075 A 
ATOM     25  C   UNL     1      11.461   7.895  22.375  0.00  0.00    +0.017 A 
ATOM     26  C   UNL     1      11.301   8.609  22.756  0.00  0.00    +0.001 A 
ATOM     27  C   UNL     1      10.672   9.080  22.501  0.00  0.00    +0.000 A 
ATOM     28  C   UNL     1      10.205   8.837  21.867  0.00  0.00    +0.001 A 
ATOM     29  C   UNL     1      10.366   8.122  21.486  0.00  0.00    +0.017 A 
ENDBRANCH  23  24
ENDBRANCH  17  20
BRANCH  10   9
ATOM      9  C   UNL     1      14.937   7.762  19.086  0.00  0.00    +0.027 C 
BRANCH   9   8
ATOM      8  C   UNL     1      15.560   7.224  19.030  0.00  0.00    +0.087 C 
BRANCH   8   6
ATOM      3  N   UNL     1      16.763   6.676  19.572  0.00  0.00    -0.280 N 
ATOM      6  C   UNL     1      16.199   7.278  19.548  0.00  0.00    +0.226 C 
ATOM      7  O   UNL     1      16.276   7.935  20.042  0.00  0.00    -0.275 OA
BRANCH   3   2
ATOM      1  C   UNL     1      17.405   6.294  20.790  0.00  0.00    +0.023 C 
ATOM      2  C   UNL     1      17.403   6.731  20.090  0.00  0.00    +0.093 C 
ENDBRANCH   3   2
BRANCH   3   4
ATOM      4  C   UNL     1      16.687   6.020  19.078  0.00  0.00    +0.093 C 
ATOM      5  C   UNL     1      17.355   5.698  18.715  0.00  0.00    +0.023 C 
ENDBRANCH   3   4
ENDBRANCH   8   6
ENDBRANCH   9   8
ENDBRANCH  10   9
TORSDOF 7
ENDMDL
MODEL 6
REMARK VINA RESULT:      -6.8     16.853     19.123
REMARK  Name = 
REMARK  7 active torsions:
REMARK  status: ('A' for Active; 'I' for Inactive)
REMARK    1  A    between atoms: C_2  and  N_3
REMARK    2  A    between atoms: N_3  and  C_4
REMARK    3  A    between atoms: C_6  and  C_8
REMARK    4  A    between atoms: C_8  and  C_9
REMARK    5  A    between atoms: C_9  and  C_10
REMARK    6  A    between atoms: C_17  and  N_20
REMARK    7  A    between atoms: N_23  and  C_24
REMARK                            x       y       z     vdW  Elec       q    Type
REMARK                         _______ _______ _______ _____ _____    ______ ____
ROOT
ATOM     10  C   UNL     1      12.112   7.998  19.617  0.00  0.00    +0.080 C 
ATOM     11  C   UNL     1      11.367   7.836  19.932  0.00  0.00    +0.131 C 
ATOM     12  N   UNL     1      11.291   7.304  20.558  0.00  0.00    -0.203 NA
ATOM     13  C   UNL     1      11.960   6.936  20.870  0.00  0.00    +0.256 C 
ATOM     14  O   UNL     1      11.883   6.404  21.497  0.00  0.00    -0.272 OA
ATOM     15  C   UNL     1      12.704   7.098  20.555  0.00  0.00    +0.138 C 
ATOM     16  C   UNL     1      13.458   6.821  20.746  0.00  0.00    +0.049 C 
ATOM     17  C   UNL     1      13.999   7.180  20.239  0.00  0.00    +0.115 C 
ATOM     18  C   UNL     1      13.581   7.680  19.733  0.00  0.00    +0.094 C 
ATOM     19  N   UNL     1      12.781   7.629  19.929  0.00  0.00    -0.265 NA
ENDROOT
BRANCH  17  20
ATOM     20  N   UNL     1      14.816   7.061  20.237  0.00  0.00    -0.187 NA
ATOM     21  C   UNL     1      15.160   6.570  19.670  0.00  0.00    +0.343 C 
ATOM     22  O   UNL     1      14.686   6.198  19.106  0.00  0.00    -0.249 OA
ATOM     23  N   UNL     1      15.975   6.451  19.668  0.00  0.00    -0.161 NA
BRANCH  23  24
ATOM     24  C   UNL     1      16.448   6.823  20.233  0.00  0.00    +0.075 A 
ATOM     25  C   UNL     1      16.690   6.410  20.905  0.00  0.00    +0.017 A 
ATOM     26  C   UNL     1      17.163   6.781  21.470  0.00  0.00    +0.001 A 
ATOM     27  C   UNL     1      17.394   7.566  21.362  0.00  0.00    +0.000 A 
ATOM     28  C   UNL     1      17.153   7.979  20.690  0.00  0.00    +0.001 A 
ATOM     29  C   UNL     1      16.680   7.607  20.126  0.00  0.00    +0.017 A 
ENDBRANCH  23  24
ENDBRANCH  17  20
BRANCH  10   9
ATOM      9  C   UNL     1      12.188   8.529  18.990  0.00  0.00    +0.027 C 
BRANCH   9   8
ATOM      8  C   UNL     1      11.680   8.478  18.342  0.00  0.00    +0.087 C 
BRANCH   8   6
ATOM      3  N   UNL     1      11.412   8.714  16.959  0.00  0.00    -0.280 N 
ATOM      6  C   UNL     1      11.923   8.758  17.605  0.00  0.00    +0.226 C 
ATOM      7  O   UNL     1      12.676   9.082  17.514  0.00  0.00    -0.275 OA
BRANCH   3   2
ATOM      1  C   UNL     1      11.103   9.093  15.615  0.00  0.00    +0.023 C 
ATOM      2  C   UNL     1      11.654   8.994  16.221  0.00  0.00    +0.093 C 
ENDBRANCH   3   2
BRANCH   3   4
ATOM      4  C   UNL     1      10.658   8.391  17.049  0.00  0.00    +0.093 C 
ATOM      5  C   UNL     1      10.157   8.326  16.396  0.00  0.00    +0.023 C 
ENDBRANCH   3   4
ENDBRANCH   8   6
ENDBRANCH   9   8
ENDBRANCH  10   9
TORSDOF 7
ENDMDL
