MODEL 1
REMARK VINA RESULT:     -11.9      0.000      0.000
REMARK  Name = 
REMARK  7 active torsions:
REMARK  status: ('A' for Active; 'I' for Inactive)
REMARK    1  A    between atoms: O_2  and  C_3
REMARK    2  A    between atoms: C_6  and  C_9
REMARK    3  A    between atoms: C_15  and  C_18
REMARK    4  A    between atoms: C_21  and  C_23
REMARK    5  A    between atoms: N_27  and  C_28
REMARK    6  A    between atoms: C_28  and  C_29
REMARK    7  A    between atoms: C_32  and  C_33
REMARK                            x       y       z     vdW  Elec       q    Type
REMARK                         _______ _______ _______ _____ _____    ______ ____
ROOT
ATOM     18  C   UNL     1      -3.458   0.273  24.645  0.00  0.00    +0.205 A 
ATOM     19  N   UNL     1      -3.585  -0.309  24.074  0.00  0.00    -0.056 NA
ATOM     20  O   UNL     1      -2.925  -0.805  24.063  0.00  0.00    -0.336 OA
ATOM     21  C   UNL     1      -2.390  -0.529  24.627  0.00  0.00    +0.251 A 
ATOM     22  N   UNL     1      -2.719   0.137  24.987  0.00  0.00    -0.190 NA
ENDROOT
BRANCH  18  15
ATOM      9  C   UNL     1      -5.260   3.489  25.484  0.00  0.00    +0.270 C 
ATOM     10  O   UNL     1      -5.780   4.100  25.679  0.00  0.00    -0.268 OA
ATOM     11  N   UNL     1      -5.537   2.714  25.424  0.00  0.00    -0.157 NA
ATOM     12  C   UNL     1      -5.017   2.104  25.229  0.00  0.00    +0.155 A 
ATOM     13  N   UNL     1      -4.221   2.268  25.094  0.00  0.00    -0.227 NA
ATOM     14  C   UNL     1      -3.701   1.658  24.899  0.00  0.00    +0.103 A 
ATOM     15  C   UNL     1      -3.978   0.883  24.840  0.00  0.00    +0.058 A 
ATOM     16  C   UNL     1      -4.776   0.719  24.976  0.00  0.00    +0.008 A 
ATOM     17  C   UNL     1      -5.295   1.329  25.170  0.00  0.00    +0.036 A 
BRANCH   9   6
ATOM      3  C   UNL     1      -2.869   3.980  25.078  0.00  0.00    +0.139 A 
ATOM      4  C   UNL     1      -3.399   3.962  24.447  0.00  0.00    +0.037 A 
ATOM      5  C   UNL     1      -4.196   3.798  24.581  0.00  0.00    +0.008 A 
ATOM      6  C   UNL     1      -4.463   3.653  25.348  0.00  0.00    +0.056 A 
ATOM      7  C   UNL     1      -3.933   3.671  25.980  0.00  0.00    +0.008 A 
ATOM      8  C   UNL     1      -3.136   3.834  25.845  0.00  0.00    +0.037 A 
BRANCH   3   2
ATOM      1  C   UNL     1      -1.732   4.828  25.252  0.00  0.00    +0.252 C 
ATOM      2  O   UNL     1      -2.071   4.143  24.943  0.00  0.00    -0.471 OA
ENDBRANCH   3   2
ENDBRANCH   9   6
ENDBRANCH  18  15
BRANCH  21  23
ATOM     23  C   UNL     1      -1.656  -0.861  24.802  0.00  0.00    +0.138 C 
ATOM     24  C   UNL     1      -1.519  -1.492  25.314  0.00  0.00    +0.027 C 
ATOM     25  C   UNL     1      -0.707  -1.641  25.323  0.00  0.00    +0.019 C 
ATOM     26  C   UNL     1      -0.343  -1.102  24.817  0.00  0.00    +0.073 C 
ATOM     27  N   UNL     1      -0.929  -0.620  24.494  0.00  0.00    -0.260 NA
BRANCH  27  28
ATOM     28  C   UNL     1      -0.810  -0.004  23.959  0.00  0.00    +0.138 C 
BRANCH  28  29
ATOM     29  C   UNL     1      -0.051   0.159  23.680  0.00  0.00    +0.139 A 
ATOM     30  C   UNL     1       0.430   0.785  23.919  0.00  0.00    +0.037 A 
ATOM     31  C   UNL     1       1.139   0.738  23.500  0.00  0.00    +0.038 A 
ATOM     32  C   UNL     1       1.096   0.082  23.001  0.00  0.00    +0.156 A 
ATOM     35  O   UNL     1       0.361  -0.276  23.113  0.00  0.00    -0.458 OA
BRANCH  32  33
ATOM     33  C   UNL     1       1.685  -0.172  22.483  0.00  0.00    +0.246 C 
ATOM     34  O   UNL     1       2.430   0.184  22.498  0.00  0.00    -0.212 OA
ENDBRANCH  32  33
ENDBRANCH  28  29
ENDBRANCH  27  28
ENDBRANCH  21  23
TORSDOF 7
ENDMDL
MODEL 2
REMARK VINA RESULT:     -11.6      1.507      2.684
REMARK  Name = 
REMARK  7 active torsions:
REMARK  status: ('A' for Active; 'I' for Inactive)
REMARK    1  A    between atoms: O_2  and  C_3
REMARK    2  A    between atoms: C_6  and  C_9
REMARK    3  A    between atoms: C_15  and  C_18
REMARK    4  A    between atoms: C_21  and  C_23
REMARK    5  A    between atoms: N_27  and  C_28
REMARK    6  A    between atoms: C_28  and  C_29
REMARK    7  A    between atoms: C_32  and  C_33
REMARK                            x       y       z     vdW  Elec       q    Type
REMARK                         _______ _______ _______ _____ _____    ______ ____
ROOT
ATOM     18  C   UNL     1      -4.073   1.281  24.886  0.00  0.00    +0.205 A 
ATOM     19  N   UNL     1      -4.717   1.005  25.321  0.00  0.00    -0.056 NA
ATOM     20  O   UNL     1      -4.775   0.190  25.203  0.00  0.00    -0.336 OA
ATOM     21  C   UNL     1      -4.166  -0.038  24.695  0.00  0.00    +0.251 A 
ATOM     22  N   UNL     1      -3.732   0.636  24.499  0.00  0.00    -0.190 NA
ENDROOT
BRANCH  18  15
ATOM      9  C   UNL     1      -2.263   4.600  24.921  0.00  0.00    +0.270 C 
ATOM     10  O   UNL     1      -2.004   5.383  24.879  0.00  0.00    -0.268 OA
ATOM     11  N   UNL     1      -3.040   4.411  24.720  0.00  0.00    -0.157 NA
ATOM     12  C   UNL     1      -3.298   3.628  24.761  0.00  0.00    +0.155 A 
ATOM     13  N   UNL     1      -2.779   3.035  25.004  0.00  0.00    -0.227 NA
ATOM     14  C   UNL     1      -3.038   2.253  25.045  0.00  0.00    +0.103 A 
ATOM     15  C   UNL     1      -3.815   2.063  24.844  0.00  0.00    +0.058 A 
ATOM     16  C   UNL     1      -4.334   2.657  24.601  0.00  0.00    +0.008 A 
ATOM     17  C   UNL     1      -4.076   3.440  24.560  0.00  0.00    +0.036 A 
BRANCH   9   6
ATOM      3  C   UNL     1      -0.707   2.819  25.650  0.00  0.00    +0.139 A 
ATOM      4  C   UNL     1      -0.738   3.039  24.856  0.00  0.00    +0.037 A 
ATOM      5  C   UNL     1      -1.257   3.633  24.612  0.00  0.00    +0.008 A 
ATOM      6  C   UNL     1      -1.744   4.006  25.163  0.00  0.00    +0.056 A 
ATOM      7  C   UNL     1      -1.713   3.786  25.959  0.00  0.00    +0.008 A 
ATOM      8  C   UNL     1      -1.195   3.192  26.201  0.00  0.00    +0.037 A 
BRANCH   3   2
ATOM      1  C   UNL     1       0.283   2.337  26.560  0.00  0.00    +0.252 C 
ATOM      2  O   UNL     1      -0.189   2.225  25.894  0.00  0.00    -0.471 OA
ENDBRANCH   3   2
ENDBRANCH   9   6
ENDBRANCH  18  15
BRANCH  21  23
ATOM     23  C   UNL     1      -4.017  -0.804  24.430  0.00  0.00    +0.138 C 
ATOM     24  C   UNL     1      -4.471  -1.225  23.885  0.00  0.00    +0.027 C 
ATOM     25  C   UNL     1      -4.122  -1.966  23.782  0.00  0.00    +0.019 C 
ATOM     26  C   UNL     1      -3.453  -2.002  24.263  0.00  0.00    +0.073 C 
ATOM     27  N   UNL     1      -3.388  -1.285  24.663  0.00  0.00    -0.260 NA
BRANCH  27  28
ATOM     28  C   UNL     1      -2.797  -1.083  25.202  0.00  0.00    +0.138 C 
BRANCH  28  29
ATOM     29  C   UNL     1      -2.011  -1.275  25.045  0.00  0.00    +0.139 A 
ATOM     30  C   UNL     1      -1.633  -1.978  25.251  0.00  0.00    +0.037 A 
ATOM     31  C   UNL     1      -0.853  -1.936  24.987  0.00  0.00    +0.038 A 
ATOM     32  C   UNL     1      -0.748  -1.206  24.617  0.00  0.00    +0.156 A 
ATOM     35  O   UNL     1      -1.465  -0.798  24.653  0.00  0.00    -0.458 OA
BRANCH  32  33
ATOM     33  C   UNL     1      -0.051  -0.933  24.272  0.00  0.00    +0.246 C 
ATOM     34  O   UNL     1      -0.071  -0.295  23.748  0.00  0.00    -0.212 OA
ENDBRANCH  32  33
ENDBRANCH  28  29
ENDBRANCH  27  28
ENDBRANCH  21  23
TORSDOF 7
ENDMDL
MODEL 3
REMARK VINA RESULT:     -11.5      1.752      3.622
REMARK  Name = 
REMARK  7 active torsions:
REMARK  status: ('A' for Active; 'I' for Inactive)
REMARK    1  A    between atoms: O_2  and  C_3
REMARK    2  A    between atoms: C_6  and  C_9
REMARK    3  A    between atoms: C_15  and  C_18
REMARK    4  A    between atoms: C_21  and  C_23
REMARK    5  A    between atoms: N_27  and  C_28
REMARK    6  A    between atoms: C_28  and  C_29
REMARK    7  A    between atoms: C_32  and  C_33
REMARK                            x       y       z     vdW  Elec       q    Type
REMARK                         _______ _______ _______ _____ _____    ______ ____
ROOT
ATOM     18  C   UNL     1      -0.732   1.363  24.289  0.00  0.00    +0.205 A 
ATOM     19  N   UNL     1      -0.668   1.038  23.533  0.00  0.00    -0.056 NA
ATOM     20  O   UNL     1      -0.637   0.216  23.611  0.00  0.00    -0.336 OA
ATOM     21  C   UNL     1      -0.682   0.034  24.414  0.00  0.00    +0.251 A 
ATOM     22  N   UNL     1      -0.741   0.743  24.833  0.00  0.00    -0.190 NA
ENDROOT
BRANCH  18  15
ATOM      9  C   UNL     1      -1.647   4.914  25.210  0.00  0.00    +0.270 C 
ATOM     10  O   UNL     1      -1.694   5.718  25.390  0.00  0.00    -0.268 OA
ATOM     11  N   UNL     1      -0.921   4.578  25.007  0.00  0.00    -0.157 NA
ATOM     12  C   UNL     1      -0.874   3.774  24.828  0.00  0.00    +0.155 A 
ATOM     13  N   UNL     1      -1.552   3.306  24.851  0.00  0.00    -0.227 NA
ATOM     14  C   UNL     1      -1.505   2.502  24.671  0.00  0.00    +0.103 A 
ATOM     15  C   UNL     1      -0.779   2.167  24.468  0.00  0.00    +0.058 A 
ATOM     16  C   UNL     1      -0.100   2.636  24.445  0.00  0.00    +0.008 A 
ATOM     17  C   UNL     1      -0.147   3.439  24.625  0.00  0.00    +0.036 A 
BRANCH   9   6
ATOM      3  C   UNL     1      -3.682   3.507  25.277  0.00  0.00    +0.139 A 
ATOM      4  C   UNL     1      -3.238   3.622  25.962  0.00  0.00    +0.037 A 
ATOM      5  C   UNL     1      -2.559   4.091  25.940  0.00  0.00    +0.008 A 
ATOM      6  C   UNL     1      -2.325   4.445  25.233  0.00  0.00    +0.056 A 
ATOM      7  C   UNL     1      -2.770   4.330  24.547  0.00  0.00    +0.008 A 
ATOM      8  C   UNL     1      -3.448   3.861  24.569  0.00  0.00    +0.037 A 
BRANCH   3   2
ATOM      1  C   UNL     1      -5.062   3.341  25.609  0.00  0.00    +0.252 C 
ATOM      2  O   UNL     1      -4.361   3.038  25.298  0.00  0.00    -0.471 OA
ENDBRANCH   3   2
ENDBRANCH   9   6
ENDBRANCH  18  15
BRANCH  21  23
ATOM     23  C   UNL     1      -0.670  -0.723  24.741  0.00  0.00    +0.138 C 
ATOM     24  C   UNL     1       0.001  -1.183  24.874  0.00  0.00    +0.027 C 
ATOM     25  C   UNL     1      -0.241  -1.897  25.208  0.00  0.00    +0.019 C 
ATOM     26  C   UNL     1      -1.063  -1.878  25.281  0.00  0.00    +0.073 C 
ATOM     27  N   UNL     1      -1.328  -1.153  24.993  0.00  0.00    -0.260 NA
BRANCH  27  28
ATOM     28  C   UNL     1      -2.112  -0.902  24.962  0.00  0.00    +0.138 C 
BRANCH  28  29
ATOM     29  C   UNL     1      -2.722  -1.455  24.921  0.00  0.00    +0.139 A 
ATOM     30  C   UNL     1      -3.173  -1.728  25.556  0.00  0.00    +0.037 A 
ATOM     31  C   UNL     1      -3.718  -2.276  25.267  0.00  0.00    +0.038 A 
ATOM     32  C   UNL     1      -3.603  -2.342  24.452  0.00  0.00    +0.156 A 
ATOM     35  O   UNL     1      -2.988  -1.835  24.239  0.00  0.00    -0.458 OA
BRANCH  32  33
ATOM     33  C   UNL     1      -4.030  -2.829  23.941  0.00  0.00    +0.246 C 
ATOM     34  O   UNL     1      -4.687  -2.532  23.540  0.00  0.00    -0.212 OA
ENDBRANCH  32  33
ENDBRANCH  28  29
ENDBRANCH  27  28
ENDBRANCH  21  23
TORSDOF 7
ENDMDL
MODEL 4
REMARK VINA RESULT:     -11.4      1.796      4.959
REMARK  Name = 
REMARK  7 active torsions:
REMARK  status: ('A' for Active; 'I' for Inactive)
REMARK    1  A    between atoms: O_2  and  C_3
REMARK    2  A    between atoms: C_6  and  C_9
REMARK    3  A    between atoms: C_15  and  C_18
REMARK    4  A    between atoms: C_21  and  C_23
REMARK    5  A    between atoms: N_27  and  C_28
REMARK    6  A    between atoms: C_28  and  C_29
REMARK    7  A    between atoms: C_32  and  C_33
REMARK                            x       y       z     vdW  Elec       q    Type
REMARK                         _______ _______ _______ _____ _____    ______ ____
ROOT
ATOM     18  C   UNL     1      -0.698   0.250  24.677  0.00  0.00    +0.205 A 
ATOM     19  N   UNL     1      -0.145   0.509  24.123  0.00  0.00    -0.056 NA
ATOM     20  O   UNL     1       0.140   1.243  24.371  0.00  0.00    -0.336 OA
ATOM     21  C   UNL     1      -0.238   1.437  25.079  0.00  0.00    +0.251 A 
ATOM     22  N   UNL     1      -0.756   0.823  25.268  0.00  0.00    -0.190 NA
ENDROOT
BRANCH  18  15
ATOM      9  C   UNL     1      -3.211  -2.572  24.540  0.00  0.00    +0.270 C 
ATOM     10  O   UNL     1      -3.633  -3.281  24.509  0.00  0.00    -0.268 OA
ATOM     11  N   UNL     1      -2.386  -2.583  24.553  0.00  0.00    -0.157 NA
ATOM     12  C   UNL     1      -1.964  -1.875  24.584  0.00  0.00    +0.155 A 
ATOM     13  N   UNL     1      -2.367  -1.156  24.602  0.00  0.00    -0.227 NA
ATOM     14  C   UNL     1      -1.945  -0.448  24.633  0.00  0.00    +0.103 A 
ATOM     15  C   UNL     1      -1.120  -0.459  24.646  0.00  0.00    +0.058 A 
ATOM     16  C   UNL     1      -0.717  -1.179  24.628  0.00  0.00    +0.008 A 
ATOM     17  C   UNL     1      -1.139  -1.887  24.597  0.00  0.00    +0.036 A 
BRANCH   9   6
ATOM      3  C   UNL     1      -4.418  -0.412  24.592  0.00  0.00    +0.139 A 
ATOM      4  C   UNL     1      -4.163  -0.759  25.295  0.00  0.00    +0.037 A 
ATOM      5  C   UNL     1      -3.761  -1.480  25.279  0.00  0.00    +0.008 A 
ATOM      6  C   UNL     1      -3.613  -1.853  24.558  0.00  0.00    +0.056 A 
ATOM      7  C   UNL     1      -3.868  -1.505  23.853  0.00  0.00    +0.008 A 
ATOM      8  C   UNL     1      -4.270  -0.785  23.871  0.00  0.00    +0.037 A 
BRANCH   3   2
ATOM      1  C   UNL     1      -5.151   0.580  25.313  0.00  0.00    +0.252 C 
ATOM      2  O   UNL     1      -4.820   0.308  24.608  0.00  0.00    -0.471 OA
ENDBRANCH   3   2
ENDBRANCH   9   6
ENDBRANCH  18  15
BRANCH  21  23
ATOM     23  C   UNL     1      -0.118   2.124  25.520  0.00  0.00    +0.138 C 
ATOM     24  C   UNL     1       0.429   2.219  26.129  0.00  0.00    +0.027 C 
ATOM     25  C   UNL     1       0.360   2.990  26.415  0.00  0.00    +0.019 C 
ATOM     26  C   UNL     1      -0.230   3.370  25.982  0.00  0.00    +0.073 C 
ATOM     27  N   UNL     1      -0.526   2.835  25.429  0.00  0.00    -0.260 NA
BRANCH  27  28
ATOM     28  C   UNL     1      -1.124   2.985  24.882  0.00  0.00    +0.138 C 
BRANCH  28  29
ATOM     29  C   UNL     1      -1.758   3.472  25.086  0.00  0.00    +0.139 A 
ATOM     30  C   UNL     1      -1.769   4.295  25.048  0.00  0.00    +0.037 A 
ATOM     31  C   UNL     1      -2.510   4.553  25.302  0.00  0.00    +0.038 A 
ATOM     32  C   UNL     1      -2.957   3.888  25.499  0.00  0.00    +0.156 A 
ATOM     35  O   UNL     1      -2.492   3.220  25.365  0.00  0.00    -0.458 OA
BRANCH  32  33
ATOM     33  C   UNL     1      -3.733   3.891  25.779  0.00  0.00    +0.246 C 
ATOM     34  O   UNL     1      -4.364   3.931  25.249  0.00  0.00    -0.212 OA
ENDBRANCH  32  33
ENDBRANCH  28  29
ENDBRANCH  27  28
ENDBRANCH  21  23
TORSDOF 7
ENDMDL
MODEL 5
REMARK VINA RESULT:     -11.3      1.381      4.890
REMARK  Name = 
REMARK  7 active torsions:
REMARK  status: ('A' for Active; 'I' for Inactive)
REMARK    1  A    between atoms: O_2  and  C_3
REMARK    2  A    between atoms: C_6  and  C_9
REMARK    3  A    between atoms: C_15  and  C_18
REMARK    4  A    between atoms: C_21  and  C_23
REMARK    5  A    between atoms: N_27  and  C_28
REMARK    6  A    between atoms: C_28  and  C_29
REMARK    7  A    between atoms: C_32  and  C_33
REMARK                            x       y       z     vdW  Elec       q    Type
REMARK                         _______ _______ _______ _____ _____    ______ ____
ROOT
ATOM     18  C   UNL     1      -4.340   0.565  24.682  0.00  0.00    +0.205 A 
ATOM     19  N   UNL     1      -5.026   0.708  24.247  0.00  0.00    -0.056 NA
ATOM     20  O   UNL     1      -5.282   1.474  24.419  0.00  0.00    -0.336 OA
ATOM     21  C   UNL     1      -4.753   1.804  24.960  0.00  0.00    +0.251 A 
ATOM     22  N   UNL     1      -4.171   1.242  25.123  0.00  0.00    -0.190 NA
ENDROOT
BRANCH  18  15
ATOM      9  C   UNL     1      -1.757  -2.196  24.720  0.00  0.00    +0.270 C 
ATOM     10  O   UNL     1      -1.316  -2.893  24.715  0.00  0.00    -0.268 OA
ATOM     11  N   UNL     1      -2.579  -2.226  24.663  0.00  0.00    -0.157 NA
ATOM     12  C   UNL     1      -3.019  -1.528  24.668  0.00  0.00    +0.155 A 
ATOM     13  N   UNL     1      -2.637  -0.800  24.730  0.00  0.00    -0.227 NA
ATOM     14  C   UNL     1      -3.078  -0.103  24.734  0.00  0.00    +0.103 A 
ATOM     15  C   UNL     1      -3.900  -0.133  24.677  0.00  0.00    +0.058 A 
ATOM     16  C   UNL     1      -4.282  -0.862  24.615  0.00  0.00    +0.008 A 
ATOM     17  C   UNL     1      -3.842  -1.560  24.610  0.00  0.00    +0.036 A 
BRANCH   9   6
ATOM      3  C   UNL     1      -0.612  -0.009  24.907  0.00  0.00    +0.139 A 
ATOM      4  C   UNL     1      -0.726  -0.352  24.167  0.00  0.00    +0.037 A 
ATOM      5  C   UNL     1      -1.108  -1.081  24.103  0.00  0.00    +0.008 A 
ATOM      6  C   UNL     1      -1.375  -1.467  24.782  0.00  0.00    +0.056 A 
ATOM      7  C   UNL     1      -1.261  -1.123  25.524  0.00  0.00    +0.008 A 
ATOM      8  C   UNL     1      -0.879  -0.395  25.586  0.00  0.00    +0.037 A 
BRANCH   3   2
ATOM      1  C   UNL     1       0.134   1.054  24.311  0.00  0.00    +0.252 C 
ATOM      2  O   UNL     1      -0.231   0.720  24.971  0.00  0.00    -0.471 OA
ENDBRANCH   3   2
ENDBRANCH   9   6
ENDBRANCH  18  15
BRANCH  21  23
ATOM     23  C   UNL     1      -4.799   2.562  25.282  0.00  0.00    +0.138 C 
ATOM     24  C   UNL     1      -5.437   2.872  25.701  0.00  0.00    +0.027 C 
ATOM     25  C   UNL     1      -5.246   3.645  25.920  0.00  0.00    +0.019 C 
ATOM     26  C   UNL     1      -4.491   3.812  25.635  0.00  0.00    +0.073 C 
ATOM     27  N   UNL     1      -4.214   3.142  25.241  0.00  0.00    -0.260 NA
BRANCH  27  28
ATOM     28  C   UNL     1      -3.481   3.067  24.870  0.00  0.00    +0.138 C 
BRANCH  28  29
ATOM     29  C   UNL     1      -2.850   3.543  25.104  0.00  0.00    +0.139 A 
ATOM     30  C   UNL     1      -2.333   3.392  25.729  0.00  0.00    +0.037 A 
ATOM     31  C   UNL     1      -1.788   4.010  25.765  0.00  0.00    +0.038 A 
ATOM     32  C   UNL     1      -1.967   4.543  25.161  0.00  0.00    +0.156 A 
ATOM     35  O   UNL     1      -2.623   4.254  24.753  0.00  0.00    -0.458 OA
BRANCH  32  33
ATOM     33  C   UNL     1      -1.561   5.242  24.996  0.00  0.00    +0.246 C 
ATOM     34  O   UNL     1      -0.736   5.248  24.986  0.00  0.00    -0.212 OA
ENDBRANCH  32  33
ENDBRANCH  28  29
ENDBRANCH  27  28
ENDBRANCH  21  23
TORSDOF 7
ENDMDL
MODEL 6
REMARK VINA RESULT:     -11.0      1.497      3.136
REMARK  Name = 
REMARK  7 active torsions:
REMARK  status: ('A' for Active; 'I' for Inactive)
REMARK    1  A    between atoms: O_2  and  C_3
REMARK    2  A    between atoms: C_6  and  C_9
REMARK    3  A    between atoms: C_15  and  C_18
REMARK    4  A    between atoms: C_21  and  C_23
REMARK    5  A    between atoms: N_27  and  C_28
REMARK    6  A    between atoms: C_28  and  C_29
REMARK    7  A    between atoms: C_32  and  C_33
REMARK                            x       y       z     vdW  Elec       q    Type
REMARK                         _______ _______ _______ _____ _____    ______ ____
ROOT
ATOM     18  C   UNL     1      -1.355   2.374  25.260  0.00  0.00    +0.205 A 
ATOM     19  N   UNL     1      -0.654   2.414  25.693  0.00  0.00    -0.056 NA
ATOM     20  O   UNL     1      -0.134   1.850  25.389  0.00  0.00    -0.336 OA
ATOM     21  C   UNL     1      -0.514   1.461  24.768  0.00  0.00    +0.251 A 
ATOM     22  N   UNL     1      -1.269   1.785  24.688  0.00  0.00    -0.190 NA
ENDROOT
BRANCH  18  15
ATOM      9  C   UNL     1      -4.785   3.935  25.572  0.00  0.00    +0.270 C 
ATOM     10  O   UNL     1      -5.455   4.402  25.689  0.00  0.00    -0.268 OA
ATOM     11  N   UNL     1      -4.035   4.241  25.730  0.00  0.00    -0.157 NA
ATOM     12  C   UNL     1      -3.365   3.774  25.613  0.00  0.00    +0.155 A 
ATOM     13  N   UNL     1      -3.445   3.002  25.336  0.00  0.00    -0.227 NA
ATOM     14  C   UNL     1      -2.775   2.535  25.219  0.00  0.00    +0.103 A 
ATOM     15  C   UNL     1      -2.025   2.841  25.378  0.00  0.00    +0.058 A 
ATOM     16  C   UNL     1      -1.946   3.615  25.654  0.00  0.00    +0.008 A 
ATOM     17  C   UNL     1      -2.616   4.081  25.772  0.00  0.00    +0.036 A 
BRANCH   9   6
ATOM      3  C   UNL     1      -5.021   1.615  24.743  0.00  0.00    +0.139 A 
ATOM      4  C   UNL     1      -4.850   2.225  24.216  0.00  0.00    +0.037 A 
ATOM      5  C   UNL     1      -4.772   2.999  24.492  0.00  0.00    +0.008 A 
ATOM      6  C   UNL     1      -4.863   3.162  25.295  0.00  0.00    +0.056 A 
ATOM      7  C   UNL     1      -5.034   2.551  25.823  0.00  0.00    +0.008 A 
ATOM      8  C   UNL     1      -5.112   1.777  25.547  0.00  0.00    +0.037 A 
BRANCH   3   2
ATOM      1  C   UNL     1      -4.839   0.210  24.930  0.00  0.00    +0.252 C 
ATOM      2  O   UNL     1      -5.099   0.841  24.468  0.00  0.00    -0.471 OA
ENDBRANCH   3   2
ENDBRANCH   9   6
ENDBRANCH  18  15
BRANCH  21  23
ATOM     23  C   UNL     1      -0.195   0.856  24.308  0.00  0.00    +0.138 C 
ATOM     24  C   UNL     1       0.283   0.953  23.643  0.00  0.00    +0.027 C 
ATOM     25  C   UNL     1       0.475   0.203  23.356  0.00  0.00    +0.019 C 
ATOM     26  C   UNL     1       0.115  -0.356  23.843  0.00  0.00    +0.073 C 
ATOM     27  N   UNL     1      -0.299   0.046  24.432  0.00  0.00    -0.260 NA
BRANCH  27  28
ATOM     28  C   UNL     1      -0.739  -0.299  25.037  0.00  0.00    +0.138 C 
BRANCH  28  29
ATOM     29  C   UNL     1      -1.032  -1.065  24.949  0.00  0.00    +0.139 A 
ATOM     30  C   UNL     1      -0.660  -1.758  25.198  0.00  0.00    +0.037 A 
ATOM     31  C   UNL     1      -1.146  -2.394  25.000  0.00  0.00    +0.038 A 
ATOM     32  C   UNL     1      -1.819  -2.094  24.628  0.00  0.00    +0.156 A 
ATOM     35  O   UNL     1      -1.748  -1.273  24.597  0.00  0.00    -0.458 OA
BRANCH  32  33
ATOM     33  C   UNL     1      -2.451  -2.538  24.338  0.00  0.00    +0.246 C 
ATOM     34  O   UNL     1      -3.083  -2.729  24.833  0.00  0.00    -0.212 OA
ENDBRANCH  32  33
ENDBRANCH  28  29
ENDBRANCH  27  28
ENDBRANCH  21  23
TORSDOF 7
ENDMDL
