MODEL 1
REMARK VINA RESULT:     -12.1      0.000      0.000
REMARK  Name = 
REMARK  3 active torsions:
REMARK  status: ('A' for Active; 'I' for Inactive)
REMARK    1  A    between atoms: C_3  and  N_4
REMARK    2  A    between atoms: N_7  and  C_8
REMARK    3  A    between atoms: C_19  and  N_20
REMARK                            x       y       z     vdW  Elec       q    Type
REMARK                         _______ _______ _______ _____ _____    ______ ____
ROOT
ATOM      1  O   UNL     1      -2.306   2.269  25.811  0.00  0.00    -0.220 OA
ATOM      2  C   UNL     1      -2.964   2.290  25.313  0.00  0.00    +0.194 C 
ATOM      3  C   UNL     1      -3.676   2.062  24.957  0.00  0.00    +0.158 C 
ATOM     14  C   UNL     1      -3.772   2.772  24.366  0.00  0.00    +0.170 C 
ATOM     15  C   UNL     1      -3.205   3.304  24.393  0.00  0.00    +0.176 C 
ATOM     16  O   UNL     1      -2.956   3.928  24.118  0.00  0.00    -0.327 OA
ATOM     17  C   UNL     1      -3.503   3.243  24.219  0.00  0.00    +0.253 C 
ATOM     18  O   UNL     1      -4.212   3.017  23.863  0.00  0.00    -0.327 OA
ATOM     19  C   UNL     1      -3.390   2.507  24.842  0.00  0.00    +0.147 C 
ENDROOT
BRANCH  19  20
ATOM     20  N   UNL     1      -2.761   3.035  24.915  0.00  0.00    -0.268 NA
ATOM     21  C   UNL     1      -2.807   3.659  25.453  0.00  0.00    +0.072 C 
ATOM     22  C   UNL     1      -2.178   4.188  25.527  0.00  0.00    +0.017 C 
ATOM     23  C   UNL     1      -1.503   4.093  25.063  0.00  0.00    +0.003 C 
ATOM     24  C   UNL     1      -1.456   3.469  24.526  0.00  0.00    +0.017 C 
ATOM     25  C   UNL     1      -2.085   2.940  24.452  0.00  0.00    +0.072 C 
ENDBRANCH  19  20
BRANCH   3   4
ATOM      4  N   UNL     1      -4.156   1.403  25.089  0.00  0.00    -0.183 NA
ATOM      5  C   UNL     1      -3.888   0.650  24.882  0.00  0.00    +0.344 C 
ATOM      6  O   UNL     1      -3.140   0.556  24.545  0.00  0.00    -0.249 OA
ATOM      7  N   UNL     1      -4.367  -0.008  25.013  0.00  0.00    -0.161 NA
BRANCH   7   8
ATOM      8  C   UNL     1      -4.099  -0.761  24.807  0.00  0.00    +0.075 A 
ATOM      9  C   UNL     1      -3.657  -1.203  25.346  0.00  0.00    +0.017 A 
ATOM     10  C   UNL     1      -3.389  -1.956  25.139  0.00  0.00    +0.001 A 
ATOM     11  C   UNL     1      -3.563  -2.266  24.395  0.00  0.00    +0.000 A 
ATOM     12  C   UNL     1      -4.004  -1.823  23.857  0.00  0.00    +0.001 A 
ATOM     13  C   UNL     1      -4.272  -1.071  24.063  0.00  0.00    +0.017 A 
ENDBRANCH   7   8
ENDBRANCH   3   4
TORSDOF 3
ENDMDL
MODEL 2
REMARK VINA RESULT:     -11.7      1.059      4.369
REMARK  Name = 
REMARK  3 active torsions:
REMARK  status: ('A' for Active; 'I' for Inactive)
REMARK    1  A    between atoms: C_3  and  N_4
REMARK    2  A    between atoms: N_7  and  C_8
REMARK    3  A    between atoms: C_19  and  N_20
REMARK                            x       y       z     vdW  Elec       q    Type
REMARK                         _______ _______ _______ _____ _____    ______ ____
ROOT
ATOM      1  O   UNL     1      -2.351  -0.348  24.243  0.00  0.00    -0.220 OA
ATOM      2  C   UNL     1      -2.975   0.189  24.296  0.00  0.00    +0.194 C 
ATOM      3  C   UNL     1      -3.399   0.897  24.223  0.00  0.00    +0.158 C 
ATOM     14  C   UNL     1      -4.202   0.619  24.598  0.00  0.00    +0.170 C 
ATOM     15  C   UNL     1      -4.217  -0.121  24.838  0.00  0.00    +0.176 C 
ATOM     16  O   UNL     1      -4.617  -0.643  25.146  0.00  0.00    -0.327 OA
ATOM     17  C   UNL     1      -4.429   0.158  24.825  0.00  0.00    +0.253 C 
ATOM     18  O   UNL     1      -4.853   0.862  24.754  0.00  0.00    -0.327 OA
ATOM     19  C   UNL     1      -3.583   0.434  24.436  0.00  0.00    +0.147 C 
ENDROOT
BRANCH  19  20
ATOM     20  N   UNL     1      -3.539  -0.356  24.670  0.00  0.00    -0.268 NA
ATOM     21  C   UNL     1      -3.734  -0.956  24.138  0.00  0.00    +0.072 C 
ATOM     22  C   UNL     1      -3.689  -1.745  24.371  0.00  0.00    +0.017 C 
ATOM     23  C   UNL     1      -3.450  -1.935  25.138  0.00  0.00    +0.003 C 
ATOM     24  C   UNL     1      -3.255  -1.336  25.670  0.00  0.00    +0.017 C 
ATOM     25  C   UNL     1      -3.300  -0.547  25.436  0.00  0.00    +0.072 C 
ENDBRANCH  19  20
BRANCH   3   4
ATOM      4  N   UNL     1      -3.175   1.628  23.912  0.00  0.00    -0.183 NA
ATOM      5  C   UNL     1      -2.724   2.149  24.366  0.00  0.00    +0.344 C 
ATOM      6  O   UNL     1      -2.496   1.938  25.132  0.00  0.00    -0.249 OA
ATOM      7  N   UNL     1      -2.500   2.879  24.056  0.00  0.00    -0.161 NA
BRANCH   7   8
ATOM      8  C   UNL     1      -2.049   3.400  24.510  0.00  0.00    +0.075 A 
ATOM      9  C   UNL     1      -1.225   3.362  24.484  0.00  0.00    +0.017 A 
ATOM     10  C   UNL     1      -0.774   3.883  24.938  0.00  0.00    +0.001 A 
ATOM     11  C   UNL     1      -1.147   4.442  25.418  0.00  0.00    +0.000 A 
ATOM     12  C   UNL     1      -1.970   4.478  25.443  0.00  0.00    +0.001 A 
ATOM     13  C   UNL     1      -2.421   3.958  24.990  0.00  0.00    +0.017 A 
ENDBRANCH   7   8
ENDBRANCH   3   4
TORSDOF 3
ENDMDL
MODEL 3
REMARK VINA RESULT:     -11.6      1.468      2.054
REMARK  Name = 
REMARK  3 active torsions:
REMARK  status: ('A' for Active; 'I' for Inactive)
REMARK    1  A    between atoms: C_3  and  N_4
REMARK    2  A    between atoms: N_7  and  C_8
REMARK    3  A    between atoms: C_19  and  N_20
REMARK                            x       y       z     vdW  Elec       q    Type
REMARK                         _______ _______ _______ _____ _____    ______ ____
ROOT
ATOM      1  O   UNL     1      -2.072   2.992  24.126  0.00  0.00    -0.220 OA
ATOM      2  C   UNL     1      -1.628   2.485  24.603  0.00  0.00    +0.194 C 
ATOM      3  C   UNL     1      -1.281   1.786  24.882  0.00  0.00    +0.158 C 
ATOM     14  C   UNL     1      -0.837   2.135  25.620  0.00  0.00    +0.170 C 
ATOM     15  C   UNL     1      -0.925   2.900  25.728  0.00  0.00    +0.176 C 
ATOM     16  O   UNL     1      -0.755   3.469  26.144  0.00  0.00    -0.327 OA
ATOM     17  C   UNL     1      -0.762   2.628  25.877  0.00  0.00    +0.253 C 
ATOM     18  O   UNL     1      -0.416   1.934  26.157  0.00  0.00    -0.327 OA
ATOM     19  C   UNL     1      -1.232   2.278  25.103  0.00  0.00    +0.147 C 
ENDROOT
BRANCH  19  20
ATOM     20  N   UNL     1      -1.362   3.090  25.166  0.00  0.00    -0.268 NA
ATOM     21  C   UNL     1      -2.006   3.373  25.598  0.00  0.00    +0.072 C 
ATOM     22  C   UNL     1      -2.136   4.185  25.660  0.00  0.00    +0.017 C 
ATOM     23  C   UNL     1      -1.623   4.715  25.291  0.00  0.00    +0.003 C 
ATOM     24  C   UNL     1      -0.979   4.433  24.859  0.00  0.00    +0.017 C 
ATOM     25  C   UNL     1      -0.849   3.620  24.797  0.00  0.00    +0.072 C 
ENDBRANCH  19  20
BRANCH   3   4
ATOM      4  N   UNL     1      -1.319   1.014  24.592  0.00  0.00    -0.183 NA
ATOM      5  C   UNL     1      -1.995   0.558  24.720  0.00  0.00    +0.344 C 
ATOM      6  O   UNL     1      -2.633   0.875  25.138  0.00  0.00    -0.249 OA
ATOM      7  N   UNL     1      -2.033  -0.213  24.431  0.00  0.00    -0.161 NA
BRANCH   7   8
ATOM      8  C   UNL     1      -2.709  -0.669  24.559  0.00  0.00    +0.075 A 
ATOM      9  C   UNL     1      -2.756  -1.161  25.220  0.00  0.00    +0.017 A 
ATOM     10  C   UNL     1      -3.432  -1.616  25.348  0.00  0.00    +0.001 A 
ATOM     11  C   UNL     1      -4.061  -1.580  24.815  0.00  0.00    +0.000 A 
ATOM     12  C   UNL     1      -4.014  -1.088  24.155  0.00  0.00    +0.001 A 
ATOM     13  C   UNL     1      -3.338  -0.633  24.027  0.00  0.00    +0.017 A 
ENDBRANCH   7   8
ENDBRANCH   3   4
TORSDOF 3
ENDMDL
