MODEL 1
REMARK VINA RESULT:     -10.2      0.000      0.000
REMARK  Name = 
REMARK  5 active torsions:
REMARK  status: ('A' for Active; 'I' for Inactive)
REMARK    1  A    between atoms: C_4  and  C_26
REMARK    2  A    between atoms: C_6  and  C_7
REMARK    3  A    between atoms: C_14  and  C_15
REMARK    4  A    between atoms: C_15  and  N_16
REMARK    5  A    between atoms: N_19  and  C_20
REMARK                            x       y       z     vdW  Elec       q    Type
REMARK                         _______ _______ _______ _____ _____    ______ ____
ROOT
ATOM      7  C   UNL     1      -1.847   1.728  23.908  0.00  0.00    +0.056 C 
ATOM      8  C   UNL     1      -1.331   2.298  23.789  0.00  0.00    +0.078 C 
ATOM      9  N   UNL     1      -1.158   1.499  23.903  0.00  0.00    -0.272 NA
ATOM     10  C   UNL     1      -2.070   0.999  24.034  0.00  0.00    +0.072 C 
ATOM     11  C   UNL     1      -2.406   0.449  24.139  0.00  0.00    +0.018 C 
ATOM     12  C   UNL     1      -1.669   0.946  24.019  0.00  0.00    +0.010 C 
ATOM     13  C   UNL     1      -0.905   0.515  24.042  0.00  0.00    +0.018 C 
ATOM     14  C   UNL     1      -0.367   1.044  23.929  0.00  0.00    +0.079 C 
ENDROOT
BRANCH   7   6
ATOM      1  C   UNL     1      -2.828   2.244  22.495  0.00  0.00    +0.153 C 
ATOM      2  N   UNL     1      -3.096   2.175  23.272  0.00  0.00    -0.253 N 
ATOM      3  N   UNL     1      -3.862   2.331  23.536  0.00  0.00    -0.170 NA
ATOM      4  C   UNL     1      -3.885   2.190  24.349  0.00  0.00    +0.102 A 
ATOM      5  C   UNL     1      -3.134   1.947  24.586  0.00  0.00    +0.035 A 
ATOM      6  C   UNL     1      -2.646   1.938  23.921  0.00  0.00    +0.058 A 
BRANCH   4  26
ATOM     26  C   UNL     1      -4.545   2.276  24.837  0.00  0.00    +0.019 A 
ATOM     27  C   UNL     1      -5.129   1.694  24.849  0.00  0.00    +0.002 A 
ATOM     28  C   UNL     1      -5.787   1.782  25.337  0.00  0.00    +0.000 A 
ATOM     29  C   UNL     1      -5.862   2.451  25.814  0.00  0.00    +0.000 A 
ATOM     30  C   UNL     1      -5.278   3.033  25.802  0.00  0.00    +0.000 A 
ATOM     31  C   UNL     1      -4.619   2.946  25.313  0.00  0.00    +0.002 A 
ENDBRANCH   4  26
ENDBRANCH   7   6
BRANCH  14  15
ATOM     15  C   UNL     1       0.449   1.145  23.866  0.00  0.00    +0.133 C 
BRANCH  15  16
ATOM     16  N   UNL     1       0.892   0.638  23.389  0.00  0.00    -0.186 NA
ATOM     17  C   UNL     1       1.714   0.705  23.371  0.00  0.00    +0.339 C 
ATOM     18  O   UNL     1       2.093   1.278  23.828  0.00  0.00    -0.249 OA
ATOM     19  N   UNL     1       2.158   0.198  22.894  0.00  0.00    -0.189 NA
BRANCH  19  20
ATOM     20  C   UNL     1       2.980   0.264  22.875  0.00  0.00    +0.097 C 
ATOM     21  C   UNL     1       3.448  -0.295  23.262  0.00  0.00    +0.022 C 
ATOM     22  C   UNL     1       4.270  -0.229  23.242  0.00  0.00    +0.002 C 
ATOM     23  C   UNL     1       4.624   0.396  22.836  0.00  0.00    +0.000 C 
ATOM     24  C   UNL     1       4.156   0.954  22.449  0.00  0.00    +0.002 C 
ATOM     25  C   UNL     1       3.335   0.888  22.469  0.00  0.00    +0.022 C 
ENDBRANCH  19  20
ENDBRANCH  15  16
ENDBRANCH  14  15
TORSDOF 5
ENDMDL
MODEL 2
REMARK VINA RESULT:      -9.1      3.968      5.381
REMARK  Name = 
REMARK  5 active torsions:
REMARK  status: ('A' for Active; 'I' for Inactive)
REMARK    1  A    between atoms: C_4  and  C_26
REMARK    2  A    between atoms: C_6  and  C_7
REMARK    3  A    between atoms: C_14  and  C_15
REMARK    4  A    between atoms: C_15  and  N_16
REMARK    5  A    between atoms: N_19  and  C_20
REMARK                            x       y       z     vdW  Elec       q    Type
REMARK                         _______ _______ _______ _____ _____    ______ ____
ROOT
ATOM      7  C   UNL     1      -3.617   2.640  25.202  0.00  0.00    +0.056 C 
ATOM      8  C   UNL     1      -3.453   2.000  25.613  0.00  0.00    +0.078 C 
ATOM      9  N   UNL     1      -4.016   2.063  25.013  0.00  0.00    -0.272 NA
ATOM     10  C   UNL     1      -3.989   3.052  24.666  0.00  0.00    +0.072 C 
ATOM     11  C   UNL     1      -4.208   3.520  24.265  0.00  0.00    +0.018 C 
ATOM     12  C   UNL     1      -4.172   2.695  24.615  0.00  0.00    +0.010 C 
ATOM     13  C   UNL     1      -4.725   2.106  24.273  0.00  0.00    +0.018 C 
ATOM     14  C   UNL     1      -4.595   1.457  24.653  0.00  0.00    +0.079 C 
ENDROOT
BRANCH   7   6
ATOM      1  C   UNL     1      -3.953   3.776  26.552  0.00  0.00    +0.153 C 
ATOM      2  N   UNL     1      -3.343   3.845  26.001  0.00  0.00    -0.253 N 
ATOM      3  N   UNL     1      -2.781   4.448  25.972  0.00  0.00    -0.170 NA
ATOM      4  C   UNL     1      -2.279   4.300  25.335  0.00  0.00    +0.102 A 
ATOM      5  C   UNL     1      -2.531   3.605  24.969  0.00  0.00    +0.035 A 
ATOM      6  C   UNL     1      -3.189   3.324  25.380  0.00  0.00    +0.058 A 
BRANCH   4  26
ATOM     26  C   UNL     1      -1.638   4.765  25.104  0.00  0.00    +0.019 A 
ATOM     27  C   UNL     1      -1.724   5.582  25.038  0.00  0.00    +0.002 A 
ATOM     28  C   UNL     1      -1.082   6.046  24.807  0.00  0.00    +0.000 A 
ATOM     29  C   UNL     1      -0.355   5.694  24.643  0.00  0.00    +0.000 A 
ATOM     30  C   UNL     1      -0.269   4.876  24.708  0.00  0.00    +0.000 A 
ATOM     31  C   UNL     1      -0.910   4.411  24.939  0.00  0.00    +0.002 A 
ENDBRANCH   4  26
ENDBRANCH   7   6
BRANCH  14  15
ATOM     15  C   UNL     1      -4.835   0.670  24.705  0.00  0.00    +0.133 C 
BRANCH  15  16
ATOM     16  N   UNL     1      -4.570   0.119  24.152  0.00  0.00    -0.186 NA
ATOM     17  C   UNL     1      -4.303  -0.620  24.402  0.00  0.00    +0.339 C 
ATOM     18  O   UNL     1      -4.301  -0.809  25.205  0.00  0.00    -0.249 OA
ATOM     19  N   UNL     1      -4.038  -1.172  23.848  0.00  0.00    -0.189 NA
BRANCH  19  20
ATOM     20  C   UNL     1      -3.770  -1.911  24.098  0.00  0.00    +0.097 C 
ATOM     21  C   UNL     1      -4.241  -2.579  23.987  0.00  0.00    +0.022 C 
ATOM     22  C   UNL     1      -3.974  -3.319  24.236  0.00  0.00    +0.002 C 
ATOM     23  C   UNL     1      -3.235  -3.390  24.596  0.00  0.00    +0.000 C 
ATOM     24  C   UNL     1      -2.764  -2.722  24.707  0.00  0.00    +0.002 C 
ATOM     25  C   UNL     1      -3.031  -1.983  24.458  0.00  0.00    +0.022 C 
ENDBRANCH  19  20
ENDBRANCH  15  16
ENDBRANCH  14  15
TORSDOF 5
ENDMDL
MODEL 3
REMARK VINA RESULT:      -8.7      1.133      1.679
REMARK  Name = 
REMARK  5 active torsions:
REMARK  status: ('A' for Active; 'I' for Inactive)
REMARK    1  A    between atoms: C_4  and  C_26
REMARK    2  A    between atoms: C_6  and  C_7
REMARK    3  A    between atoms: C_14  and  C_15
REMARK    4  A    between atoms: C_15  and  N_16
REMARK    5  A    between atoms: N_19  and  C_20
REMARK                            x       y       z     vdW  Elec       q    Type
REMARK                         _______ _______ _______ _____ _____    ______ ____
ROOT
ATOM      7  C   UNL     1      -0.608   1.042  24.128  0.00  0.00    +0.056 C 
ATOM      8  C   UNL     1      -0.132   1.634  23.959  0.00  0.00    +0.078 C 
ATOM      9  N   UNL     1      -0.007   0.840  23.771  0.00  0.00    -0.272 NA
ATOM     10  C   UNL     1      -0.830   0.302  24.136  0.00  0.00    +0.072 C 
ATOM     11  C   UNL     1      -1.146  -0.263  24.223  0.00  0.00    +0.018 C 
ATOM     12  C   UNL     1      -0.478   0.265  23.940  0.00  0.00    +0.010 C 
ATOM     13  C   UNL     1       0.180  -0.137  23.521  0.00  0.00    +0.018 C 
ATOM     14  C   UNL     1       0.674   0.416  23.336  0.00  0.00    +0.079 C 
ENDROOT
BRANCH   7   6
ATOM      1  C   UNL     1      -0.723   1.630  25.820  0.00  0.00    +0.153 C 
ATOM      2  N   UNL     1      -1.357   1.491  25.311  0.00  0.00    -0.253 N 
ATOM      3  N   UNL     1      -2.156   1.597  25.490  0.00  0.00    -0.170 NA
ATOM      4  C   UNL     1      -2.596   1.392  24.823  0.00  0.00    +0.102 A 
ATOM      5  C   UNL     1      -2.070   1.159  24.232  0.00  0.00    +0.035 A 
ATOM      6  C   UNL     1      -1.305   1.220  24.534  0.00  0.00    +0.058 A 
BRANCH   4  26
ATOM     26  C   UNL     1      -3.418   1.416  24.760  0.00  0.00    +0.019 A 
ATOM     27  C   UNL     1      -3.870   0.775  25.014  0.00  0.00    +0.002 A 
ATOM     28  C   UNL     1      -4.692   0.800  24.950  0.00  0.00    +0.000 A 
ATOM     29  C   UNL     1      -5.062   1.465  24.632  0.00  0.00    +0.000 A 
ATOM     30  C   UNL     1      -4.610   2.106  24.378  0.00  0.00    +0.000 A 
ATOM     31  C   UNL     1      -3.788   2.082  24.442  0.00  0.00    +0.002 A 
ENDBRANCH   4  26
ENDBRANCH   7   6
BRANCH  14  15
ATOM     15  C   UNL     1       1.397   0.549  22.963  0.00  0.00    +0.133 C 
BRANCH  15  16
ATOM     16  N   UNL     1       1.967  -0.046  22.942  0.00  0.00    -0.186 NA
ATOM     17  C   UNL     1       2.757   0.134  23.097  0.00  0.00    +0.339 C 
ATOM     18  O   UNL     1       2.977   0.909  23.273  0.00  0.00    -0.249 OA
ATOM     19  N   UNL     1       3.327  -0.462  23.075  0.00  0.00    -0.189 NA
BRANCH  19  20
ATOM     20  C   UNL     1       4.117  -0.283  23.230  0.00  0.00    +0.097 C 
ATOM     21  C   UNL     1       4.539  -0.724  23.785  0.00  0.00    +0.022 C 
ATOM     22  C   UNL     1       5.330  -0.545  23.940  0.00  0.00    +0.002 C 
ATOM     23  C   UNL     1       5.697   0.076  23.539  0.00  0.00    +0.000 C 
ATOM     24  C   UNL     1       5.276   0.517  22.984  0.00  0.00    +0.002 C 
ATOM     25  C   UNL     1       4.486   0.337  22.830  0.00  0.00    +0.022 C 
ENDBRANCH  19  20
ENDBRANCH  15  16
ENDBRANCH  14  15
TORSDOF 5
ENDMDL
MODEL 4
REMARK VINA RESULT:      -8.7      3.223      5.010
REMARK  Name = 
REMARK  5 active torsions:
REMARK  status: ('A' for Active; 'I' for Inactive)
REMARK    1  A    between atoms: C_4  and  C_26
REMARK    2  A    between atoms: C_6  and  C_7
REMARK    3  A    between atoms: C_14  and  C_15
REMARK    4  A    between atoms: C_15  and  N_16
REMARK    5  A    between atoms: N_19  and  C_20
REMARK                            x       y       z     vdW  Elec       q    Type
REMARK                         _______ _______ _______ _____ _____    ______ ____
ROOT
ATOM      7  C   UNL     1      -0.646   1.495  25.298  0.00  0.00    +0.056 C 
ATOM      8  C   UNL     1      -1.053   1.041  25.781  0.00  0.00    +0.078 C 
ATOM      9  N   UNL     1      -0.657   0.796  25.099  0.00  0.00    -0.272 NA
ATOM     10  C   UNL     1      -0.211   1.646  24.678  0.00  0.00    +0.072 C 
ATOM     11  C   UNL     1       0.150   1.925  24.210  0.00  0.00    +0.018 C 
ATOM     12  C   UNL     1      -0.260   1.248  24.630  0.00  0.00    +0.010 C 
ATOM     13  C   UNL     1      -0.178   0.457  24.258  0.00  0.00    +0.018 C 
ATOM     14  C   UNL     1      -0.567  -0.023  24.707  0.00  0.00    +0.079 C 
ENDROOT
BRANCH   7   6
ATOM      1  C   UNL     1       0.343   2.230  26.605  0.00  0.00    +0.153 C 
ATOM      2  N   UNL     1      -0.149   2.637  26.081  0.00  0.00    -0.253 N 
ATOM      3  N   UNL     1      -0.272   3.452  26.066  0.00  0.00    -0.170 NA
ATOM      4  C   UNL     1      -0.803   3.619  25.457  0.00  0.00    +0.102 A 
ATOM      5  C   UNL     1      -1.007   2.907  25.095  0.00  0.00    +0.035 A 
ATOM      6  C   UNL     1      -0.603   2.300  25.481  0.00  0.00    +0.058 A 
BRANCH   4  26
ATOM     26  C   UNL     1      -1.079   4.367  25.247  0.00  0.00    +0.019 A 
ATOM     27  C   UNL     1      -0.586   4.892  24.846  0.00  0.00    +0.002 A 
ATOM     28  C   UNL     1      -0.863   5.640  24.636  0.00  0.00    +0.000 A 
ATOM     29  C   UNL     1      -1.634   5.863  24.827  0.00  0.00    +0.000 A 
ATOM     30  C   UNL     1      -2.128   5.338  25.228  0.00  0.00    +0.000 A 
ATOM     31  C   UNL     1      -1.851   4.590  25.438  0.00  0.00    +0.002 A 
ENDBRANCH   4  26
ENDBRANCH   7   6
BRANCH  14  15
ATOM     15  C   UNL     1      -0.780  -0.815  24.789  0.00  0.00    +0.133 C 
BRANCH  15  16
ATOM     16  N   UNL     1      -1.505  -1.015  25.129  0.00  0.00    -0.186 NA
ATOM     17  C   UNL     1      -2.033  -1.497  24.718  0.00  0.00    +0.339 C 
ATOM     18  O   UNL     1      -1.837  -1.780  23.968  0.00  0.00    -0.249 OA
ATOM     19  N   UNL     1      -2.758  -1.697  25.058  0.00  0.00    -0.189 NA
BRANCH  19  20
ATOM     20  C   UNL     1      -3.287  -2.180  24.648  0.00  0.00    +0.097 C 
ATOM     21  C   UNL     1      -3.248  -3.000  24.734  0.00  0.00    +0.022 C 
ATOM     22  C   UNL     1      -3.777  -3.483  24.324  0.00  0.00    +0.002 C 
ATOM     23  C   UNL     1      -4.344  -3.145  23.829  0.00  0.00    +0.000 C 
ATOM     24  C   UNL     1      -4.383  -2.326  23.743  0.00  0.00    +0.002 C 
ATOM     25  C   UNL     1      -3.854  -1.844  24.153  0.00  0.00    +0.022 C 
ENDBRANCH  19  20
ENDBRANCH  15  16
ENDBRANCH  14  15
TORSDOF 5
ENDMDL
