MODEL 1
REMARK VINA RESULT:     -11.3      0.000      0.000
REMARK  Name = 
REMARK  4 active torsions:
REMARK  status: ('A' for Active; 'I' for Inactive)
REMARK    1  A    between atoms: C_4  and  N_18
REMARK    2  A    between atoms: C_6  and  C_7
REMARK    3  A    between atoms: C_9  and  C_12
REMARK    4  A    between atoms: C_19  and  C_21
REMARK                            x       y       z     vdW  Elec       q    Type
REMARK                         _______ _______ _______ _____ _____    ______ ____
ROOT
ATOM      1  C   UNL     1      -5.392   2.068  24.663  0.00  0.00    +0.090 C 
ATOM      2  N   UNL     1      -4.574   2.179  24.662  0.00  0.00    -0.264 NA
ATOM      3  C   UNL     1      -4.182   2.891  24.529  0.00  0.00    +0.094 C 
ATOM      4  C   UNL     1      -3.371   2.749  24.579  0.00  0.00    +0.113 C 
ATOM      5  C   UNL     1      -3.262   1.947  24.741  0.00  0.00    +0.049 C 
ATOM      6  C   UNL     1      -4.006   1.595  24.793  0.00  0.00    +0.139 C 
ENDROOT
BRANCH   6   7
ATOM      7  C   UNL     1      -4.155   0.799  24.948  0.00  0.00    +0.251 A 
ATOM      8  N   UNL     1      -3.824   0.156  24.550  0.00  0.00    -0.190 NA
ATOM      9  C   UNL     1      -4.127  -0.534  24.884  0.00  0.00    +0.203 A 
ATOM     10  N   UNL     1      -4.644  -0.319  25.490  0.00  0.00    -0.056 NA
ATOM     11  O   UNL     1      -4.662   0.505  25.530  0.00  0.00    -0.336 OA
BRANCH   9  12
ATOM     12  C   UNL     1      -3.943  -1.305  24.654  0.00  0.00    +0.039 A 
ATOM     13  C   UNL     1      -4.307  -1.635  23.991  0.00  0.00    +0.003 A 
ATOM     14  C   UNL     1      -4.124  -2.406  23.761  0.00  0.00    +0.000 A 
ATOM     15  C   UNL     1      -3.577  -2.847  24.193  0.00  0.00    +0.000 A 
ATOM     16  C   UNL     1      -3.213  -2.516  24.856  0.00  0.00    +0.000 A 
ATOM     17  C   UNL     1      -3.396  -1.746  25.087  0.00  0.00    +0.003 A 
ENDBRANCH   9  12
ENDBRANCH   6   7
BRANCH   4  18
ATOM     18  N   UNL     1      -2.773   3.309  24.482  0.00  0.00    -0.201 NA
ATOM     19  C   UNL     1      -2.400   3.633  25.143  0.00  0.00    +0.284 C 
ATOM     20  O   UNL     1      -2.625   3.396  25.900  0.00  0.00    -0.267 OA
BRANCH  19  21
ATOM     21  C   UNL     1      -1.802   4.193  25.047  0.00  0.00    +0.155 A 
ATOM     22  C   UNL     1      -1.954   4.989  25.199  0.00  0.00    +0.123 A 
ATOM     23  N   UNL     1      -1.356   5.549  25.103  0.00  0.00    -0.239 NA
ATOM     24  C   UNL     1      -0.606   5.314  24.854  0.00  0.00    +0.120 A 
ATOM     25  C   UNL     1      -0.454   4.517  24.701  0.00  0.00    +0.120 A 
ATOM     26  N   UNL     1      -1.051   3.957  24.798  0.00  0.00    -0.236 NA
ENDBRANCH  19  21
ENDBRANCH   4  18
TORSDOF 4
ENDMDL
MODEL 2
REMARK VINA RESULT:     -11.3      1.002      5.431
REMARK  Name = 
REMARK  4 active torsions:
REMARK  status: ('A' for Active; 'I' for Inactive)
REMARK    1  A    between atoms: C_4  and  N_18
REMARK    2  A    between atoms: C_6  and  C_7
REMARK    3  A    between atoms: C_9  and  C_12
REMARK    4  A    between atoms: C_19  and  C_21
REMARK                            x       y       z     vdW  Elec       q    Type
REMARK                         _______ _______ _______ _____ _____    ______ ____
ROOT
ATOM      1  C   UNL     1      -5.315   2.623  24.704  0.00  0.00    +0.090 C 
ATOM      2  N   UNL     1      -4.819   1.987  24.875  0.00  0.00    -0.264 NA
ATOM      3  C   UNL     1      -5.002   1.189  24.775  0.00  0.00    +0.094 C 
ATOM      4  C   UNL     1      -4.348   0.746  25.013  0.00  0.00    +0.113 C 
ATOM      5  C   UNL     1      -3.761   1.270  25.260  0.00  0.00    +0.049 C 
ATOM      6  C   UNL     1      -4.051   2.037  25.174  0.00  0.00    +0.139 C 
ENDROOT
BRANCH   6   7
ATOM      7  C   UNL     1      -3.647   2.732  25.356  0.00  0.00    +0.251 A 
ATOM      8  N   UNL     1      -2.919   2.966  25.044  0.00  0.00    -0.190 NA
ATOM      9  C   UNL     1      -2.721   3.694  25.378  0.00  0.00    +0.203 A 
ATOM     10  N   UNL     1      -3.326   3.910  25.896  0.00  0.00    -0.056 NA
ATOM     11  O   UNL     1      -3.898   3.316  25.883  0.00  0.00    -0.336 OA
BRANCH   9  12
ATOM     12  C   UNL     1      -2.038   4.129  25.220  0.00  0.00    +0.039 A 
ATOM     13  C   UNL     1      -2.070   4.953  25.198  0.00  0.00    +0.003 A 
ATOM     14  C   UNL     1      -1.387   5.389  25.041  0.00  0.00    +0.000 A 
ATOM     15  C   UNL     1      -0.672   5.000  24.906  0.00  0.00    +0.000 A 
ATOM     16  C   UNL     1      -0.640   4.176  24.928  0.00  0.00    +0.000 A 
ATOM     17  C   UNL     1      -1.323   3.740  25.086  0.00  0.00    +0.003 A 
ENDBRANCH   9  12
ENDBRANCH   6   7
BRANCH   4  18
ATOM     18  N   UNL     1      -4.291  -0.077  25.005  0.00  0.00    -0.201 NA
ATOM     19  C   UNL     1      -3.909  -0.459  24.381  0.00  0.00    +0.284 C 
ATOM     20  O   UNL     1      -3.584  -0.017  23.765  0.00  0.00    -0.267 OA
BRANCH  19  21
ATOM     21  C   UNL     1      -3.852  -1.282  24.373  0.00  0.00    +0.155 A 
ATOM     22  C   UNL     1      -4.292  -1.721  23.831  0.00  0.00    +0.123 A 
ATOM     23  N   UNL     1      -4.235  -2.544  23.824  0.00  0.00    -0.239 NA
ATOM     24  C   UNL     1      -3.737  -2.928  24.358  0.00  0.00    +0.120 A 
ATOM     25  C   UNL     1      -3.297  -2.488  24.900  0.00  0.00    +0.120 A 
ATOM     26  N   UNL     1      -3.354  -1.666  24.908  0.00  0.00    -0.236 NA
ENDBRANCH  19  21
ENDBRANCH   4  18
TORSDOF 4
ENDMDL
MODEL 3
REMARK VINA RESULT:     -10.7      1.893      2.410
REMARK  Name = 
REMARK  4 active torsions:
REMARK  status: ('A' for Active; 'I' for Inactive)
REMARK    1  A    between atoms: C_4  and  N_18
REMARK    2  A    between atoms: C_6  and  C_7
REMARK    3  A    between atoms: C_9  and  C_12
REMARK    4  A    between atoms: C_19  and  C_21
REMARK                            x       y       z     vdW  Elec       q    Type
REMARK                         _______ _______ _______ _____ _____    ______ ____
ROOT
ATOM      1  C   UNL     1      -0.030  -0.115  24.224  0.00  0.00    +0.090 C 
ATOM      2  N   UNL     1      -0.471   0.485  24.578  0.00  0.00    -0.264 NA
ATOM      3  C   UNL     1      -0.264   1.283  24.614  0.00  0.00    +0.094 C 
ATOM      4  C   UNL     1      -0.862   1.683  25.017  0.00  0.00    +0.113 C 
ATOM      5  C   UNL     1      -1.439   1.133  25.229  0.00  0.00    +0.049 C 
ATOM      6  C   UNL     1      -1.198   0.393  24.958  0.00  0.00    +0.139 C 
ENDROOT
BRANCH   6   7
ATOM      7  C   UNL     1      -1.610  -0.315  25.051  0.00  0.00    +0.251 A 
ATOM      8  N   UNL     1      -2.231  -0.581  24.576  0.00  0.00    -0.190 NA
ATOM      9  C   UNL     1      -2.479  -1.312  24.866  0.00  0.00    +0.203 A 
ATOM     10  N   UNL     1      -2.012  -1.498  25.521  0.00  0.00    -0.056 NA
ATOM     11  O   UNL     1      -1.475  -0.882  25.635  0.00  0.00    -0.336 OA
BRANCH   9  12
ATOM     12  C   UNL     1      -3.087  -1.776  24.556  0.00  0.00    +0.039 A 
ATOM     13  C   UNL     1      -3.044  -2.598  24.604  0.00  0.00    +0.003 A 
ATOM     14  C   UNL     1      -3.652  -3.062  24.294  0.00  0.00    +0.000 A 
ATOM     15  C   UNL     1      -4.303  -2.703  23.936  0.00  0.00    +0.000 A 
ATOM     16  C   UNL     1      -4.346  -1.880  23.889  0.00  0.00    +0.000 A 
ATOM     17  C   UNL     1      -3.738  -1.417  24.198  0.00  0.00    +0.003 A 
ENDBRANCH   9  12
ENDBRANCH   6   7
BRANCH   4  18
ATOM     18  N   UNL     1      -0.880   2.492  25.179  0.00  0.00    -0.201 NA
ATOM     19  C   UNL     1      -1.284   3.005  24.674  0.00  0.00    +0.284 C 
ATOM     20  O   UNL     1      -1.671   2.709  24.008  0.00  0.00    -0.267 OA
BRANCH  19  21
ATOM     21  C   UNL     1      -1.303   3.814  24.835  0.00  0.00    +0.155 A 
ATOM     22  C   UNL     1      -1.953   4.144  25.220  0.00  0.00    +0.123 A 
ATOM     23  N   UNL     1      -1.971   4.952  25.381  0.00  0.00    -0.239 NA
ATOM     24  C   UNL     1      -1.339   5.432  25.158  0.00  0.00    +0.120 A 
ATOM     25  C   UNL     1      -0.687   5.102  24.773  0.00  0.00    +0.120 A 
ATOM     26  N   UNL     1      -0.669   4.293  24.612  0.00  0.00    -0.236 NA
ENDBRANCH  19  21
ENDBRANCH   4  18
TORSDOF 4
ENDMDL
MODEL 4
REMARK VINA RESULT:     -10.4      2.010      5.935
REMARK  Name = 
REMARK  4 active torsions:
REMARK  status: ('A' for Active; 'I' for Inactive)
REMARK    1  A    between atoms: C_4  and  N_18
REMARK    2  A    between atoms: C_6  and  C_7
REMARK    3  A    between atoms: C_9  and  C_12
REMARK    4  A    between atoms: C_19  and  C_21
REMARK                            x       y       z     vdW  Elec       q    Type
REMARK                         _______ _______ _______ _____ _____    ______ ____
ROOT
ATOM      1  C   UNL     1       0.270   0.968  24.163  0.00  0.00    +0.090 C 
ATOM      2  N   UNL     1      -0.415   0.632  24.477  0.00  0.00    -0.264 NA
ATOM      3  C   UNL     1      -0.700  -0.125  24.320  0.00  0.00    +0.094 C 
ATOM      4  C   UNL     1      -1.396  -0.230  24.749  0.00  0.00    +0.113 C 
ATOM      5  C   UNL     1      -1.542   0.464  25.172  0.00  0.00    +0.049 C 
ATOM      6  C   UNL     1      -0.935   0.997  25.004  0.00  0.00    +0.139 C 
ENDROOT
BRANCH   6   7
ATOM      7  C   UNL     1      -0.862   1.759  25.309  0.00  0.00    +0.251 A 
ATOM      8  N   UNL     1      -1.201   2.443  24.993  0.00  0.00    -0.190 NA
ATOM      9  C   UNL     1      -0.985   3.078  25.472  0.00  0.00    +0.203 A 
ATOM     10  N   UNL     1      -0.513   2.789  26.084  0.00  0.00    -0.056 NA
ATOM     11  O   UNL     1      -0.437   1.974  25.983  0.00  0.00    -0.336 OA
BRANCH   9  12
ATOM     12  C   UNL     1      -1.203   3.866  25.359  0.00  0.00    +0.039 A 
ATOM     13  C   UNL     1      -0.682   4.389  24.991  0.00  0.00    +0.003 A 
ATOM     14  C   UNL     1      -0.901   5.177  24.878  0.00  0.00    +0.000 A 
ATOM     15  C   UNL     1      -1.639   5.441  25.133  0.00  0.00    +0.000 A 
ATOM     16  C   UNL     1      -2.160   4.918  25.501  0.00  0.00    +0.000 A 
ATOM     17  C   UNL     1      -1.942   4.130  25.614  0.00  0.00    +0.003 A 
ENDBRANCH   9  12
ENDBRANCH   6   7
BRANCH   4  18
ATOM     18  N   UNL     1      -1.865  -0.909  24.755  0.00  0.00    -0.201 NA
ATOM     19  C   UNL     1      -2.587  -0.916  24.354  0.00  0.00    +0.284 C 
ATOM     20  O   UNL     1      -2.838  -0.243  23.947  0.00  0.00    -0.267 OA
BRANCH  19  21
ATOM     21  C   UNL     1      -3.056  -1.594  24.359  0.00  0.00    +0.155 A 
ATOM     22  C   UNL     1      -3.785  -1.594  23.974  0.00  0.00    +0.123 A 
ATOM     23  N   UNL     1      -4.254  -2.273  23.979  0.00  0.00    -0.239 NA
ATOM     24  C   UNL     1      -3.994  -2.951  24.370  0.00  0.00    +0.120 A 
ATOM     25  C   UNL     1      -3.264  -2.951  24.755  0.00  0.00    +0.120 A 
ATOM     26  N   UNL     1      -2.795  -2.272  24.750  0.00  0.00    -0.236 NA
ENDBRANCH  19  21
ENDBRANCH   4  18
TORSDOF 4
ENDMDL
MODEL 5
REMARK VINA RESULT:      -9.2      2.731      4.292
REMARK  Name = 
REMARK  4 active torsions:
REMARK  status: ('A' for Active; 'I' for Inactive)
REMARK    1  A    between atoms: C_4  and  N_18
REMARK    2  A    between atoms: C_6  and  C_7
REMARK    3  A    between atoms: C_9  and  C_12
REMARK    4  A    between atoms: C_19  and  C_21
REMARK                            x       y       z     vdW  Elec       q    Type
REMARK                         _______ _______ _______ _____ _____    ______ ____
ROOT
ATOM      1  C   UNL     1      -1.439   3.491  25.893  0.00  0.00    +0.090 C 
ATOM      2  N   UNL     1      -1.301   3.031  25.222  0.00  0.00    -0.264 NA
ATOM      3  C   UNL     1      -0.572   2.726  24.985  0.00  0.00    +0.094 C 
ATOM      4  C   UNL     1      -0.688   2.302  24.287  0.00  0.00    +0.113 C 
ATOM      5  C   UNL     1      -1.489   2.346  24.093  0.00  0.00    +0.049 C 
ATOM      6  C   UNL     1      -1.868   2.796  24.670  0.00  0.00    +0.139 C 
ENDROOT
BRANCH   6   7
ATOM      7  C   UNL     1      -2.671   2.979  24.692  0.00  0.00    +0.251 A 
ATOM      8  N   UNL     1      -3.273   2.489  24.973  0.00  0.00    -0.190 NA
ATOM      9  C   UNL     1      -3.988   2.892  24.892  0.00  0.00    +0.203 A 
ATOM     10  N   UNL     1      -3.829   3.631  24.561  0.00  0.00    -0.056 NA
ATOM     11  O   UNL     1      -3.015   3.685  24.438  0.00  0.00    -0.336 OA
BRANCH   9  12
ATOM     12  C   UNL     1      -4.733   2.605  25.104  0.00  0.00    +0.039 A 
ATOM     13  C   UNL     1      -5.084   2.003  24.662  0.00  0.00    +0.003 A 
ATOM     14  C   UNL     1      -5.828   1.717  24.875  0.00  0.00    +0.000 A 
ATOM     15  C   UNL     1      -6.221   2.033  25.528  0.00  0.00    +0.000 A 
ATOM     16  C   UNL     1      -5.869   2.635  25.969  0.00  0.00    +0.000 A 
ATOM     17  C   UNL     1      -5.125   2.921  25.757  0.00  0.00    +0.003 A 
ENDBRANCH   9  12
ENDBRANCH   6   7
BRANCH   4  18
ATOM     18  N   UNL     1      -0.106   1.904  23.859  0.00  0.00    -0.201 NA
ATOM     19  C   UNL     1       0.061   1.113  24.025  0.00  0.00    +0.284 C 
ATOM     20  O   UNL     1      -0.355   0.721  24.619  0.00  0.00    -0.267 OA
BRANCH  19  21
ATOM     21  C   UNL     1       0.643   0.715  23.597  0.00  0.00    +0.155 A 
ATOM     22  C   UNL     1       0.465   0.003  23.222  0.00  0.00    +0.123 A 
ATOM     23  N   UNL     1       1.047  -0.395  22.794  0.00  0.00    -0.239 NA
ATOM     24  C   UNL     1       1.808  -0.080  22.741  0.00  0.00    +0.120 A 
ATOM     25  C   UNL     1       1.986   0.633  23.117  0.00  0.00    +0.120 A 
ATOM     26  N   UNL     1       1.404   1.030  23.545  0.00  0.00    -0.236 NA
ENDBRANCH  19  21
ENDBRANCH   4  18
TORSDOF 4
ENDMDL
MODEL 6
REMARK VINA RESULT:      -8.3     17.132     18.992
REMARK  Name = 
REMARK  4 active torsions:
REMARK  status: ('A' for Active; 'I' for Inactive)
REMARK    1  A    between atoms: C_4  and  N_18
REMARK    2  A    between atoms: C_6  and  C_7
REMARK    3  A    between atoms: C_9  and  C_12
REMARK    4  A    between atoms: C_19  and  C_21
REMARK                            x       y       z     vdW  Elec       q    Type
REMARK                         _______ _______ _______ _____ _____    ______ ____
ROOT
ATOM      1  C   UNL     1      12.079   6.864  20.872  0.00  0.00    +0.090 C 
ATOM      2  N   UNL     1      12.264   7.332  20.218  0.00  0.00    -0.264 NA
ATOM      3  C   UNL     1      11.735   7.588  19.639  0.00  0.00    +0.094 C 
ATOM      4  C   UNL     1      12.154   8.040  19.092  0.00  0.00    +0.113 C 
ATOM      5  C   UNL     1      12.943   8.063  19.332  0.00  0.00    +0.049 C 
ATOM      6  C   UNL     1      13.011   7.626  20.028  0.00  0.00    +0.139 C 
ENDROOT
BRANCH   6   7
ATOM      7  C   UNL     1      13.704   7.504  20.458  0.00  0.00    +0.251 A 
ATOM      8  N   UNL     1      14.423   7.238  20.154  0.00  0.00    -0.190 NA
ATOM      9  C   UNL     1      14.963   7.196  20.776  0.00  0.00    +0.203 A 
ATOM     10  N   UNL     1      14.578   7.436  21.465  0.00  0.00    -0.056 NA
ATOM     11  O   UNL     1      13.800   7.627  21.269  0.00  0.00    -0.336 OA
BRANCH   9  12
ATOM     12  C   UNL     1      15.751   6.956  20.719  0.00  0.00    +0.039 A 
ATOM     13  C   UNL     1      15.995   6.490  20.084  0.00  0.00    +0.003 A 
ATOM     14  C   UNL     1      16.782   6.250  20.027  0.00  0.00    +0.000 A 
ATOM     15  C   UNL     1      17.325   6.475  20.606  0.00  0.00    +0.000 A 
ATOM     16  C   UNL     1      17.080   6.942  21.241  0.00  0.00    +0.000 A 
ATOM     17  C   UNL     1      16.294   7.182  21.298  0.00  0.00    +0.003 A 
ENDBRANCH   9  12
ENDBRANCH   6   7
BRANCH   4  18
ATOM     18  N   UNL     1      11.840   8.405  18.422  0.00  0.00    -0.201 NA
ATOM     19  C   UNL     1      11.823   8.001  17.702  0.00  0.00    +0.284 C 
ATOM     20  O   UNL     1      12.120   7.233  17.654  0.00  0.00    -0.267 OA
BRANCH  19  21
ATOM     21  C   UNL     1      11.509   8.365  17.032  0.00  0.00    +0.155 A 
ATOM     22  C   UNL     1      12.011   8.724  16.484  0.00  0.00    +0.123 A 
ATOM     23  N   UNL     1      11.697   9.088  15.814  0.00  0.00    -0.239 NA
ATOM     24  C   UNL     1      10.881   9.093  15.691  0.00  0.00    +0.120 A 
ATOM     25  C   UNL     1      10.379   8.734  16.239  0.00  0.00    +0.120 A 
ATOM     26  N   UNL     1      10.693   8.370  16.909  0.00  0.00    -0.236 NA
ENDBRANCH  19  21
ENDBRANCH   4  18
TORSDOF 4
ENDMDL
MODEL 7
REMARK VINA RESULT:      -8.1     15.657     18.692
REMARK  Name = 
REMARK  4 active torsions:
REMARK  status: ('A' for Active; 'I' for Inactive)
REMARK    1  A    between atoms: C_4  and  N_18
REMARK    2  A    between atoms: C_6  and  C_7
REMARK    3  A    between atoms: C_9  and  C_12
REMARK    4  A    between atoms: C_19  and  C_21
REMARK                            x       y       z     vdW  Elec       q    Type
REMARK                         _______ _______ _______ _____ _____    ______ ____
ROOT
ATOM      1  C   UNL     1      12.779   9.093  18.392  0.00  0.00    +0.090 C 
ATOM      2  N   UNL     1      13.159   8.410  18.655  0.00  0.00    -0.264 NA
ATOM      3  C   UNL     1      13.897   8.139  18.405  0.00  0.00    +0.094 C 
ATOM      4  C   UNL     1      14.062   7.440  18.809  0.00  0.00    +0.113 C 
ATOM      5  C   UNL     1      13.426   7.278  19.309  0.00  0.00    +0.049 C 
ATOM      6  C   UNL     1      12.868   7.877  19.214  0.00  0.00    +0.139 C 
ENDROOT
BRANCH   6   7
ATOM      7  C   UNL     1      12.146   7.935  19.608  0.00  0.00    +0.251 A 
ATOM      8  N   UNL     1      12.042   7.987  20.425  0.00  0.00    -0.190 NA
ATOM      9  C   UNL     1      11.232   8.035  20.576  0.00  0.00    +0.203 A 
ATOM     10  N   UNL     1      10.835   8.011  19.853  0.00  0.00    -0.056 NA
ATOM     11  O   UNL     1      11.400   7.949  19.255  0.00  0.00    -0.336 OA
BRANCH   9  12
ATOM     12  C   UNL     1      10.881   8.095  21.321  0.00  0.00    +0.039 A 
ATOM     13  C   UNL     1      10.584   7.421  21.692  0.00  0.00    +0.003 A 
ATOM     14  C   UNL     1      10.233   7.481  22.437  0.00  0.00    +0.000 A 
ATOM     15  C   UNL     1      10.178   8.215  22.809  0.00  0.00    +0.000 A 
ATOM     16  C   UNL     1      10.475   8.889  22.436  0.00  0.00    +0.000 A 
ATOM     17  C   UNL     1      10.826   8.829  21.693  0.00  0.00    +0.003 A 
ENDBRANCH   9  12
ENDBRANCH   6   7
BRANCH   4  18
ATOM     18  N   UNL     1      14.744   6.982  18.728  0.00  0.00    -0.201 NA
ATOM     19  C   UNL     1      15.360   7.060  19.272  0.00  0.00    +0.284 C 
ATOM     20  O   UNL     1      15.294   7.595  19.895  0.00  0.00    -0.267 OA
BRANCH  19  21
ATOM     21  C   UNL     1      16.042   6.602  19.191  0.00  0.00    +0.155 A 
ATOM     22  C   UNL     1      16.650   6.667  19.744  0.00  0.00    +0.123 A 
ATOM     23  N   UNL     1      17.332   6.210  19.663  0.00  0.00    -0.239 NA
ATOM     24  C   UNL     1      17.405   5.687  19.029  0.00  0.00    +0.120 A 
ATOM     25  C   UNL     1      16.796   5.622  18.476  0.00  0.00    +0.120 A 
ATOM     26  N   UNL     1      16.115   6.079  18.556  0.00  0.00    -0.236 NA
ENDBRANCH  19  21
ENDBRANCH   4  18
TORSDOF 4
ENDMDL
MODEL 8
REMARK VINA RESULT:      -7.7     16.700     18.845
REMARK  Name = 
REMARK  4 active torsions:
REMARK  status: ('A' for Active; 'I' for Inactive)
REMARK    1  A    between atoms: C_4  and  N_18
REMARK    2  A    between atoms: C_6  and  C_7
REMARK    3  A    between atoms: C_9  and  C_12
REMARK    4  A    between atoms: C_19  and  C_21
REMARK                            x       y       z     vdW  Elec       q    Type
REMARK                         _______ _______ _______ _____ _____    ______ ____
ROOT
ATOM      1  C   UNL     1      11.685   6.732  20.647  0.00  0.00    +0.090 C 
ATOM      2  N   UNL     1      12.407   7.104  20.501  0.00  0.00    -0.264 NA
ATOM      3  C   UNL     1      13.109   6.980  20.916  0.00  0.00    +0.094 C 
ATOM      4  C   UNL     1      13.689   7.464  20.586  0.00  0.00    +0.113 C 
ATOM      5  C   UNL     1      13.346   7.888  19.967  0.00  0.00    +0.049 C 
ATOM      6  C   UNL     1      12.554   7.665  19.914  0.00  0.00    +0.139 C 
ENDROOT
BRANCH   6   7
ATOM      7  C   UNL     1      12.004   7.953  19.370  0.00  0.00    +0.251 A 
ATOM      8  N   UNL     1      12.138   8.078  18.566  0.00  0.00    -0.190 NA
ATOM      9  C   UNL     1      11.441   8.368  18.234  0.00  0.00    +0.203 A 
ATOM     10  N   UNL     1      10.876   8.422  18.833  0.00  0.00    -0.056 NA
ATOM     11  O   UNL     1      11.224   8.166  19.535  0.00  0.00    -0.336 OA
BRANCH   9  12
ATOM     12  C   UNL     1      11.328   8.569  17.441  0.00  0.00    +0.039 A 
ATOM     13  C   UNL     1      11.950   8.893  17.006  0.00  0.00    +0.003 A 
ATOM     14  C   UNL     1      11.837   9.093  16.213  0.00  0.00    +0.000 A 
ATOM     15  C   UNL     1      11.103   8.970  15.857  0.00  0.00    +0.000 A 
ATOM     16  C   UNL     1      10.482   8.647  16.293  0.00  0.00    +0.000 A 
ATOM     17  C   UNL     1      10.594   8.446  17.085  0.00  0.00    +0.003 A 
ENDBRANCH   9  12
ENDBRANCH   6   7
BRANCH   4  18
ATOM     18  N   UNL     1      14.475   7.516  20.832  0.00  0.00    -0.201 NA
ATOM     19  C   UNL     1      15.046   7.024  20.496  0.00  0.00    +0.284 C 
ATOM     20  O   UNL     1      14.830   6.481  19.914  0.00  0.00    -0.267 OA
BRANCH  19  21
ATOM     21  C   UNL     1      15.832   7.076  20.741  0.00  0.00    +0.155 A 
ATOM     22  C   UNL     1      16.181   7.814  20.856  0.00  0.00    +0.123 A 
ATOM     23  N   UNL     1      16.966   7.866  21.101  0.00  0.00    -0.239 NA
ATOM     24  C   UNL     1      17.404   7.179  21.232  0.00  0.00    +0.120 A 
ATOM     25  C   UNL     1      17.055   6.440  21.117  0.00  0.00    +0.120 A 
ATOM     26  N   UNL     1      16.269   6.388  20.872  0.00  0.00    -0.236 NA
ENDBRANCH  19  21
ENDBRANCH   4  18
TORSDOF 4
ENDMDL
