MODEL 1
REMARK VINA RESULT:     -11.6      0.000      0.000
REMARK  Name = 
REMARK  8 active torsions:
REMARK  status: ('A' for Active; 'I' for Inactive)
REMARK    1  A    between atoms: C_1  and  N_2
REMARK    2  A    between atoms: C_1  and  C_21
REMARK    3  A    between atoms: N_2  and  C_3
REMARK    4  A    between atoms: C_3  and  C_4
REMARK    5  A    between atoms: C_4  and  C_5
REMARK    6  A    between atoms: C_8  and  C_9
REMARK    7  A    between atoms: C_9  and  O_10
REMARK    8  A    between atoms: O_10  and  C_11
REMARK                            x       y       z     vdW  Elec       q    Type
REMARK                         _______ _______ _______ _____ _____    ______ ____
ROOT
ATOM      4  C   UNL     1      -4.273   2.907  24.649  0.00  0.00    +0.070 C 
ENDROOT
BRANCH   4   5
ATOM      5  C   UNL     1      -4.442   2.102  24.702  0.00  0.00    +0.102 A 
ATOM      6  N   UNL     1      -5.106   1.769  25.060  0.00  0.00    -0.082 NA
ATOM      7  O   UNL     1      -5.051   0.949  24.987  0.00  0.00    -0.354 OA
ATOM      8  C   UNL     1      -4.352   0.775  24.584  0.00  0.00    +0.198 A 
ATOM     17  C   UNL     1      -3.976   1.488  24.408  0.00  0.00    +0.057 A 
BRANCH   8   9
ATOM      9  C   UNL     1      -4.079   0.021  24.392  0.00  0.00    +0.272 C 
BRANCH   9  10
ATOM     10  O   UNL     1      -4.330  -0.633  24.827  0.00  0.00    -0.467 OA
BRANCH  10  11
ATOM     11  C   UNL     1      -4.035  -1.383  24.651  0.00  0.00    +0.139 A 
ATOM     12  C   UNL     1      -3.498  -1.746  25.164  0.00  0.00    +0.037 A 
ATOM     13  C   UNL     1      -3.203  -2.495  24.989  0.00  0.00    +0.003 A 
ATOM     14  C   UNL     1      -3.443  -2.883  24.301  0.00  0.00    +0.000 A 
ATOM     15  C   UNL     1      -3.978  -2.521  23.789  0.00  0.00    +0.003 A 
ATOM     16  C   UNL     1      -4.274  -1.771  23.965  0.00  0.00    +0.037 A 
ENDBRANCH  10  11
ENDBRANCH   9  10
ENDBRANCH   8   9
ENDBRANCH   4   5
BRANCH   4   3
ATOM      3  C   UNL     1      -4.259   3.372  25.329  0.00  0.00    +0.119 C 
ATOM     18  C   UNL     1      -4.245   3.838  26.011  0.00  0.00    +0.161 C 
ATOM     19  O   UNL     1      -5.070   3.855  26.016  0.00  0.00    -0.351 OA
ATOM     20  C   UNL     1      -5.084   3.390  25.336  0.00  0.00    +0.161 C 
BRANCH   3   2
ATOM      2  N   UNL     1      -3.434   3.356  25.324  0.00  0.00    -0.215 NA
BRANCH   2   1
ATOM      1  C   UNL     1      -3.007   4.012  25.585  0.00  0.00    +0.089 C 
BRANCH   1  21
ATOM     21  C   UNL     1      -2.193   4.051  25.458  0.00  0.00    +0.017 C 
ATOM     22  C   UNL     1      -1.868   4.699  25.064  0.00  0.00    +0.001 C 
ATOM     23  C   UNL     1      -1.054   4.740  24.937  0.00  0.00    +0.000 C 
ATOM     24  C   UNL     1      -0.565   4.131  25.203  0.00  0.00    +0.000 C 
ATOM     25  C   UNL     1      -0.890   3.482  25.597  0.00  0.00    +0.000 C 
ATOM     26  C   UNL     1      -1.704   3.443  25.724  0.00  0.00    +0.001 C 
ENDBRANCH   1  21
ENDBRANCH   2   1
ENDBRANCH   3   2
ENDBRANCH   4   3
TORSDOF 8
ENDMDL
MODEL 2
REMARK VINA RESULT:     -10.5      2.347      6.039
REMARK  Name = 
REMARK  8 active torsions:
REMARK  status: ('A' for Active; 'I' for Inactive)
REMARK    1  A    between atoms: C_1  and  N_2
REMARK    2  A    between atoms: C_1  and  C_21
REMARK    3  A    between atoms: N_2  and  C_3
REMARK    4  A    between atoms: C_3  and  C_4
REMARK    5  A    between atoms: C_4  and  C_5
REMARK    6  A    between atoms: C_8  and  C_9
REMARK    7  A    between atoms: C_9  and  O_10
REMARK    8  A    between atoms: O_10  and  C_11
REMARK                            x       y       z     vdW  Elec       q    Type
REMARK                         _______ _______ _______ _____ _____    ______ ____
ROOT
ATOM      4  C   UNL     1      -1.414  -0.446  25.624  0.00  0.00    +0.070 C 
ENDROOT
BRANCH   4   5
ATOM      5  C   UNL     1      -1.099   0.249  25.309  0.00  0.00    +0.102 A 
ATOM      6  N   UNL     1      -0.585   0.299  24.667  0.00  0.00    -0.082 NA
ATOM      7  O   UNL     1      -0.410   1.096  24.542  0.00  0.00    -0.354 OA
ATOM      8  C   UNL     1      -0.817   1.538  25.108  0.00  0.00    +0.198 A 
ATOM     17  C   UNL     1      -1.243   1.014  25.582  0.00  0.00    +0.057 A 
BRANCH   8   9
ATOM      9  C   UNL     1      -0.801   2.359  25.185  0.00  0.00    +0.272 C 
BRANCH   9  10
ATOM     10  O   UNL     1      -1.337   2.824  24.765  0.00  0.00    -0.467 OA
BRANCH  10  11
ATOM     11  C   UNL     1      -1.369   3.638  24.896  0.00  0.00    +0.139 A 
ATOM     12  C   UNL     1      -2.050   3.978  25.216  0.00  0.00    +0.037 A 
ATOM     13  C   UNL     1      -2.082   4.791  25.347  0.00  0.00    +0.003 A 
ATOM     14  C   UNL     1      -1.433   5.266  25.160  0.00  0.00    +0.000 A 
ATOM     15  C   UNL     1      -0.753   4.926  24.840  0.00  0.00    +0.003 A 
ATOM     16  C   UNL     1      -0.721   4.112  24.709  0.00  0.00    +0.037 A 
ENDBRANCH  10  11
ENDBRANCH   9  10
ENDBRANCH   8   9
ENDBRANCH   4   5
BRANCH   4   3
ATOM      3  C   UNL     1      -1.207  -1.176  25.302  0.00  0.00    +0.119 C 
ATOM     18  C   UNL     1      -0.999  -1.907  24.979  0.00  0.00    +0.161 C 
ATOM     19  O   UNL     1      -0.277  -1.877  25.378  0.00  0.00    -0.351 OA
ATOM     20  C   UNL     1      -0.484  -1.147  25.700  0.00  0.00    +0.161 C 
BRANCH   3   2
ATOM      2  N   UNL     1      -1.928  -1.206  24.903  0.00  0.00    -0.215 NA
BRANCH   2   1
ATOM      1  C   UNL     1      -2.491  -1.772  25.112  0.00  0.00    +0.089 C 
BRANCH   1  21
ATOM     21  C   UNL     1      -3.178  -1.855  24.662  0.00  0.00    +0.017 C 
ATOM     22  C   UNL     1      -3.689  -1.214  24.568  0.00  0.00    +0.001 C 
ATOM     23  C   UNL     1      -4.376  -1.297  24.118  0.00  0.00    +0.000 C 
ATOM     24  C   UNL     1      -4.551  -2.021  23.763  0.00  0.00    +0.000 C 
ATOM     25  C   UNL     1      -4.040  -2.662  23.857  0.00  0.00    +0.000 C 
ATOM     26  C   UNL     1      -3.353  -2.578  24.307  0.00  0.00    +0.001 C 
ENDBRANCH   1  21
ENDBRANCH   2   1
ENDBRANCH   3   2
ENDBRANCH   4   3
TORSDOF 8
ENDMDL
MODEL 3
REMARK VINA RESULT:     -10.4      1.995      2.927
REMARK  Name = 
REMARK  8 active torsions:
REMARK  status: ('A' for Active; 'I' for Inactive)
REMARK    1  A    between atoms: C_1  and  N_2
REMARK    2  A    between atoms: C_1  and  C_21
REMARK    3  A    between atoms: N_2  and  C_3
REMARK    4  A    between atoms: C_3  and  C_4
REMARK    5  A    between atoms: C_4  and  C_5
REMARK    6  A    between atoms: C_8  and  C_9
REMARK    7  A    between atoms: C_9  and  O_10
REMARK    8  A    between atoms: O_10  and  C_11
REMARK                            x       y       z     vdW  Elec       q    Type
REMARK                         _______ _______ _______ _____ _____    ______ ____
ROOT
ATOM      4  C   UNL     1      -0.729   1.771  24.917  0.00  0.00    +0.070 C 
ENDROOT
BRANCH   4   5
ATOM      5  C   UNL     1      -0.962   1.001  25.100  0.00  0.00    +0.102 A 
ATOM      6  N   UNL     1      -0.762   0.585  25.783  0.00  0.00    -0.082 NA
ATOM      7  O   UNL     1      -1.111  -0.162  25.738  0.00  0.00    -0.354 OA
ATOM      8  C   UNL     1      -1.526  -0.207  25.026  0.00  0.00    +0.198 A 
ATOM     17  C   UNL     1      -1.433   0.512  24.632  0.00  0.00    +0.057 A 
BRANCH   8   9
ATOM      9  C   UNL     1      -1.957  -0.856  24.757  0.00  0.00    +0.272 C 
BRANCH   9  10
ATOM     10  O   UNL     1      -2.697  -1.023  25.080  0.00  0.00    -0.467 OA
BRANCH  10  11
ATOM     11  C   UNL     1      -3.194  -1.569  24.713  0.00  0.00    +0.139 A 
ATOM     12  C   UNL     1      -3.082  -2.378  24.837  0.00  0.00    +0.037 A 
ATOM     13  C   UNL     1      -3.579  -2.924  24.469  0.00  0.00    +0.003 A 
ATOM     14  C   UNL     1      -4.188  -2.663  23.977  0.00  0.00    +0.000 A 
ATOM     15  C   UNL     1      -4.299  -1.855  23.853  0.00  0.00    +0.003 A 
ATOM     16  C   UNL     1      -3.803  -1.309  24.221  0.00  0.00    +0.037 A 
ENDBRANCH  10  11
ENDBRANCH   9  10
ENDBRANCH   8   9
ENDBRANCH   4   5
BRANCH   4   3
ATOM      3  C   UNL     1      -0.540   2.299  25.521  0.00  0.00    +0.119 C 
ATOM     18  C   UNL     1      -0.350   2.829  26.126  0.00  0.00    +0.161 C 
ATOM     19  O   UNL     1       0.433   2.568  26.108  0.00  0.00    -0.351 OA
ATOM     20  C   UNL     1       0.243   2.039  25.504  0.00  0.00    +0.161 C 
BRANCH   3   2
ATOM      2  N   UNL     1      -1.322   2.560  25.539  0.00  0.00    -0.215 NA
BRANCH   2   1
ATOM      1  C   UNL     1      -1.488   3.368  25.502  0.00  0.00    +0.089 C 
BRANCH   1  21
ATOM     21  C   UNL     1      -2.271   3.626  25.473  0.00  0.00    +0.017 C 
ATOM     22  C   UNL     1      -2.644   3.729  24.744  0.00  0.00    +0.001 C 
ATOM     23  C   UNL     1      -3.427   3.987  24.713  0.00  0.00    +0.000 C 
ATOM     24  C   UNL     1      -3.837   4.143  25.412  0.00  0.00    +0.000 C 
ATOM     25  C   UNL     1      -3.464   4.041  26.141  0.00  0.00    +0.000 C 
ATOM     26  C   UNL     1      -2.681   3.782  26.171  0.00  0.00    +0.001 C 
ENDBRANCH   1  21
ENDBRANCH   2   1
ENDBRANCH   3   2
ENDBRANCH   4   3
TORSDOF 8
ENDMDL
