MODEL 1
REMARK VINA RESULT:     -11.2      0.000      0.000
REMARK  Name = 
REMARK  6 active torsions:
REMARK  status: ('A' for Active; 'I' for Inactive)
REMARK    1  A    between atoms: C_2  and  C_4
REMARK    2  A    between atoms: C_6  and  C_7
REMARK    3  A    between atoms: C_7  and  C_8
REMARK    4  A    between atoms: N_10  and  C_11
REMARK    5  A    between atoms: C_20  and  C_21
REMARK    6  A    between atoms: C_21  and  C_22
REMARK                            x       y       z     vdW  Elec       q    Type
REMARK                         _______ _______ _______ _____ _____    ______ ____
ROOT
ATOM      4  C   UNL     1      -1.820   2.238  24.994  0.00  0.00    +0.005 C 
ATOM      5  C   UNL     1      -2.471   1.735  24.934  0.00  0.00    +0.005 C 
ATOM      6  C   UNL     1      -3.226   2.048  24.833  0.00  0.00    +0.027 C 
ATOM     17  C   UNL     1      -3.332   2.865  24.791  0.00  0.00    -0.048 C 
ATOM     18  C   UNL     1      -4.089   3.178  24.690  0.00  0.00    +0.026 C 
ATOM     19  C   UNL     1      -2.681   3.369  24.852  0.00  0.00    -0.034 C 
ATOM     20  C   UNL     1      -1.926   3.056  24.953  0.00  0.00    +0.037 C 
ENDROOT
BRANCH   4   2
ATOM      1  C   UNL     1      -0.792   1.741  25.853  0.00  0.00    +0.000 C 
ATOM      2  C   UNL     1      -1.063   1.924  25.096  0.00  0.00    +0.000 C 
ATOM      3  C   UNL     1      -0.580   1.795  24.441  0.00  0.00    +0.000 C 
ENDBRANCH   4   2
BRANCH   6   7
ATOM      7  C   UNL     1      -3.877   1.544  24.772  0.00  0.00    +0.091 C 
BRANCH   7   8
ATOM      8  C   UNL     1      -3.771   0.759  24.543  0.00  0.00    +0.242 C 
ATOM      9  O   UNL     1      -3.425   0.585  23.815  0.00  0.00    -0.273 OA
ATOM     10  N   UNL     1      -4.012   0.148  25.042  0.00  0.00    -0.207 NA
BRANCH  10  11
ATOM     11  C   UNL     1      -3.906  -0.639  24.812  0.00  0.00    +0.095 C 
ATOM     12  C   UNL     1      -3.393  -1.126  25.237  0.00  0.00    +0.022 C 
ATOM     13  C   UNL     1      -3.287  -1.912  25.008  0.00  0.00    +0.002 C 
ATOM     14  C   UNL     1      -3.694  -2.209  24.354  0.00  0.00    +0.000 C 
ATOM     15  C   UNL     1      -4.207  -1.721  23.930  0.00  0.00    +0.002 C 
ATOM     16  C   UNL     1      -4.312  -0.936  24.160  0.00  0.00    +0.022 C 
ENDBRANCH  10  11
ENDBRANCH   7   8
ENDBRANCH   6   7
BRANCH  20  21
ATOM     21  C   UNL     1      -1.275   3.559  25.013  0.00  0.00    +0.110 C 
BRANCH  21  22
ATOM     22  C   UNL     1      -1.389   4.370  25.112  0.00  0.00    +0.073 C 
ATOM     23  N   UNL     1      -1.503   5.181  25.210  0.00  0.00    -0.196 NA
ENDBRANCH  21  22
ENDBRANCH  20  21
TORSDOF 6
ENDMDL
MODEL 2
REMARK VINA RESULT:     -11.0      0.760      1.086
REMARK  Name = 
REMARK  6 active torsions:
REMARK  status: ('A' for Active; 'I' for Inactive)
REMARK    1  A    between atoms: C_2  and  C_4
REMARK    2  A    between atoms: C_6  and  C_7
REMARK    3  A    between atoms: C_7  and  C_8
REMARK    4  A    between atoms: N_10  and  C_11
REMARK    5  A    between atoms: C_20  and  C_21
REMARK    6  A    between atoms: C_21  and  C_22
REMARK                            x       y       z     vdW  Elec       q    Type
REMARK                         _______ _______ _______ _____ _____    ______ ____
ROOT
ATOM      4  C   UNL     1      -2.500   2.097  24.750  0.00  0.00    +0.005 C 
ATOM      5  C   UNL     1      -3.001   1.505  24.470  0.00  0.00    +0.005 C 
ATOM      6  C   UNL     1      -3.818   1.589  24.539  0.00  0.00    +0.027 C 
ATOM     17  C   UNL     1      -4.136   2.265  24.889  0.00  0.00    -0.048 C 
ATOM     18  C   UNL     1      -4.953   2.349  24.958  0.00  0.00    +0.026 C 
ATOM     19  C   UNL     1      -3.634   2.858  25.170  0.00  0.00    -0.034 C 
ATOM     20  C   UNL     1      -2.818   2.774  25.101  0.00  0.00    +0.037 C 
ENDROOT
BRANCH   4   2
ATOM      1  C   UNL     1      -1.254   1.638  25.279  0.00  0.00    +0.000 C 
ATOM      2  C   UNL     1      -1.682   2.013  24.681  0.00  0.00    +0.000 C 
ATOM      3  C   UNL     1      -1.293   2.303  24.015  0.00  0.00    +0.000 C 
ENDBRANCH   4   2
BRANCH   6   7
ATOM      7  C   UNL     1      -4.319   0.996  24.259  0.00  0.00    +0.091 C 
BRANCH   7   8
ATOM      8  C   UNL     1      -4.046   0.220  24.195  0.00  0.00    +0.242 C 
ATOM      9  O   UNL     1      -3.524   0.015  23.590  0.00  0.00    -0.273 OA
ATOM     10  N   UNL     1      -4.294  -0.350  24.737  0.00  0.00    -0.207 NA
BRANCH  10  11
ATOM     11  C   UNL     1      -4.020  -1.127  24.673  0.00  0.00    +0.095 C 
ATOM     12  C   UNL     1      -4.271  -1.602  24.047  0.00  0.00    +0.022 C 
ATOM     13  C   UNL     1      -3.998  -2.378  23.983  0.00  0.00    +0.002 C 
ATOM     14  C   UNL     1      -3.473  -2.678  24.546  0.00  0.00    +0.000 C 
ATOM     15  C   UNL     1      -3.223  -2.202  25.171  0.00  0.00    +0.002 C 
ATOM     16  C   UNL     1      -3.497  -1.426  25.235  0.00  0.00    +0.022 C 
ENDBRANCH  10  11
ENDBRANCH   7   8
ENDBRANCH   6   7
BRANCH  20  21
ATOM     21  C   UNL     1      -2.316   3.366  25.381  0.00  0.00    +0.110 C 
BRANCH  21  22
ATOM     22  C   UNL     1      -2.622   3.982  25.837  0.00  0.00    +0.073 C 
ATOM     23  N   UNL     1      -2.927   4.598  26.293  0.00  0.00    -0.196 NA
ENDBRANCH  21  22
ENDBRANCH  20  21
TORSDOF 6
ENDMDL
MODEL 3
REMARK VINA RESULT:     -10.9      0.927      2.008
REMARK  Name = 
REMARK  6 active torsions:
REMARK  status: ('A' for Active; 'I' for Inactive)
REMARK    1  A    between atoms: C_2  and  C_4
REMARK    2  A    between atoms: C_6  and  C_7
REMARK    3  A    between atoms: C_7  and  C_8
REMARK    4  A    between atoms: N_10  and  C_11
REMARK    5  A    between atoms: C_20  and  C_21
REMARK    6  A    between atoms: C_21  and  C_22
REMARK                            x       y       z     vdW  Elec       q    Type
REMARK                         _______ _______ _______ _____ _____    ______ ____
ROOT
ATOM      4  C   UNL     1      -2.948   2.398  24.671  0.00  0.00    +0.005 C 
ATOM      5  C   UNL     1      -2.695   1.617  24.600  0.00  0.00    +0.005 C 
ATOM      6  C   UNL     1      -1.966   1.389  24.908  0.00  0.00    +0.027 C 
ATOM     17  C   UNL     1      -1.487   1.943  25.289  0.00  0.00    -0.048 C 
ATOM     18  C   UNL     1      -0.757   1.716  25.598  0.00  0.00    +0.026 C 
ATOM     19  C   UNL     1      -1.740   2.726  25.361  0.00  0.00    -0.034 C 
ATOM     20  C   UNL     1      -2.470   2.953  25.052  0.00  0.00    +0.037 C 
ENDROOT
BRANCH   4   2
ATOM      1  C   UNL     1      -3.745   2.822  23.564  0.00  0.00    +0.000 C 
ATOM      2  C   UNL     1      -3.678   2.626  24.363  0.00  0.00    +0.000 C 
ATOM      3  C   UNL     1      -4.341   2.657  24.852  0.00  0.00    +0.000 C 
ENDBRANCH   4   2
BRANCH   6   7
ATOM      7  C   UNL     1      -1.713   0.606  24.837  0.00  0.00    +0.091 C 
BRANCH   7   8
ATOM      8  C   UNL     1      -2.257  -0.010  24.902  0.00  0.00    +0.242 C 
ATOM      9  O   UNL     1      -2.722  -0.079  25.580  0.00  0.00    -0.273 OA
ATOM     10  N   UNL     1      -2.335  -0.557  24.290  0.00  0.00    -0.207 NA
BRANCH  10  11
ATOM     11  C   UNL     1      -2.879  -1.175  24.356  0.00  0.00    +0.095 C 
ATOM     12  C   UNL     1      -3.620  -1.112  23.997  0.00  0.00    +0.022 C 
ATOM     13  C   UNL     1      -4.163  -1.728  24.062  0.00  0.00    +0.002 C 
ATOM     14  C   UNL     1      -3.967  -2.409  24.487  0.00  0.00    +0.000 C 
ATOM     15  C   UNL     1      -3.227  -2.471  24.846  0.00  0.00    +0.002 C 
ATOM     16  C   UNL     1      -2.683  -1.854  24.780  0.00  0.00    +0.022 C 
ENDBRANCH  10  11
ENDBRANCH   7   8
ENDBRANCH   6   7
BRANCH  20  21
ATOM     21  C   UNL     1      -2.723   3.735  25.124  0.00  0.00    +0.110 C 
BRANCH  21  22
ATOM     22  C   UNL     1      -2.173   4.335  25.258  0.00  0.00    +0.073 C 
ATOM     23  N   UNL     1      -1.623   4.936  25.392  0.00  0.00    -0.196 NA
ENDBRANCH  21  22
ENDBRANCH  20  21
TORSDOF 6
ENDMDL
MODEL 4
REMARK VINA RESULT:     -10.8      1.755      4.120
REMARK  Name = 
REMARK  6 active torsions:
REMARK  status: ('A' for Active; 'I' for Inactive)
REMARK    1  A    between atoms: C_2  and  C_4
REMARK    2  A    between atoms: C_6  and  C_7
REMARK    3  A    between atoms: C_7  and  C_8
REMARK    4  A    between atoms: N_10  and  C_11
REMARK    5  A    between atoms: C_20  and  C_21
REMARK    6  A    between atoms: C_21  and  C_22
REMARK                            x       y       z     vdW  Elec       q    Type
REMARK                         _______ _______ _______ _____ _____    ______ ____
ROOT
ATOM      4  C   UNL     1      -2.912  -0.802  24.618  0.00  0.00    +0.005 C 
ATOM      5  C   UNL     1      -3.200  -0.067  24.381  0.00  0.00    +0.005 C 
ATOM      6  C   UNL     1      -2.676   0.536  24.179  0.00  0.00    +0.027 C 
ATOM     17  C   UNL     1      -1.862   0.405  24.215  0.00  0.00    -0.048 C 
ATOM     18  C   UNL     1      -1.337   1.008  24.013  0.00  0.00    +0.026 C 
ATOM     19  C   UNL     1      -1.574  -0.332  24.452  0.00  0.00    -0.034 C 
ATOM     20  C   UNL     1      -2.098  -0.934  24.654  0.00  0.00    +0.037 C 
ENDROOT
BRANCH   4   2
ATOM      1  C   UNL     1      -3.653  -1.518  25.609  0.00  0.00    +0.000 C 
ATOM      2  C   UNL     1      -3.437  -1.406  24.820  0.00  0.00    +0.000 C 
ATOM      3  C   UNL     1      -3.746  -1.896  24.234  0.00  0.00    +0.000 C 
ENDBRANCH   4   2
BRANCH   6   7
ATOM      7  C   UNL     1      -2.965   1.272  23.942  0.00  0.00    +0.091 C 
BRANCH   7   8
ATOM      8  C   UNL     1      -3.457   1.704  24.444  0.00  0.00    +0.242 C 
ATOM      9  O   UNL     1      -3.220   1.860  25.219  0.00  0.00    -0.273 OA
ATOM     10  N   UNL     1      -4.184   1.979  24.171  0.00  0.00    -0.207 NA
BRANCH  10  11
ATOM     11  C   UNL     1      -4.677   2.411  24.673  0.00  0.00    +0.095 C 
ATOM     12  C   UNL     1      -5.334   2.049  25.017  0.00  0.00    +0.022 C 
ATOM     13  C   UNL     1      -5.827   2.481  25.519  0.00  0.00    +0.002 C 
ATOM     14  C   UNL     1      -5.662   3.275  25.677  0.00  0.00    +0.000 C 
ATOM     15  C   UNL     1      -5.005   3.635  25.333  0.00  0.00    +0.002 C 
ATOM     16  C   UNL     1      -4.513   3.204  24.831  0.00  0.00    +0.022 C 
ENDBRANCH  10  11
ENDBRANCH   7   8
ENDBRANCH   6   7
BRANCH  20  21
ATOM     21  C   UNL     1      -1.810  -1.670  24.891  0.00  0.00    +0.110 C 
BRANCH  21  22
ATOM     22  C   UNL     1      -1.016  -1.754  25.098  0.00  0.00    +0.073 C 
ATOM     23  N   UNL     1      -0.222  -1.839  25.305  0.00  0.00    -0.196 NA
ENDBRANCH  21  22
ENDBRANCH  20  21
TORSDOF 6
ENDMDL
MODEL 5
REMARK VINA RESULT:     -10.8      1.291      4.383
REMARK  Name = 
REMARK  6 active torsions:
REMARK  status: ('A' for Active; 'I' for Inactive)
REMARK    1  A    between atoms: C_2  and  C_4
REMARK    2  A    between atoms: C_6  and  C_7
REMARK    3  A    between atoms: C_7  and  C_8
REMARK    4  A    between atoms: N_10  and  C_11
REMARK    5  A    between atoms: C_20  and  C_21
REMARK    6  A    between atoms: C_21  and  C_22
REMARK                            x       y       z     vdW  Elec       q    Type
REMARK                         _______ _______ _______ _____ _____    ______ ____
ROOT
ATOM      4  C   UNL     1      -2.707   0.050  24.932  0.00  0.00    +0.005 C 
ATOM      5  C   UNL     1      -2.821   0.850  25.096  0.00  0.00    +0.005 C 
ATOM      6  C   UNL     1      -3.556   1.197  24.965  0.00  0.00    +0.027 C 
ATOM     17  C   UNL     1      -4.180   0.745  24.671  0.00  0.00    -0.048 C 
ATOM     18  C   UNL     1      -4.917   1.093  24.540  0.00  0.00    +0.026 C 
ATOM     19  C   UNL     1      -4.067  -0.056  24.507  0.00  0.00    -0.034 C 
ATOM     20  C   UNL     1      -3.331  -0.403  24.637  0.00  0.00    +0.037 C 
ENDROOT
BRANCH   4   2
ATOM      1  C   UNL     1      -1.416  -0.331  24.452  0.00  0.00    +0.000 C 
ATOM      2  C   UNL     1      -1.970  -0.298  25.063  0.00  0.00    +0.000 C 
ATOM      3  C   UNL     1      -1.788  -0.613  25.802  0.00  0.00    +0.000 C 
ENDBRANCH   4   2
BRANCH   6   7
ATOM      7  C   UNL     1      -3.670   1.998  25.130  0.00  0.00    +0.091 C 
BRANCH   7   8
ATOM      8  C   UNL     1      -3.073   2.543  24.962  0.00  0.00    +0.242 C 
ATOM      9  O   UNL     1      -2.795   2.625  24.190  0.00  0.00    -0.273 OA
ATOM     10  N   UNL     1      -2.754   3.004  25.567  0.00  0.00    -0.207 NA
BRANCH  10  11
ATOM     11  C   UNL     1      -2.156   3.549  25.399  0.00  0.00    +0.095 C 
ATOM     12  C   UNL     1      -1.366   3.315  25.430  0.00  0.00    +0.022 C 
ATOM     13  C   UNL     1      -0.768   3.859  25.262  0.00  0.00    +0.002 C 
ATOM     14  C   UNL     1      -0.962   4.637  25.064  0.00  0.00    +0.000 C 
ATOM     15  C   UNL     1      -1.753   4.869  25.034  0.00  0.00    +0.002 C 
ATOM     16  C   UNL     1      -2.350   4.325  25.201  0.00  0.00    +0.022 C 
ENDBRANCH  10  11
ENDBRANCH   7   8
ENDBRANCH   6   7
BRANCH  20  21
ATOM     21  C   UNL     1      -3.217  -1.204  24.473  0.00  0.00    +0.110 C 
BRANCH  21  22
ATOM     22  C   UNL     1      -3.828  -1.646  24.139  0.00  0.00    +0.073 C 
ATOM     23  N   UNL     1      -4.439  -2.090  23.805  0.00  0.00    -0.196 NA
ENDBRANCH  21  22
ENDBRANCH  20  21
TORSDOF 6
ENDMDL
