MODEL 1
REMARK VINA RESULT:     -11.0      0.000      0.000
REMARK  Name = 
REMARK  3 active torsions:
REMARK  status: ('A' for Active; 'I' for Inactive)
REMARK    1  A    between atoms: C_4  and  C_13
REMARK    2  A    between atoms: N_5  and  C_7
REMARK    3  A    between atoms: C_15  and  C_18
REMARK                            x       y       z     vdW  Elec       q    Type
REMARK                         _______ _______ _______ _____ _____    ______ ____
ROOT
ATOM      1  O   UNL     1       0.077   0.402  24.258  0.00  0.00    -0.222 OA
ATOM      2  C   UNL     1      -0.734   0.282  24.351  0.00  0.00    +0.170 C 
ATOM      3  C   UNL     1      -1.326   0.835  24.195  0.00  0.00    +0.060 C 
ATOM      4  C   UNL     1      -2.053   0.483  24.364  0.00  0.00    +0.140 C 
ATOM      5  N   UNL     1      -1.909  -0.287  24.624  0.00  0.00    -0.265 NA
ATOM      6  C   UNL     1      -1.093  -0.411  24.616  0.00  0.00    +0.106 C 
ENDROOT
BRANCH   5   7
ATOM      7  C   UNL     1      -2.481  -0.836  24.852  0.00  0.00    +0.058 C 
ATOM      8  C   UNL     1      -2.715  -0.883  25.642  0.00  0.00    +0.016 C 
ATOM      9  C   UNL     1      -3.287  -1.433  25.871  0.00  0.00    +0.001 C 
ATOM     10  C   UNL     1      -3.623  -1.936  25.309  0.00  0.00    +0.000 C 
ATOM     11  C   UNL     1      -3.389  -1.888  24.520  0.00  0.00    +0.001 C 
ATOM     12  C   UNL     1      -2.817  -1.339  24.291  0.00  0.00    +0.016 C 
ENDBRANCH   5   7
BRANCH   4  13
ATOM     13  C   UNL     1      -2.793   0.838  24.286  0.00  0.00    +0.251 A 
ATOM     14  N   UNL     1      -3.167   1.310  24.851  0.00  0.00    -0.188 NA
ATOM     15  C   UNL     1      -3.895   1.548  24.543  0.00  0.00    +0.221 A 
ATOM     16  N   UNL     1      -3.971   1.223  23.789  0.00  0.00    -0.054 NA
ATOM     17  O   UNL     1      -3.290   0.785  23.629  0.00  0.00    -0.336 OA
BRANCH  15  18
ATOM     18  C   UNL     1      -4.449   2.026  24.924  0.00  0.00    +0.120 A 
ATOM     19  N   UNL     1      -4.271   2.815  25.086  0.00  0.00    -0.241 NA
ATOM     20  C   UNL     1      -4.825   3.293  25.467  0.00  0.00    +0.099 A 
ATOM     21  C   UNL     1      -5.558   2.982  25.685  0.00  0.00    +0.021 A 
ATOM     22  C   UNL     1      -5.736   2.193  25.522  0.00  0.00    +0.003 A 
ATOM     23  C   UNL     1      -5.182   1.715  25.142  0.00  0.00    +0.022 A 
ENDBRANCH  15  18
ENDBRANCH   4  13
TORSDOF 3
ENDMDL
MODEL 2
REMARK VINA RESULT:     -11.0      1.610      3.369
REMARK  Name = 
REMARK  3 active torsions:
REMARK  status: ('A' for Active; 'I' for Inactive)
REMARK    1  A    between atoms: C_4  and  C_13
REMARK    2  A    between atoms: N_5  and  C_7
REMARK    3  A    between atoms: C_15  and  C_18
REMARK                            x       y       z     vdW  Elec       q    Type
REMARK                         _______ _______ _______ _____ _____    ______ ____
ROOT
ATOM      1  O   UNL     1      -6.279   2.112  25.094  0.00  0.00    -0.222 OA
ATOM      2  C   UNL     1      -5.556   1.731  24.978  0.00  0.00    +0.170 C 
ATOM      3  C   UNL     1      -4.838   2.098  24.806  0.00  0.00    +0.060 C 
ATOM      4  C   UNL     1      -4.263   1.510  24.735  0.00  0.00    +0.140 C 
ATOM      5  N   UNL     1      -4.627   0.781  24.864  0.00  0.00    -0.265 NA
ATOM      6  C   UNL     1      -5.427   0.918  25.014  0.00  0.00    +0.106 C 
ENDROOT
BRANCH   5   7
ATOM      7  C   UNL     1      -4.256   0.044  24.845  0.00  0.00    +0.058 C 
ATOM      8  C   UNL     1      -3.936  -0.274  25.536  0.00  0.00    +0.016 C 
ATOM      9  C   UNL     1      -3.566  -1.011  25.518  0.00  0.00    +0.001 C 
ATOM     10  C   UNL     1      -3.515  -1.430  24.808  0.00  0.00    +0.000 C 
ATOM     11  C   UNL     1      -3.835  -1.112  24.118  0.00  0.00    +0.001 C 
ATOM     12  C   UNL     1      -4.206  -0.375  24.136  0.00  0.00    +0.016 C 
ENDBRANCH   5   7
BRANCH   4  13
ATOM     13  C   UNL     1      -3.465   1.631  24.566  0.00  0.00    +0.251 A 
ATOM     14  N   UNL     1      -2.876   1.820  25.112  0.00  0.00    -0.188 NA
ATOM     15  C   UNL     1      -2.162   1.890  24.704  0.00  0.00    +0.221 A 
ATOM     16  N   UNL     1      -2.309   1.744  23.906  0.00  0.00    -0.054 NA
ATOM     17  O   UNL     1      -3.115   1.584  23.820  0.00  0.00    -0.336 OA
BRANCH  15  18
ATOM     18  C   UNL     1      -1.429   2.073  25.036  0.00  0.00    +0.120 A 
ATOM     19  N   UNL     1      -0.789   1.563  24.931  0.00  0.00    -0.241 NA
ATOM     20  C   UNL     1      -0.058   1.747  25.263  0.00  0.00    +0.099 A 
ATOM     21  C   UNL     1       0.036   2.440  25.700  0.00  0.00    +0.021 A 
ATOM     22  C   UNL     1      -0.604   2.950  25.805  0.00  0.00    +0.003 A 
ATOM     23  C   UNL     1      -1.337   2.767  25.473  0.00  0.00    +0.022 A 
ENDBRANCH  15  18
ENDBRANCH   4  13
TORSDOF 3
ENDMDL
MODEL 3
REMARK VINA RESULT:     -10.8      1.530      4.155
REMARK  Name = 
REMARK  3 active torsions:
REMARK  status: ('A' for Active; 'I' for Inactive)
REMARK    1  A    between atoms: C_4  and  C_13
REMARK    2  A    between atoms: N_5  and  C_7
REMARK    3  A    between atoms: C_15  and  C_18
REMARK                            x       y       z     vdW  Elec       q    Type
REMARK                         _______ _______ _______ _____ _____    ______ ____
ROOT
ATOM      1  O   UNL     1      -5.828   3.033  25.351  0.00  0.00    -0.222 OA
ATOM      2  C   UNL     1      -5.195   2.565  25.104  0.00  0.00    +0.170 C 
ATOM      3  C   UNL     1      -5.049   1.787  25.336  0.00  0.00    +0.060 C 
ATOM      4  C   UNL     1      -4.361   1.533  24.957  0.00  0.00    +0.140 C 
ATOM      5  N   UNL     1      -4.083   2.155  24.491  0.00  0.00    -0.265 NA
ATOM      6  C   UNL     1      -4.599   2.792  24.582  0.00  0.00    +0.106 C 
ENDROOT
BRANCH   5   7
ATOM      7  C   UNL     1      -3.408   2.141  24.017  0.00  0.00    +0.058 C 
ATOM      8  C   UNL     1      -3.465   1.917  23.225  0.00  0.00    +0.016 C 
ATOM      9  C   UNL     1      -2.790   1.904  22.750  0.00  0.00    +0.001 C 
ATOM     10  C   UNL     1      -2.058   2.115  23.068  0.00  0.00    +0.000 C 
ATOM     11  C   UNL     1      -2.002   2.339  23.860  0.00  0.00    +0.001 C 
ATOM     12  C   UNL     1      -2.677   2.352  24.334  0.00  0.00    +0.016 C 
ENDBRANCH   5   7
BRANCH   4  13
ATOM     13  C   UNL     1      -4.013   0.789  25.032  0.00  0.00    +0.251 A 
ATOM     14  N   UNL     1      -4.254   0.100  24.648  0.00  0.00    -0.188 NA
ATOM     15  C   UNL     1      -3.752  -0.511  24.882  0.00  0.00    +0.221 A 
ATOM     16  N   UNL     1      -3.200  -0.200  25.410  0.00  0.00    -0.054 NA
ATOM     17  O   UNL     1      -3.361   0.604  25.503  0.00  0.00    -0.336 OA
BRANCH  15  18
ATOM     18  C   UNL     1      -3.794  -1.297  24.632  0.00  0.00    +0.120 A 
ATOM     19  N   UNL     1      -4.230  -1.493  23.960  0.00  0.00    -0.241 NA
ATOM     20  C   UNL     1      -4.272  -2.277  23.710  0.00  0.00    +0.099 A 
ATOM     21  C   UNL     1      -3.879  -2.867  24.133  0.00  0.00    +0.021 A 
ATOM     22  C   UNL     1      -3.444  -2.671  24.805  0.00  0.00    +0.003 A 
ATOM     23  C   UNL     1      -3.401  -1.886  25.055  0.00  0.00    +0.022 A 
ENDBRANCH  15  18
ENDBRANCH   4  13
TORSDOF 3
ENDMDL
MODEL 4
REMARK VINA RESULT:     -10.7      1.151      2.252
REMARK  Name = 
REMARK  3 active torsions:
REMARK  status: ('A' for Active; 'I' for Inactive)
REMARK    1  A    between atoms: C_4  and  C_13
REMARK    2  A    between atoms: N_5  and  C_7
REMARK    3  A    between atoms: C_15  and  C_18
REMARK                            x       y       z     vdW  Elec       q    Type
REMARK                         _______ _______ _______ _____ _____    ______ ____
ROOT
ATOM      1  O   UNL     1      -4.347  -2.913  23.873  0.00  0.00    -0.222 OA
ATOM      2  C   UNL     1      -3.981  -2.202  24.075  0.00  0.00    +0.170 C 
ATOM      3  C   UNL     1      -4.279  -1.447  23.932  0.00  0.00    +0.060 C 
ATOM      4  C   UNL     1      -3.735  -0.899  24.225  0.00  0.00    +0.140 C 
ATOM      5  N   UNL     1      -3.102  -1.318  24.549  0.00  0.00    -0.265 NA
ATOM      6  C   UNL     1      -3.255  -2.123  24.457  0.00  0.00    +0.106 C 
ENDROOT
BRANCH   5   7
ATOM      7  C   UNL     1      -2.434  -0.989  24.904  0.00  0.00    +0.058 C 
ATOM      8  C   UNL     1      -1.776  -0.796  24.444  0.00  0.00    +0.016 C 
ATOM      9  C   UNL     1      -1.107  -0.466  24.798  0.00  0.00    +0.001 C 
ATOM     10  C   UNL     1      -1.097  -0.331  25.612  0.00  0.00    +0.000 C 
ATOM     11  C   UNL     1      -1.754  -0.524  26.071  0.00  0.00    +0.001 C 
ATOM     12  C   UNL     1      -2.423  -0.853  25.717  0.00  0.00    +0.016 C 
ENDBRANCH   5   7
BRANCH   4  13
ATOM     13  C   UNL     1      -3.811  -0.079  24.198  0.00  0.00    +0.251 A 
ATOM     14  N   UNL     1      -4.239   0.387  24.728  0.00  0.00    -0.188 NA
ATOM     15  C   UNL     1      -4.165   1.174  24.493  0.00  0.00    +0.221 A 
ATOM     16  N   UNL     1      -3.690   1.196  23.819  0.00  0.00    -0.054 NA
ATOM     17  O   UNL     1      -3.471   0.422  23.636  0.00  0.00    -0.336 OA
BRANCH  15  18
ATOM     18  C   UNL     1      -4.505   1.826  24.868  0.00  0.00    +0.120 A 
ATOM     19  N   UNL     1      -5.303   1.812  25.077  0.00  0.00    -0.241 NA
ATOM     20  C   UNL     1      -5.643   2.463  25.451  0.00  0.00    +0.099 A 
ATOM     21  C   UNL     1      -5.186   3.129  25.617  0.00  0.00    +0.021 A 
ATOM     22  C   UNL     1      -4.388   3.144  25.408  0.00  0.00    +0.003 A 
ATOM     23  C   UNL     1      -4.047   2.492  25.033  0.00  0.00    +0.022 A 
ENDBRANCH  15  18
ENDBRANCH   4  13
TORSDOF 3
ENDMDL
MODEL 5
REMARK VINA RESULT:     -10.6      1.551      3.554
REMARK  Name = 
REMARK  3 active torsions:
REMARK  status: ('A' for Active; 'I' for Inactive)
REMARK    1  A    between atoms: C_4  and  C_13
REMARK    2  A    between atoms: N_5  and  C_7
REMARK    3  A    between atoms: C_15  and  C_18
REMARK                            x       y       z     vdW  Elec       q    Type
REMARK                         _______ _______ _______ _____ _____    ______ ____
ROOT
ATOM      1  O   UNL     1       0.534   1.971  24.287  0.00  0.00    -0.222 OA
ATOM      2  C   UNL     1      -0.274   1.811  24.343  0.00  0.00    +0.170 C 
ATOM      3  C   UNL     1      -0.610   1.111  24.622  0.00  0.00    +0.060 C 
ATOM      4  C   UNL     1      -1.431   1.190  24.581  0.00  0.00    +0.140 C 
ATOM      5  N   UNL     1      -1.600   1.938  24.276  0.00  0.00    -0.265 NA
ATOM      6  C   UNL     1      -0.884   2.322  24.130  0.00  0.00    +0.106 C 
ENDROOT
BRANCH   5   7
ATOM      7  C   UNL     1      -2.353   2.248  24.143  0.00  0.00    +0.058 C 
ATOM      8  C   UNL     1      -2.708   2.163  23.403  0.00  0.00    +0.016 C 
ATOM      9  C   UNL     1      -3.461   2.473  23.268  0.00  0.00    +0.001 C 
ATOM     10  C   UNL     1      -3.858   2.869  23.874  0.00  0.00    +0.000 C 
ATOM     11  C   UNL     1      -3.502   2.954  24.613  0.00  0.00    +0.001 C 
ATOM     12  C   UNL     1      -2.749   2.644  24.747  0.00  0.00    +0.016 C 
ENDBRANCH   5   7
BRANCH   4  13
ATOM     13  C   UNL     1      -1.984   0.621  24.804  0.00  0.00    +0.251 A 
ATOM     14  N   UNL     1      -2.225  -0.025  24.352  0.00  0.00    -0.188 NA
ATOM     15  C   UNL     1      -2.784  -0.448  24.789  0.00  0.00    +0.221 A 
ATOM     16  N   UNL     1      -2.888  -0.063  25.510  0.00  0.00    -0.054 NA
ATOM     17  O   UNL     1      -2.394   0.598  25.521  0.00  0.00    -0.336 OA
BRANCH  15  18
ATOM     18  C   UNL     1      -3.171  -1.135  24.545  0.00  0.00    +0.120 A 
ATOM     19  N   UNL     1      -2.837  -1.873  24.700  0.00  0.00    -0.241 NA
ATOM     20  C   UNL     1      -3.223  -2.560  24.457  0.00  0.00    +0.099 A 
ATOM     21  C   UNL     1      -3.944  -2.509  24.059  0.00  0.00    +0.021 A 
ATOM     22  C   UNL     1      -4.278  -1.771  23.904  0.00  0.00    +0.003 A 
ATOM     23  C   UNL     1      -3.891  -1.084  24.147  0.00  0.00    +0.022 A 
ENDBRANCH  15  18
ENDBRANCH   4  13
TORSDOF 3
ENDMDL
MODEL 6
REMARK VINA RESULT:     -10.6      1.691      2.154
REMARK  Name = 
REMARK  3 active torsions:
REMARK  status: ('A' for Active; 'I' for Inactive)
REMARK    1  A    between atoms: C_4  and  C_13
REMARK    2  A    between atoms: N_5  and  C_7
REMARK    3  A    between atoms: C_15  and  C_18
REMARK                            x       y       z     vdW  Elec       q    Type
REMARK                         _______ _______ _______ _____ _____    ______ ____
ROOT
ATOM      1  O   UNL     1      -0.223  -1.758  25.383  0.00  0.00    -0.222 OA
ATOM      2  C   UNL     1      -0.814  -1.221  25.181  0.00  0.00    +0.170 C 
ATOM      3  C   UNL     1      -0.701  -0.428  24.982  0.00  0.00    +0.060 C 
ATOM      4  C   UNL     1      -1.440  -0.098  24.820  0.00  0.00    +0.140 C 
ATOM      5  N   UNL     1      -2.009  -0.687  24.918  0.00  0.00    -0.265 NA
ATOM      6  C   UNL     1      -1.622  -1.381  25.141  0.00  0.00    +0.106 C 
ENDROOT
BRANCH   5   7
ATOM      7  C   UNL     1      -2.822  -0.599  24.812  0.00  0.00    +0.058 C 
ATOM      8  C   UNL     1      -3.302  -0.400  25.454  0.00  0.00    +0.016 C 
ATOM      9  C   UNL     1      -4.116  -0.311  25.348  0.00  0.00    +0.001 C 
ATOM     10  C   UNL     1      -4.449  -0.422  24.601  0.00  0.00    +0.000 C 
ATOM     11  C   UNL     1      -3.969  -0.621  23.961  0.00  0.00    +0.001 C 
ATOM     12  C   UNL     1      -3.155  -0.709  24.066  0.00  0.00    +0.016 C 
ENDBRANCH   5   7
BRANCH   4  13
ATOM     13  C   UNL     1      -1.584   0.683  24.598  0.00  0.00    +0.251 A 
ATOM     14  N   UNL     1      -1.668   1.325  25.110  0.00  0.00    -0.188 NA
ATOM     15  C   UNL     1      -1.805   1.998  24.653  0.00  0.00    +0.221 A 
ATOM     16  N   UNL     1      -1.806   1.773  23.860  0.00  0.00    -0.054 NA
ATOM     17  O   UNL     1      -1.669   0.960  23.825  0.00  0.00    -0.336 OA
BRANCH  15  18
ATOM     18  C   UNL     1      -1.922   2.764  24.940  0.00  0.00    +0.120 A 
ATOM     19  N   UNL     1      -2.687   3.059  25.029  0.00  0.00    -0.241 NA
ATOM     20  C   UNL     1      -2.802   3.823  25.316  0.00  0.00    +0.099 A 
ATOM     21  C   UNL     1      -2.154   4.293  25.514  0.00  0.00    +0.021 A 
ATOM     22  C   UNL     1      -1.389   3.998  25.425  0.00  0.00    +0.003 A 
ATOM     23  C   UNL     1      -1.272   3.232  25.138  0.00  0.00    +0.022 A 
ENDBRANCH  15  18
ENDBRANCH   4  13
TORSDOF 3
ENDMDL
