REMARK  Name = 
REMARK  6 active torsions:
REMARK  status: ('A' for Active; 'I' for Inactive)
REMARK    1  A    between atoms: C_2  and  C_5
REMARK    2  A    between atoms: C_7  and  C_8
REMARK    3  A    between atoms: C_8  and  C_9
REMARK    4  A    between atoms: C_9  and  N_13
REMARK    5  A    between atoms: N_13  and  C_14
REMARK    6  A    between atoms: C_14  and  C_15
REMARK                            x       y       z     vdW  Elec       q    Type
REMARK                         _______ _______ _______ _____ _____    ______ ____
ROOT
ATOM      9  C   UNL     1       2.621  -1.677   0.000  0.00  0.00    +0.120 C 
ATOM     10  C   UNL     1       3.205  -2.261   0.000  0.00  0.00    +0.161 C 
ATOM     11  O   UNL     1       2.621  -2.844   0.000  0.00  0.00    -0.351 OA
ATOM     12  C   UNL     1       2.038  -2.261   0.000  0.00  0.00    +0.161 C 
ENDROOT
BRANCH   9   8
ATOM      8  C   UNL     1       2.038  -1.094   0.000  0.00  0.00    +0.070 C 
BRANCH   8   7
ATOM      5  C   UNL     1      -0.092  -1.238   0.000  0.00  0.00    +0.153 A 
ATOM      6  C   UNL     1       0.600  -0.788   0.000  0.00  0.00    +0.054 A 
ATOM      7  C   UNL     1       1.241  -1.307   0.000  0.00  0.00    +0.102 A 
ATOM     20  N   UNL     1       0.945  -2.078   0.000  0.00  0.00    -0.082 NA
ATOM     21  O   UNL     1       0.121  -2.034   0.000  0.00  0.00    -0.358 OA
BRANCH   5   2
ATOM      1  C   UNL     1      -1.633  -0.646   0.000  0.00  0.00    +0.008 C 
ATOM      2  C   UNL     1      -0.862  -0.942   0.000  0.00  0.00    +0.054 C 
ATOM      3  C   UNL     1      -1.158  -1.712   0.000  0.00  0.00    +0.008 C 
ATOM      4  C   UNL     1      -0.567  -0.172   0.000  0.00  0.00    +0.008 C 
ENDBRANCH   5   2
ENDBRANCH   8   7
ENDBRANCH   9   8
BRANCH   9  13
ATOM     13  N   UNL     1       3.205  -1.094   0.000  0.00  0.00    -0.207 NA
BRANCH  13  14
ATOM     14  C   UNL     1       2.991  -0.297   0.000  0.00  0.00    +0.153 C 
BRANCH  14  15
ATOM     15  C   UNL     1       3.575   0.286   0.000  0.00  0.00    +0.141 A 
ATOM     16  C   UNL     1       3.445   1.101   0.000  0.00  0.00    +0.038 A 
ATOM     17  C   UNL     1       4.181   1.476   0.000  0.00  0.00    +0.043 A 
ATOM     18  C   UNL     1       4.764   0.892   0.000  0.00  0.00    +0.179 A 
ATOM     19  O   UNL     1       4.389   0.157   0.000  0.00  0.00    -0.453 OA
ENDBRANCH  14  15
ENDBRANCH  13  14
ENDBRANCH   9  13
TORSDOF 6
