MODEL 1
REMARK VINA RESULT:     -10.6      0.000      0.000
REMARK  Name = 
REMARK  8 active torsions:
REMARK  status: ('A' for Active; 'I' for Inactive)
REMARK    1  A    between atoms: O_2  and  C_3
REMARK    2  A    between atoms: C_3  and  C_4
REMARK    3  A    between atoms: C_4  and  C_5
REMARK    4  A    between atoms: N_7  and  C_8
REMARK    5  A    between atoms: C_15  and  C_16
REMARK    6  A    between atoms: C_16  and  C_18
REMARK    7  A    between atoms: N_20  and  C_21
REMARK    8  A    between atoms: C_21  and  C_22
REMARK                            x       y       z     vdW  Elec       q    Type
REMARK                         _______ _______ _______ _____ _____    ______ ____
ROOT
ATOM      8  C   UNL     1      -4.145  -0.250  24.409  0.00  0.00    +0.095 C 
ATOM      9  C   UNL     1      -4.767  -0.317  24.945  0.00  0.00    +0.022 C 
ATOM     10  C   UNL     1      -5.134   0.362  25.239  0.00  0.00    +0.002 C 
ATOM     11  C   UNL     1      -4.877   1.107  24.995  0.00  0.00    +0.002 C 
ATOM     12  C   UNL     1      -5.500   1.040  25.533  0.00  0.00    +0.000 C 
ATOM     13  C   UNL     1      -5.243   1.786  25.289  0.00  0.00    +0.000 C 
ATOM     14  C   UNL     1      -4.986   2.531  25.046  0.00  0.00    +0.003 C 
ATOM     15  C   UNL     1      -4.364   2.598  24.509  0.00  0.00    +0.039 C 
ATOM     27  C   UNL     1      -3.998   1.920  24.215  0.00  0.00    +0.152 C 
ATOM     28  O   UNL     1      -3.375   1.987  23.679  0.00  0.00    -0.223 OA
ATOM     29  C   UNL     1      -4.255   1.174  24.459  0.00  0.00    +0.032 C 
ATOM     30  C   UNL     1      -3.888   0.496  24.165  0.00  0.00    +0.022 C 
ATOM     31  C   UNL     1      -3.265   0.563  23.628  0.00  0.00    +0.002 C 
ENDROOT
BRANCH   8   7
ATOM      5  C   UNL     1      -3.568  -1.539  24.629  0.00  0.00    +0.244 C 
ATOM      6  O   UNL     1      -3.725  -1.471  25.436  0.00  0.00    -0.273 OA
ATOM      7  N   UNL     1      -3.778  -0.928  24.115  0.00  0.00    -0.207 NA
BRANCH   5   4
ATOM      4  C   UNL     1      -3.202  -2.217  24.336  0.00  0.00    +0.119 C 
BRANCH   4   3
ATOM      3  C   UNL     1      -2.491  -2.476  24.665  0.00  0.00    +0.152 C 
BRANCH   3   2
ATOM      1  C   UNL     1      -1.115  -2.747  24.389  0.00  0.00    +0.174 C 
ATOM      2  O   UNL     1      -1.912  -2.812  24.183  0.00  0.00    -0.351 OA
ENDBRANCH   3   2
ENDBRANCH   4   3
ENDBRANCH   5   4
ENDBRANCH   8   7
BRANCH  15  16
ATOM     16  C   UNL     1      -4.107   3.343  24.266  0.00  0.00    +0.081 C 
ATOM     17  C   UNL     1      -4.249   3.597  23.494  0.00  0.00    +0.010 C 
BRANCH  16  18
ATOM     18  C   UNL     1      -3.707   3.834  24.795  0.00  0.00    +0.241 C 
ATOM     19  O   UNL     1      -4.123   4.220  25.393  0.00  0.00    -0.273 OA
ATOM     20  N   UNL     1      -2.891   3.940  24.725  0.00  0.00    -0.200 NA
BRANCH  20  21
ATOM     21  C   UNL     1      -2.492   4.431  25.254  0.00  0.00    +0.148 C 
BRANCH  21  22
ATOM     22  C   UNL     1      -1.693   4.597  25.138  0.00  0.00    +0.029 A 
ATOM     23  C   UNL     1      -1.372   5.339  24.969  0.00  0.00    +0.004 A 
ATOM     24  C   UNL     1      -0.555   5.252  24.897  0.00  0.00    +0.007 A 
ATOM     25  C   UNL     1      -0.370   4.457  25.021  0.00  0.00    +0.035 A 
ATOM     26  S   UNL     1      -1.073   4.052  25.169  0.00  0.00    -0.089 S 
ENDBRANCH  21  22
ENDBRANCH  20  21
ENDBRANCH  16  18
ENDBRANCH  15  16
TORSDOF 8
ENDMDL
MODEL 2
REMARK VINA RESULT:     -10.2      1.513      4.892
REMARK  Name = 
REMARK  8 active torsions:
REMARK  status: ('A' for Active; 'I' for Inactive)
REMARK    1  A    between atoms: O_2  and  C_3
REMARK    2  A    between atoms: C_3  and  C_4
REMARK    3  A    between atoms: C_4  and  C_5
REMARK    4  A    between atoms: N_7  and  C_8
REMARK    5  A    between atoms: C_15  and  C_16
REMARK    6  A    between atoms: C_16  and  C_18
REMARK    7  A    between atoms: N_20  and  C_21
REMARK    8  A    between atoms: C_21  and  C_22
REMARK                            x       y       z     vdW  Elec       q    Type
REMARK                         _______ _______ _______ _____ _____    ______ ____
ROOT
ATOM      8  C   UNL     1      -3.788   2.994  24.702  0.00  0.00    +0.095 C 
ATOM      9  C   UNL     1      -4.454   3.056  25.183  0.00  0.00    +0.022 C 
ATOM     10  C   UNL     1      -4.903   2.385  25.355  0.00  0.00    +0.002 C 
ATOM     11  C   UNL     1      -4.684   1.652  25.046  0.00  0.00    +0.002 C 
ATOM     12  C   UNL     1      -5.351   1.714  25.528  0.00  0.00    +0.000 C 
ATOM     13  C   UNL     1      -5.132   0.981  25.219  0.00  0.00    +0.000 C 
ATOM     14  C   UNL     1      -4.913   0.248  24.909  0.00  0.00    +0.003 C 
ATOM     15  C   UNL     1      -4.247   0.186  24.428  0.00  0.00    +0.039 C 
ATOM     27  C   UNL     1      -3.798   0.857  24.256  0.00  0.00    +0.152 C 
ATOM     28  O   UNL     1      -3.131   0.794  23.774  0.00  0.00    -0.223 OA
ATOM     29  C   UNL     1      -4.017   1.590  24.565  0.00  0.00    +0.032 C 
ATOM     30  C   UNL     1      -3.569   2.260  24.392  0.00  0.00    +0.022 C 
ATOM     31  C   UNL     1      -2.902   2.198  23.911  0.00  0.00    +0.002 C 
ENDROOT
BRANCH   8   7
ATOM      5  C   UNL     1      -3.003   4.104  25.141  0.00  0.00    +0.244 C 
ATOM      6  O   UNL     1      -3.115   3.874  25.924  0.00  0.00    -0.273 OA
ATOM      7  N   UNL     1      -3.340   3.664  24.529  0.00  0.00    -0.207 NA
BRANCH   5   4
ATOM      4  C   UNL     1      -2.555   4.775  24.968  0.00  0.00    +0.119 C 
BRANCH   4   3
ATOM      3  C   UNL     1      -1.811   4.873  25.313  0.00  0.00    +0.152 C 
BRANCH   3   2
ATOM      1  C   UNL     1      -0.553   5.296  24.785  0.00  0.00    +0.174 C 
ATOM      2  O   UNL     1      -1.313   5.476  25.052  0.00  0.00    -0.351 OA
ENDBRANCH   3   2
ENDBRANCH   4   3
ENDBRANCH   5   4
ENDBRANCH   8   7
BRANCH  15  16
ATOM     16  C   UNL     1      -4.027  -0.546  24.119  0.00  0.00    +0.081 C 
ATOM     17  C   UNL     1      -4.177  -0.722  23.327  0.00  0.00    +0.010 C 
BRANCH  16  18
ATOM     18  C   UNL     1      -3.658  -1.104  24.603  0.00  0.00    +0.241 C 
ATOM     19  O   UNL     1      -4.105  -1.555  25.128  0.00  0.00    -0.273 OA
ATOM     20  N   UNL     1      -2.840  -1.210  24.560  0.00  0.00    -0.200 NA
BRANCH  20  21
ATOM     21  C   UNL     1      -2.471  -1.767  25.044  0.00  0.00    +0.148 C 
BRANCH  21  22
ATOM     22  C   UNL     1      -1.649  -1.781  25.103  0.00  0.00    +0.029 A 
ATOM     23  C   UNL     1      -1.192  -1.324  25.617  0.00  0.00    +0.004 A 
ATOM     24  C   UNL     1      -0.400  -1.513  25.491  0.00  0.00    +0.007 A 
ATOM     25  C   UNL     1      -0.365  -2.088  24.899  0.00  0.00    +0.035 A 
ATOM     26  S   UNL     1      -1.137  -2.253  24.659  0.00  0.00    -0.089 S 
ENDBRANCH  21  22
ENDBRANCH  20  21
ENDBRANCH  16  18
ENDBRANCH  15  16
TORSDOF 8
ENDMDL
MODEL 3
REMARK VINA RESULT:      -9.9      2.756      4.118
REMARK  Name = 
REMARK  8 active torsions:
REMARK  status: ('A' for Active; 'I' for Inactive)
REMARK    1  A    between atoms: O_2  and  C_3
REMARK    2  A    between atoms: C_3  and  C_4
REMARK    3  A    between atoms: C_4  and  C_5
REMARK    4  A    between atoms: N_7  and  C_8
REMARK    5  A    between atoms: C_15  and  C_16
REMARK    6  A    between atoms: C_16  and  C_18
REMARK    7  A    between atoms: N_20  and  C_21
REMARK    8  A    between atoms: C_21  and  C_22
REMARK                            x       y       z     vdW  Elec       q    Type
REMARK                         _______ _______ _______ _____ _____    ______ ____
ROOT
ATOM      8  C   UNL     1      -0.425   0.176  24.132  0.00  0.00    +0.095 C 
ATOM      9  C   UNL     1      -0.238  -0.362  24.727  0.00  0.00    +0.022 C 
ATOM     10  C   UNL     1      -0.840  -0.711  25.172  0.00  0.00    +0.002 C 
ATOM     11  C   UNL     1      -1.628  -0.520  25.020  0.00  0.00    +0.002 C 
ATOM     12  C   UNL     1      -1.441  -1.060  25.617  0.00  0.00    +0.000 C 
ATOM     13  C   UNL     1      -2.230  -0.869  25.465  0.00  0.00    +0.000 C 
ATOM     14  C   UNL     1      -3.018  -0.678  25.313  0.00  0.00    +0.003 C 
ATOM     15  C   UNL     1      -3.204  -0.139  24.718  0.00  0.00    +0.039 C 
ATOM     27  C   UNL     1      -2.603   0.210  24.273  0.00  0.00    +0.152 C 
ATOM     28  O   UNL     1      -2.790   0.749  23.677  0.00  0.00    -0.223 OA
ATOM     29  C   UNL     1      -1.815   0.019  24.425  0.00  0.00    +0.032 C 
ATOM     30  C   UNL     1      -1.214   0.367  23.981  0.00  0.00    +0.022 C 
ATOM     31  C   UNL     1      -1.400   0.906  23.385  0.00  0.00    +0.002 C 
ENDROOT
BRANCH   8   7
ATOM      5  C   UNL     1       0.760   0.054  23.343  0.00  0.00    +0.244 C 
ATOM      6  O   UNL     1       0.742  -0.764  23.442  0.00  0.00    -0.273 OA
ATOM      7  N   UNL     1       0.176   0.525  23.688  0.00  0.00    -0.207 NA
BRANCH   5   4
ATOM      4  C   UNL     1       1.361   0.402  22.898  0.00  0.00    +0.119 C 
BRANCH   4   3
ATOM      3  C   UNL     1       2.082   0.012  22.802  0.00  0.00    +0.152 C 
BRANCH   3   2
ATOM      1  C   UNL     1       3.443   0.378  22.565  0.00  0.00    +0.174 C 
ATOM      2  O   UNL     1       2.660   0.330  22.307  0.00  0.00    -0.351 OA
ENDBRANCH   3   2
ENDBRANCH   4   3
ENDBRANCH   5   4
ENDBRANCH   8   7
BRANCH  15  16
ATOM     16  C   UNL     1      -3.992   0.052  24.566  0.00  0.00    +0.081 C 
ATOM     17  C   UNL     1      -4.343  -0.175  23.854  0.00  0.00    +0.010 C 
BRANCH  16  18
ATOM     18  C   UNL     1      -4.430   0.472  25.126  0.00  0.00    +0.241 C 
ATOM     19  O   UNL     1      -4.728   0.085  25.790  0.00  0.00    -0.273 OA
ATOM     20  N   UNL     1      -4.569   1.279  25.022  0.00  0.00    -0.200 NA
BRANCH  20  21
ATOM     21  C   UNL     1      -5.006   1.697  25.582  0.00  0.00    +0.148 C 
BRANCH  21  22
ATOM     22  C   UNL     1      -5.052   2.520  25.537  0.00  0.00    +0.029 A 
ATOM     23  C   UNL     1      -4.412   3.039  25.494  0.00  0.00    +0.004 A 
ATOM     24  C   UNL     1      -4.709   3.808  25.458  0.00  0.00    +0.007 A 
ATOM     25  C   UNL     1      -5.533   3.764  25.480  0.00  0.00    +0.035 A 
ATOM     26  S   UNL     1      -5.745   2.969  25.529  0.00  0.00    -0.089 S 
ENDBRANCH  21  22
ENDBRANCH  20  21
ENDBRANCH  16  18
ENDBRANCH  15  16
TORSDOF 8
ENDMDL
MODEL 4
REMARK VINA RESULT:      -9.6      2.804      4.240
REMARK  Name = 
REMARK  8 active torsions:
REMARK  status: ('A' for Active; 'I' for Inactive)
REMARK    1  A    between atoms: O_2  and  C_3
REMARK    2  A    between atoms: C_3  and  C_4
REMARK    3  A    between atoms: C_4  and  C_5
REMARK    4  A    between atoms: N_7  and  C_8
REMARK    5  A    between atoms: C_15  and  C_16
REMARK    6  A    between atoms: C_16  and  C_18
REMARK    7  A    between atoms: N_20  and  C_21
REMARK    8  A    between atoms: C_21  and  C_22
REMARK                            x       y       z     vdW  Elec       q    Type
REMARK                         _______ _______ _______ _____ _____    ______ ____
ROOT
ATOM      8  C   UNL     1      -0.297   1.448  24.428  0.00  0.00    +0.095 C 
ATOM      9  C   UNL     1       0.114   1.591  25.127  0.00  0.00    +0.022 C 
ATOM     10  C   UNL     1      -0.163   2.159  25.660  0.00  0.00    +0.002 C 
ATOM     11  C   UNL     1      -0.851   2.581  25.490  0.00  0.00    +0.002 C 
ATOM     12  C   UNL     1      -0.439   2.725  26.192  0.00  0.00    +0.000 C 
ATOM     13  C   UNL     1      -1.128   3.148  26.023  0.00  0.00    +0.000 C 
ATOM     14  C   UNL     1      -1.815   3.571  25.853  0.00  0.00    +0.003 C 
ATOM     15  C   UNL     1      -2.226   3.427  25.153  0.00  0.00    +0.039 C 
ATOM     27  C   UNL     1      -1.950   2.861  24.621  0.00  0.00    +0.152 C 
ATOM     28  O   UNL     1      -2.361   2.717  23.921  0.00  0.00    -0.223 OA
ATOM     29  C   UNL     1      -1.261   2.438  24.790  0.00  0.00    +0.032 C 
ATOM     30  C   UNL     1      -0.985   1.871  24.258  0.00  0.00    +0.022 C 
ATOM     31  C   UNL     1      -1.396   1.727  23.558  0.00  0.00    +0.002 C 
ENDROOT
BRANCH   8   7
ATOM      5  C   UNL     1       0.779   0.864  23.691  0.00  0.00    +0.244 C 
ATOM      6  O   UNL     1       1.301   1.412  24.018  0.00  0.00    -0.273 OA
ATOM      7  N   UNL     1      -0.020   0.881  23.895  0.00  0.00    -0.207 NA
BRANCH   5   4
ATOM      4  C   UNL     1       1.056   0.297  23.158  0.00  0.00    +0.119 C 
BRANCH   4   3
ATOM      3  C   UNL     1       1.839   0.324  22.898  0.00  0.00    +0.152 C 
BRANCH   3   2
ATOM      1  C   UNL     1       2.834  -0.026  21.934  0.00  0.00    +0.174 C 
ATOM      2  O   UNL     1       2.055  -0.067  22.204  0.00  0.00    -0.351 OA
ENDBRANCH   3   2
ENDBRANCH   4   3
ENDBRANCH   5   4
ENDBRANCH   8   7
BRANCH  15  16
ATOM     16  C   UNL     1      -2.914   3.850  24.984  0.00  0.00    +0.081 C 
ATOM     17  C   UNL     1      -2.936   4.360  24.336  0.00  0.00    +0.010 C 
BRANCH  16  18
ATOM     18  C   UNL     1      -3.580   3.762  25.464  0.00  0.00    +0.241 C 
ATOM     19  O   UNL     1      -3.625   4.160  26.184  0.00  0.00    -0.273 OA
ATOM     20  N   UNL     1      -4.201   3.275  25.221  0.00  0.00    -0.200 NA
BRANCH  20  21
ATOM     21  C   UNL     1      -4.867   3.187  25.701  0.00  0.00    +0.148 C 
BRANCH  21  22
ATOM     22  C   UNL     1      -5.410   2.586  25.545  0.00  0.00    +0.029 A 
ATOM     23  C   UNL     1      -5.659   2.340  24.798  0.00  0.00    +0.004 A 
ATOM     24  C   UNL     1      -6.202   1.727  24.899  0.00  0.00    +0.007 A 
ATOM     25  C   UNL     1      -6.289   1.594  25.709  0.00  0.00    +0.035 A 
ATOM     26  S   UNL     1      -5.799   2.125  26.108  0.00  0.00    -0.089 S 
ENDBRANCH  21  22
ENDBRANCH  20  21
ENDBRANCH  16  18
ENDBRANCH  15  16
TORSDOF 8
ENDMDL
MODEL 5
REMARK VINA RESULT:      -9.3      2.308      3.642
REMARK  Name = 
REMARK  8 active torsions:
REMARK  status: ('A' for Active; 'I' for Inactive)
REMARK    1  A    between atoms: O_2  and  C_3
REMARK    2  A    between atoms: C_3  and  C_4
REMARK    3  A    between atoms: C_4  and  C_5
REMARK    4  A    between atoms: N_7  and  C_8
REMARK    5  A    between atoms: C_15  and  C_16
REMARK    6  A    between atoms: C_16  and  C_18
REMARK    7  A    between atoms: N_20  and  C_21
REMARK    8  A    between atoms: C_21  and  C_22
REMARK                            x       y       z     vdW  Elec       q    Type
REMARK                         _______ _______ _______ _____ _____    ______ ____
ROOT
ATOM      8  C   UNL     1      -0.695  -0.686  24.681  0.00  0.00    +0.095 C 
ATOM      9  C   UNL     1      -0.253  -0.630  23.988  0.00  0.00    +0.022 C 
ATOM     10  C   UNL     1       0.081   0.093  23.768  0.00  0.00    +0.002 C 
ATOM     11  C   UNL     1      -0.029   0.758  24.243  0.00  0.00    +0.002 C 
ATOM     12  C   UNL     1       0.414   0.815  23.549  0.00  0.00    +0.000 C 
ATOM     13  C   UNL     1       0.304   1.481  24.024  0.00  0.00    +0.000 C 
ATOM     14  C   UNL     1       0.194   2.146  24.499  0.00  0.00    +0.003 C 
ATOM     15  C   UNL     1      -0.248   2.090  25.192  0.00  0.00    +0.039 C 
ATOM     27  C   UNL     1      -0.581   1.368  25.412  0.00  0.00    +0.152 C 
ATOM     28  O   UNL     1      -1.024   1.311  26.106  0.00  0.00    -0.223 OA
ATOM     29  C   UNL     1      -0.471   0.702  24.937  0.00  0.00    +0.032 C 
ATOM     30  C   UNL     1      -0.805  -0.020  25.156  0.00  0.00    +0.022 C 
ATOM     31  C   UNL     1      -1.247  -0.077  25.850  0.00  0.00    +0.002 C 
ENDROOT
BRANCH   8   7
ATOM      5  C   UNL     1      -1.544  -1.797  24.386  0.00  0.00    +0.244 C 
ATOM      6  O   UNL     1      -1.726  -1.464  23.655  0.00  0.00    -0.273 OA
ATOM      7  N   UNL     1      -1.028  -1.408  24.900  0.00  0.00    -0.207 NA
BRANCH   5   4
ATOM      4  C   UNL     1      -1.877  -2.519  24.606  0.00  0.00    +0.119 C 
BRANCH   4   3
ATOM      3  C   UNL     1      -2.596  -2.758  24.277  0.00  0.00    +0.152 C 
BRANCH   3   2
ATOM      1  C   UNL     1      -3.939  -3.208  24.463  0.00  0.00    +0.174 C 
ATOM      2  O   UNL     1      -3.175  -3.099  24.755  0.00  0.00    -0.351 OA
ENDBRANCH   3   2
ENDBRANCH   4   3
ENDBRANCH   5   4
ENDBRANCH   8   7
BRANCH  15  16
ATOM     16  C   UNL     1      -0.358   2.755  25.667  0.00  0.00    +0.081 C 
ATOM     17  C   UNL     1       0.011   2.802  26.404  0.00  0.00    +0.010 C 
BRANCH  16  18
ATOM     18  C   UNL     1      -0.837   3.374  25.405  0.00  0.00    +0.241 C 
ATOM     19  O   UNL     1      -0.506   4.006  24.993  0.00  0.00    -0.273 OA
ATOM     20  N   UNL     1      -1.649   3.360  25.556  0.00  0.00    -0.200 NA
BRANCH  20  21
ATOM     21  C   UNL     1      -2.128   3.978  25.294  0.00  0.00    +0.148 C 
BRANCH  21  22
ATOM     22  C   UNL     1      -2.948   3.897  25.308  0.00  0.00    +0.029 A 
ATOM     23  C   UNL     1      -3.427   3.923  25.980  0.00  0.00    +0.004 A 
ATOM     24  C   UNL     1      -4.209   3.818  25.740  0.00  0.00    +0.007 A 
ATOM     25  C   UNL     1      -4.215   3.727  24.920  0.00  0.00    +0.035 A 
ATOM     26  S   UNL     1      -3.436   3.775  24.653  0.00  0.00    -0.089 S 
ENDBRANCH  21  22
ENDBRANCH  20  21
ENDBRANCH  16  18
ENDBRANCH  15  16
TORSDOF 8
ENDMDL
MODEL 6
REMARK VINA RESULT:      -9.3      2.305      5.603
REMARK  Name = 
REMARK  8 active torsions:
REMARK  status: ('A' for Active; 'I' for Inactive)
REMARK    1  A    between atoms: O_2  and  C_3
REMARK    2  A    between atoms: C_3  and  C_4
REMARK    3  A    between atoms: C_4  and  C_5
REMARK    4  A    between atoms: N_7  and  C_8
REMARK    5  A    between atoms: C_15  and  C_16
REMARK    6  A    between atoms: C_16  and  C_18
REMARK    7  A    between atoms: N_20  and  C_21
REMARK    8  A    between atoms: C_21  and  C_22
REMARK                            x       y       z     vdW  Elec       q    Type
REMARK                         _______ _______ _______ _____ _____    ______ ____
ROOT
ATOM      8  C   UNL     1      -2.252   3.099  25.035  0.00  0.00    +0.095 C 
ATOM      9  C   UNL     1      -1.711   3.354  25.602  0.00  0.00    +0.022 C 
ATOM     10  C   UNL     1      -1.031   2.911  25.753  0.00  0.00    +0.002 C 
ATOM     11  C   UNL     1      -0.894   2.212  25.337  0.00  0.00    +0.002 C 
ATOM     12  C   UNL     1      -0.352   2.468  25.905  0.00  0.00    +0.000 C 
ATOM     13  C   UNL     1      -0.214   1.768  25.488  0.00  0.00    +0.000 C 
ATOM     14  C   UNL     1      -0.078   1.069  25.072  0.00  0.00    +0.003 C 
ATOM     15  C   UNL     1      -0.619   0.814  24.505  0.00  0.00    +0.039 C 
ATOM     27  C   UNL     1      -1.298   1.257  24.354  0.00  0.00    +0.152 C 
ATOM     28  O   UNL     1      -1.840   1.001  23.786  0.00  0.00    -0.223 OA
ATOM     29  C   UNL     1      -1.435   1.957  24.770  0.00  0.00    +0.032 C 
ATOM     30  C   UNL     1      -2.114   2.399  24.619  0.00  0.00    +0.022 C 
ATOM     31  C   UNL     1      -2.656   2.144  24.051  0.00  0.00    +0.002 C 
ENDROOT
BRANCH   8   7
ATOM      5  C   UNL     1      -3.429   3.758  25.506  0.00  0.00    +0.244 C 
ATOM      6  O   UNL     1      -3.248   3.532  26.277  0.00  0.00    -0.273 OA
ATOM      7  N   UNL     1      -2.931   3.542  24.884  0.00  0.00    -0.207 NA
BRANCH   5   4
ATOM      4  C   UNL     1      -4.108   4.201  25.354  0.00  0.00    +0.119 C 
BRANCH   4   3
ATOM      3  C   UNL     1      -4.821   4.001  25.719  0.00  0.00    +0.152 C 
BRANCH   3   2
ATOM      1  C   UNL     1      -6.231   3.800  25.600  0.00  0.00    +0.174 C 
ATOM      2  O   UNL     1      -5.537   4.167  25.345  0.00  0.00    -0.351 OA
ENDBRANCH   3   2
ENDBRANCH   4   3
ENDBRANCH   5   4
ENDBRANCH   8   7
BRANCH  15  16
ATOM     16  C   UNL     1      -0.482   0.115  24.089  0.00  0.00    +0.081 C 
ATOM     17  C   UNL     1      -0.225   0.145  23.305  0.00  0.00    +0.010 C 
BRANCH  16  18
ATOM     18  C   UNL     1      -0.602  -0.614  24.457  0.00  0.00    +0.241 C 
ATOM     19  O   UNL     1       0.004  -0.958  24.896  0.00  0.00    -0.273 OA
ATOM     20  N   UNL     1      -1.329  -0.998  24.384  0.00  0.00    -0.200 NA
BRANCH  20  21
ATOM     21  C   UNL     1      -1.449  -1.726  24.752  0.00  0.00    +0.148 C 
BRANCH  21  22
ATOM     22  C   UNL     1      -2.203  -2.058  24.772  0.00  0.00    +0.029 A 
ATOM     23  C   UNL     1      -2.806  -1.862  25.301  0.00  0.00    +0.004 A 
ATOM     24  C   UNL     1      -3.463  -2.327  25.123  0.00  0.00    +0.007 A 
ATOM     25  C   UNL     1      -3.268  -2.811  24.483  0.00  0.00    +0.035 A 
ATOM     26  S   UNL     1      -2.490  -2.645  24.267  0.00  0.00    -0.089 S 
ENDBRANCH  21  22
ENDBRANCH  20  21
ENDBRANCH  16  18
ENDBRANCH  15  16
TORSDOF 8
ENDMDL
MODEL 7
REMARK VINA RESULT:      -8.9      3.546      5.015
REMARK  Name = 
REMARK  8 active torsions:
REMARK  status: ('A' for Active; 'I' for Inactive)
REMARK    1  A    between atoms: O_2  and  C_3
REMARK    2  A    between atoms: C_3  and  C_4
REMARK    3  A    between atoms: C_4  and  C_5
REMARK    4  A    between atoms: N_7  and  C_8
REMARK    5  A    between atoms: C_15  and  C_16
REMARK    6  A    between atoms: C_16  and  C_18
REMARK    7  A    between atoms: N_20  and  C_21
REMARK    8  A    between atoms: C_21  and  C_22
REMARK                            x       y       z     vdW  Elec       q    Type
REMARK                         _______ _______ _______ _____ _____    ______ ____
ROOT
ATOM      8  C   UNL     1       0.853   0.790  23.646  0.00  0.00    +0.095 C 
ATOM      9  C   UNL     1       0.941   1.575  23.882  0.00  0.00    +0.022 C 
ATOM     10  C   UNL     1       0.326   1.959  24.277  0.00  0.00    +0.002 C 
ATOM     11  C   UNL     1      -0.376   1.557  24.435  0.00  0.00    +0.002 C 
ATOM     12  C   UNL     1      -0.288   2.343  24.671  0.00  0.00    +0.000 C 
ATOM     13  C   UNL     1      -0.991   1.941  24.830  0.00  0.00    +0.000 C 
ATOM     14  C   UNL     1      -1.693   1.539  24.988  0.00  0.00    +0.003 C 
ATOM     15  C   UNL     1      -1.782   0.754  24.752  0.00  0.00    +0.039 C 
ATOM     27  C   UNL     1      -1.168   0.370  24.358  0.00  0.00    +0.152 C 
ATOM     28  O   UNL     1      -1.256  -0.416  24.122  0.00  0.00    -0.223 OA
ATOM     29  C   UNL     1      -0.464   0.772  24.199  0.00  0.00    +0.032 C 
ATOM     30  C   UNL     1       0.150   0.388  23.805  0.00  0.00    +0.022 C 
ATOM     31  C   UNL     1       0.062  -0.398  23.569  0.00  0.00    +0.002 C 
ENDROOT
BRANCH   8   7
ATOM      5  C   UNL     1       2.197   0.782  23.159  0.00  0.00    +0.244 C 
ATOM      6  O   UNL     1       2.311   1.540  23.461  0.00  0.00    -0.273 OA
ATOM      7  N   UNL     1       1.467   0.406  23.252  0.00  0.00    -0.207 NA
BRANCH   5   4
ATOM      4  C   UNL     1       2.811   0.397  22.765  0.00  0.00    +0.119 C 
BRANCH   4   3
ATOM      3  C   UNL     1       3.590   0.647  22.874  0.00  0.00    +0.152 C 
BRANCH   3   2
ATOM      1  C   UNL     1       4.953   0.261  23.067  0.00  0.00    +0.174 C 
ATOM      2  O   UNL     1       4.213   0.127  22.725  0.00  0.00    -0.351 OA
ENDBRANCH   3   2
ENDBRANCH   4   3
ENDBRANCH   5   4
ENDBRANCH   8   7
BRANCH  15  16
ATOM     16  C   UNL     1      -2.484   0.352  24.911  0.00  0.00    +0.081 C 
ATOM     17  C   UNL     1      -2.488  -0.281  25.440  0.00  0.00    +0.010 C 
BRANCH  16  18
ATOM     18  C   UNL     1      -3.184   0.583  24.539  0.00  0.00    +0.241 C 
ATOM     19  O   UNL     1      -3.342   0.338  23.768  0.00  0.00    -0.273 OA
ATOM     20  N   UNL     1      -3.726   1.060  24.939  0.00  0.00    -0.200 NA
BRANCH  20  21
ATOM     21  C   UNL     1      -4.425   1.290  24.567  0.00  0.00    +0.148 C 
BRANCH  21  22
ATOM     22  C   UNL     1      -4.934   1.823  24.940  0.00  0.00    +0.029 A 
ATOM     23  C   UNL     1      -4.862   2.645  24.936  0.00  0.00    +0.004 A 
ATOM     24  C   UNL     1      -5.486   2.957  25.376  0.00  0.00    +0.007 A 
ATOM     25  C   UNL     1      -5.944   2.329  25.651  0.00  0.00    +0.035 A 
ATOM     26  S   UNL     1      -5.603   1.627  25.382  0.00  0.00    -0.089 S 
ENDBRANCH  21  22
ENDBRANCH  20  21
ENDBRANCH  16  18
ENDBRANCH  15  16
TORSDOF 8
ENDMDL
MODEL 8
REMARK VINA RESULT:      -8.8      2.449      4.714
REMARK  Name = 
REMARK  8 active torsions:
REMARK  status: ('A' for Active; 'I' for Inactive)
REMARK    1  A    between atoms: O_2  and  C_3
REMARK    2  A    between atoms: C_3  and  C_4
REMARK    3  A    between atoms: C_4  and  C_5
REMARK    4  A    between atoms: N_7  and  C_8
REMARK    5  A    between atoms: C_15  and  C_16
REMARK    6  A    between atoms: C_16  and  C_18
REMARK    7  A    between atoms: N_20  and  C_21
REMARK    8  A    between atoms: C_21  and  C_22
REMARK                            x       y       z     vdW  Elec       q    Type
REMARK                         _______ _______ _______ _____ _____    ______ ____
ROOT
ATOM      8  C   UNL     1      -4.305   0.815  24.608  0.00  0.00    +0.095 C 
ATOM      9  C   UNL     1      -4.760   0.135  24.511  0.00  0.00    +0.022 C 
ATOM     10  C   UNL     1      -4.401  -0.609  24.527  0.00  0.00    +0.002 C 
ATOM     11  C   UNL     1      -3.586  -0.670  24.642  0.00  0.00    +0.002 C 
ATOM     12  C   UNL     1      -4.042  -1.351  24.544  0.00  0.00    +0.000 C 
ATOM     13  C   UNL     1      -3.227  -1.413  24.659  0.00  0.00    +0.000 C 
ATOM     14  C   UNL     1      -2.412  -1.474  24.773  0.00  0.00    +0.003 C 
ATOM     15  C   UNL     1      -1.957  -0.794  24.871  0.00  0.00    +0.039 C 
ATOM     27  C   UNL     1      -2.316  -0.051  24.854  0.00  0.00    +0.152 C 
ATOM     28  O   UNL     1      -1.860   0.629  24.952  0.00  0.00    -0.223 OA
ATOM     29  C   UNL     1      -3.131   0.010  24.739  0.00  0.00    +0.032 C 
ATOM     30  C   UNL     1      -3.489   0.753  24.723  0.00  0.00    +0.022 C 
ATOM     31  C   UNL     1      -3.034   1.434  24.820  0.00  0.00    +0.002 C 
ENDROOT
BRANCH   8   7
ATOM      5  C   UNL     1      -5.302   1.718  25.090  0.00  0.00    +0.244 C 
ATOM      6  O   UNL     1      -5.580   1.137  25.603  0.00  0.00    -0.273 OA
ATOM      7  N   UNL     1      -4.663   1.557  24.591  0.00  0.00    -0.207 NA
BRANCH   5   4
ATOM      4  C   UNL     1      -5.660   2.461  25.073  0.00  0.00    +0.119 C 
BRANCH   4   3
ATOM      3  C   UNL     1      -5.619   2.953  25.734  0.00  0.00    +0.152 C 
BRANCH   3   2
ATOM      1  C   UNL     1      -5.501   4.377  25.734  0.00  0.00    +0.174 C 
ATOM      2  O   UNL     1      -5.971   3.699  25.715  0.00  0.00    -0.351 OA
ENDBRANCH   3   2
ENDBRANCH   4   3
ENDBRANCH   5   4
ENDBRANCH   8   7
BRANCH  15  16
ATOM     16  C   UNL     1      -1.143  -0.855  24.985  0.00  0.00    +0.081 C 
ATOM     17  C   UNL     1      -0.819  -0.723  25.733  0.00  0.00    +0.010 C 
BRANCH  16  18
ATOM     18  C   UNL     1      -0.651  -1.049  24.351  0.00  0.00    +0.241 C 
ATOM     19  O   UNL     1      -0.707  -1.792  23.998  0.00  0.00    -0.273 OA
ATOM     20  N   UNL     1      -0.103  -0.499  24.071  0.00  0.00    -0.200 NA
BRANCH  20  21
ATOM     21  C   UNL     1       0.388  -0.693  23.437  0.00  0.00    +0.148 C 
BRANCH  21  22
ATOM     22  C   UNL     1       0.998  -0.183  23.218  0.00  0.00    +0.029 A 
ATOM     23  C   UNL     1       1.069   0.610  23.438  0.00  0.00    +0.004 A 
ATOM     24  C   UNL     1       1.758   0.908  23.096  0.00  0.00    +0.007 A 
ATOM     25  C   UNL     1       2.114   0.301  22.665  0.00  0.00    +0.035 A 
ATOM     26  S   UNL     1       1.644  -0.373  22.740  0.00  0.00    -0.089 S 
ENDBRANCH  21  22
ENDBRANCH  20  21
ENDBRANCH  16  18
ENDBRANCH  15  16
TORSDOF 8
ENDMDL
MODEL 9
REMARK VINA RESULT:      -8.8      2.717      5.164
REMARK  Name = 
REMARK  8 active torsions:
REMARK  status: ('A' for Active; 'I' for Inactive)
REMARK    1  A    between atoms: O_2  and  C_3
REMARK    2  A    between atoms: C_3  and  C_4
REMARK    3  A    between atoms: C_4  and  C_5
REMARK    4  A    between atoms: N_7  and  C_8
REMARK    5  A    between atoms: C_15  and  C_16
REMARK    6  A    between atoms: C_16  and  C_18
REMARK    7  A    between atoms: N_20  and  C_21
REMARK    8  A    between atoms: C_21  and  C_22
REMARK                            x       y       z     vdW  Elec       q    Type
REMARK                         _______ _______ _______ _____ _____    ______ ____
ROOT
ATOM      8  C   UNL     1      -0.734   2.784  25.772  0.00  0.00    +0.095 C 
ATOM      9  C   UNL     1      -1.191   3.425  26.016  0.00  0.00    +0.022 C 
ATOM     10  C   UNL     1      -1.971   3.500  25.756  0.00  0.00    +0.002 C 
ATOM     11  C   UNL     1      -2.292   2.931  25.251  0.00  0.00    +0.002 C 
ATOM     12  C   UNL     1      -2.750   3.574  25.496  0.00  0.00    +0.000 C 
ATOM     13  C   UNL     1      -3.073   3.006  24.991  0.00  0.00    +0.000 C 
ATOM     14  C   UNL     1      -3.394   2.438  24.487  0.00  0.00    +0.003 C 
ATOM     15  C   UNL     1      -2.938   1.796  24.243  0.00  0.00    +0.039 C 
ATOM     27  C   UNL     1      -2.159   1.722  24.503  0.00  0.00    +0.152 C 
ATOM     28  O   UNL     1      -1.702   1.080  24.259  0.00  0.00    -0.223 OA
ATOM     29  C   UNL     1      -1.836   2.290  25.008  0.00  0.00    +0.032 C 
ATOM     30  C   UNL     1      -1.057   2.215  25.267  0.00  0.00    +0.022 C 
ATOM     31  C   UNL     1      -0.600   1.573  25.023  0.00  0.00    +0.002 C 
ENDROOT
BRANCH   8   7
ATOM      5  C   UNL     1       0.207   2.655  26.840  0.00  0.00    +0.244 C 
ATOM      6  O   UNL     1      -0.410   2.676  27.386  0.00  0.00    -0.273 OA
ATOM      7  N   UNL     1       0.045   2.709  26.032  0.00  0.00    -0.207 NA
BRANCH   5   4
ATOM      4  C   UNL     1       0.986   2.581  27.099  0.00  0.00    +0.119 C 
BRANCH   4   3
ATOM      3  C   UNL     1       1.160   2.642  27.904  0.00  0.00    +0.152 C 
BRANCH   3   2
ATOM      1  C   UNL     1       2.120   2.705  28.961  0.00  0.00    +0.174 C 
ATOM      2  O   UNL     1       1.945   2.681  28.154  0.00  0.00    -0.351 OA
ENDBRANCH   3   2
ENDBRANCH   4   3
ENDBRANCH   5   4
ENDBRANCH   8   7
BRANCH  15  16
ATOM     16  C   UNL     1      -3.260   1.228  23.739  0.00  0.00    +0.081 C 
ATOM     17  C   UNL     1      -3.033   1.204  22.946  0.00  0.00    +0.010 C 
BRANCH  16  18
ATOM     18  C   UNL     1      -3.809   0.684  24.029  0.00  0.00    +0.241 C 
ATOM     19  O   UNL     1      -4.546   0.942  24.291  0.00  0.00    -0.273 OA
ATOM     20  N   UNL     1      -3.619  -0.119  24.056  0.00  0.00    -0.200 NA
BRANCH  20  21
ATOM     21  C   UNL     1      -4.167  -0.663  24.345  0.00  0.00    +0.148 C 
BRANCH  21  22
ATOM     22  C   UNL     1      -3.952  -1.453  24.443  0.00  0.00    +0.029 A 
ATOM     23  C   UNL     1      -3.545  -1.768  25.088  0.00  0.00    +0.004 A 
ATOM     24  C   UNL     1      -3.446  -2.576  24.958  0.00  0.00    +0.007 A 
ATOM     25  C   UNL     1      -3.791  -2.762  24.232  0.00  0.00    +0.035 A 
ATOM     26  S   UNL     1      -4.104  -2.068  23.913  0.00  0.00    -0.089 S 
ENDBRANCH  21  22
ENDBRANCH  20  21
ENDBRANCH  16  18
ENDBRANCH  15  16
TORSDOF 8
ENDMDL
MODEL 10
REMARK VINA RESULT:      -8.8      2.436      4.923
REMARK  Name = 
REMARK  8 active torsions:
REMARK  status: ('A' for Active; 'I' for Inactive)
REMARK    1  A    between atoms: O_2  and  C_3
REMARK    2  A    between atoms: C_3  and  C_4
REMARK    3  A    between atoms: C_4  and  C_5
REMARK    4  A    between atoms: N_7  and  C_8
REMARK    5  A    between atoms: C_15  and  C_16
REMARK    6  A    between atoms: C_16  and  C_18
REMARK    7  A    between atoms: N_20  and  C_21
REMARK    8  A    between atoms: C_21  and  C_22
REMARK                            x       y       z     vdW  Elec       q    Type
REMARK                         _______ _______ _______ _____ _____    ______ ____
ROOT
ATOM      8  C   UNL     1      -3.746   2.750  24.506  0.00  0.00    +0.095 C 
ATOM      9  C   UNL     1      -3.937   2.771  23.705  0.00  0.00    +0.022 C 
ATOM     10  C   UNL     1      -3.386   2.523  23.142  0.00  0.00    +0.002 C 
ATOM     11  C   UNL     1      -2.644   2.255  23.383  0.00  0.00    +0.002 C 
ATOM     12  C   UNL     1      -2.836   2.276  22.580  0.00  0.00    +0.000 C 
ATOM     13  C   UNL     1      -2.093   2.007  22.820  0.00  0.00    +0.000 C 
ATOM     14  C   UNL     1      -1.352   1.738  23.061  0.00  0.00    +0.003 C 
ATOM     15  C   UNL     1      -1.161   1.716  23.862  0.00  0.00    +0.039 C 
ATOM     27  C   UNL     1      -1.711   1.964  24.425  0.00  0.00    +0.152 C 
ATOM     28  O   UNL     1      -1.519   1.943  25.227  0.00  0.00    -0.223 OA
ATOM     29  C   UNL     1      -2.453   2.233  24.184  0.00  0.00    +0.032 C 
ATOM     30  C   UNL     1      -3.003   2.481  24.747  0.00  0.00    +0.022 C 
ATOM     31  C   UNL     1      -2.812   2.459  25.549  0.00  0.00    +0.002 C 
ENDROOT
BRANCH   8   7
ATOM      5  C   UNL     1      -5.063   2.692  25.058  0.00  0.00    +0.244 C 
ATOM      6  O   UNL     1      -5.278   2.139  24.485  0.00  0.00    -0.273 OA
ATOM      7  N   UNL     1      -4.296   2.998  25.069  0.00  0.00    -0.207 NA
BRANCH   5   4
ATOM      4  C   UNL     1      -5.613   2.939  25.621  0.00  0.00    +0.119 C 
BRANCH   4   3
ATOM      3  C   UNL     1      -6.158   2.401  25.929  0.00  0.00    +0.152 C 
BRANCH   3   2
ATOM      1  C   UNL     1      -6.695   1.749  27.082  0.00  0.00    +0.174 C 
ATOM      2  O   UNL     1      -6.325   2.401  26.737  0.00  0.00    -0.351 OA
ENDBRANCH   3   2
ENDBRANCH   4   3
ENDBRANCH   5   4
ENDBRANCH   8   7
BRANCH  15  16
ATOM     16  C   UNL     1      -0.419   1.448  24.103  0.00  0.00    +0.081 C 
ATOM     17  C   UNL     1       0.095   1.955  24.501  0.00  0.00    +0.010 C 
BRANCH  16  18
ATOM     18  C   UNL     1      -0.191   0.670  23.944  0.00  0.00    +0.241 C 
ATOM     19  O   UNL     1       0.356   0.514  23.348  0.00  0.00    -0.273 OA
ATOM     20  N   UNL     1      -0.512   0.048  24.383  0.00  0.00    -0.200 NA
BRANCH  20  21
ATOM     21  C   UNL     1      -0.284  -0.728  24.224  0.00  0.00    +0.148 C 
BRANCH  21  22
ATOM     22  C   UNL     1      -0.719  -1.356  24.536  0.00  0.00    +0.029 A 
ATOM     23  C   UNL     1      -1.352  -1.737  24.167  0.00  0.00    +0.004 A 
ATOM     24  C   UNL     1      -1.622  -2.330  24.673  0.00  0.00    +0.007 A 
ATOM     25  C   UNL     1      -1.157  -2.316  25.354  0.00  0.00    +0.035 A 
ATOM     26  S   UNL     1      -0.598  -1.715  25.270  0.00  0.00    -0.089 S 
ENDBRANCH  21  22
ENDBRANCH  20  21
ENDBRANCH  16  18
ENDBRANCH  15  16
TORSDOF 8
ENDMDL
