MODEL 1
REMARK VINA RESULT:     -12.4      0.000      0.000
REMARK  Name = 
REMARK  2 active torsions:
REMARK  status: ('A' for Active; 'I' for Inactive)
REMARK    1  A    between atoms: C_7  and  N_10
REMARK    2  A    between atoms: N_16  and  C_17
REMARK                            x       y       z     vdW  Elec       q    Type
REMARK                         _______ _______ _______ _____ _____    ______ ____
ROOT
ATOM     10  N   UNL     1      -3.086   2.228  24.844  0.00  0.00    -0.271 NA
ATOM     11  C   UNL     1      -3.909   2.270  24.872  0.00  0.00    +0.094 C 
ATOM     12  C   UNL     1      -4.359   1.580  24.825  0.00  0.00    +0.112 C 
ATOM     13  N   UNL     1      -3.986   0.848  24.751  0.00  0.00    -0.261 N 
ATOM     14  C   UNL     1      -3.162   0.806  24.722  0.00  0.00    +0.113 C 
ATOM     15  C   UNL     1      -2.949   0.013  24.647  0.00  0.00    +0.116 C 
ATOM     16  N   UNL     1      -3.641  -0.435  24.629  0.00  0.00    -0.264 N 
ATOM     23  C   UNL     1      -4.281   0.081  24.693  0.00  0.00    +0.307 C 
ATOM     24  O   UNL     1      -5.078  -0.133  24.698  0.00  0.00    -0.252 OA
ATOM     25  C   UNL     1      -2.712   1.497  24.769  0.00  0.00    +0.094 C 
ENDROOT
BRANCH  10   7
ATOM      1  C   UNL     1      -0.520   5.002  24.726  0.00  0.00    +0.095 C 
ATOM      2  C   UNL     1      -1.286   4.988  25.030  0.00  0.00    +0.226 C 
ATOM      3  O   UNL     1      -1.602   5.665  25.381  0.00  0.00    -0.275 OA
ATOM      4  N   UNL     1      -1.736   4.299  24.983  0.00  0.00    -0.279 N 
ATOM      5  C   UNL     1      -2.502   4.285  25.288  0.00  0.00    +0.095 C 
ATOM      6  C   UNL     1      -2.953   3.594  25.242  0.00  0.00    +0.038 C 
ATOM      7  C   UNL     1      -2.635   2.919  24.890  0.00  0.00    +0.061 C 
ATOM      8  C   UNL     1      -1.869   2.933  24.586  0.00  0.00    +0.038 C 
ATOM      9  C   UNL     1      -1.419   3.622  24.632  0.00  0.00    +0.095 C 
ENDBRANCH  10   7
BRANCH  16  17
ATOM     17  C   UNL     1      -3.685  -1.256  24.559  0.00  0.00    +0.077 C 
ATOM     18  C   UNL     1      -3.416  -1.738  25.173  0.00  0.00    +0.020 C 
ATOM     19  C   UNL     1      -3.460  -2.559  25.103  0.00  0.00    +0.002 C 
ATOM     20  C   UNL     1      -3.773  -2.898  24.419  0.00  0.00    +0.000 C 
ATOM     21  C   UNL     1      -4.042  -2.417  23.806  0.00  0.00    +0.002 C 
ATOM     22  C   UNL     1      -3.998  -1.596  23.876  0.00  0.00    +0.020 C 
ENDBRANCH  16  17
TORSDOF 2
ENDMDL
MODEL 2
REMARK VINA RESULT:     -12.2      1.085      5.411
REMARK  Name = 
REMARK  2 active torsions:
REMARK  status: ('A' for Active; 'I' for Inactive)
REMARK    1  A    between atoms: C_7  and  N_10
REMARK    2  A    between atoms: N_16  and  C_17
REMARK                            x       y       z     vdW  Elec       q    Type
REMARK                         _______ _______ _______ _____ _____    ______ ____
ROOT
ATOM     10  N   UNL     1      -3.503   0.700  24.714  0.00  0.00    -0.271 NA
ATOM     11  C   UNL     1      -4.184   1.151  24.602  0.00  0.00    +0.094 C 
ATOM     12  C   UNL     1      -4.137   1.974  24.598  0.00  0.00    +0.112 C 
ATOM     13  N   UNL     1      -3.409   2.347  24.708  0.00  0.00    -0.261 N 
ATOM     14  C   UNL     1      -2.727   1.895  24.820  0.00  0.00    +0.113 C 
ATOM     15  C   UNL     1      -2.092   2.412  24.913  0.00  0.00    +0.116 C 
ATOM     16  N   UNL     1      -2.379   3.183  24.858  0.00  0.00    -0.264 N 
ATOM     23  C   UNL     1      -3.193   3.142  24.731  0.00  0.00    +0.307 C 
ATOM     24  O   UNL     1      -3.703   3.785  24.643  0.00  0.00    -0.252 OA
ATOM     25  C   UNL     1      -2.774   1.071  24.824  0.00  0.00    +0.094 C 
ENDROOT
BRANCH  10   7
ATOM      1  C   UNL     1      -3.910  -2.999  24.044  0.00  0.00    +0.095 C 
ATOM      2  C   UNL     1      -3.690  -2.595  24.729  0.00  0.00    +0.226 C 
ATOM      3  O   UNL     1      -3.516  -3.016  25.417  0.00  0.00    -0.275 OA
ATOM      4  N   UNL     1      -3.643  -1.772  24.725  0.00  0.00    -0.279 N 
ATOM      5  C   UNL     1      -3.423  -1.369  25.410  0.00  0.00    +0.095 C 
ATOM      6  C   UNL     1      -3.376  -0.544  25.407  0.00  0.00    +0.038 C 
ATOM      7  C   UNL     1      -3.549  -0.125  24.718  0.00  0.00    +0.061 C 
ATOM      8  C   UNL     1      -3.770  -0.529  24.033  0.00  0.00    +0.038 C 
ATOM      9  C   UNL     1      -3.816  -1.352  24.037  0.00  0.00    +0.095 C 
ENDBRANCH  10   7
BRANCH  16  17
ATOM     17  C   UNL     1      -1.932   3.873  24.919  0.00  0.00    +0.077 C 
ATOM     18  C   UNL     1      -1.186   3.915  24.566  0.00  0.00    +0.020 C 
ATOM     19  C   UNL     1      -0.739   4.605  24.627  0.00  0.00    +0.002 C 
ATOM     20  C   UNL     1      -1.037   5.254  25.041  0.00  0.00    +0.000 C 
ATOM     21  C   UNL     1      -1.781   5.213  25.394  0.00  0.00    +0.002 C 
ATOM     22  C   UNL     1      -2.228   4.522  25.333  0.00  0.00    +0.020 C 
ENDBRANCH  16  17
TORSDOF 2
ENDMDL
MODEL 3
REMARK VINA RESULT:      -9.5      2.752      3.941
REMARK  Name = 
REMARK  2 active torsions:
REMARK  status: ('A' for Active; 'I' for Inactive)
REMARK    1  A    between atoms: C_7  and  N_10
REMARK    2  A    between atoms: N_16  and  C_17
REMARK                            x       y       z     vdW  Elec       q    Type
REMARK                         _______ _______ _______ _____ _____    ______ ____
ROOT
ATOM     10  N   UNL     1      -1.193   0.465  24.245  0.00  0.00    -0.271 NA
ATOM     11  C   UNL     1      -1.484  -0.225  24.591  0.00  0.00    +0.094 C 
ATOM     12  C   UNL     1      -2.254  -0.245  24.886  0.00  0.00    +0.112 C 
ATOM     13  N   UNL     1      -2.733   0.425  24.834  0.00  0.00    -0.261 N 
ATOM     14  C   UNL     1      -2.442   1.115  24.488  0.00  0.00    +0.113 C 
ATOM     15  C   UNL     1      -3.037   1.685  24.515  0.00  0.00    +0.116 C 
ATOM     16  N   UNL     1      -3.697   1.348  24.877  0.00  0.00    -0.264 N 
ATOM     23  C   UNL     1      -3.509   0.569  25.074  0.00  0.00    +0.307 C 
ATOM     24  O   UNL     1      -4.009   0.029  25.447  0.00  0.00    -0.252 OA
ATOM     25  C   UNL     1      -1.671   1.135  24.194  0.00  0.00    +0.094 C 
ENDROOT
BRANCH  10   7
ATOM      1  C   UNL     1       2.159  -0.059  22.577  0.00  0.00    +0.095 C 
ATOM      2  C   UNL     1       1.889   0.546  23.068  0.00  0.00    +0.226 C 
ATOM      3  O   UNL     1       2.390   1.172  23.264  0.00  0.00    -0.275 OA
ATOM      4  N   UNL     1       1.119   0.526  23.362  0.00  0.00    -0.279 N 
ATOM      5  C   UNL     1       0.849   1.131  23.853  0.00  0.00    +0.095 C 
ATOM      6  C   UNL     1       0.078   1.111  24.148  0.00  0.00    +0.038 C 
ATOM      7  C   UNL     1      -0.422   0.485  23.951  0.00  0.00    +0.061 C 
ATOM      8  C   UNL     1      -0.152  -0.120  23.459  0.00  0.00    +0.038 C 
ATOM      9  C   UNL     1       0.618  -0.100  23.165  0.00  0.00    +0.095 C 
ENDBRANCH  10   7
BRANCH  16  17
ATOM     17  C   UNL     1      -4.418   1.723  25.017  0.00  0.00    +0.077 C 
ATOM     18  C   UNL     1      -4.442   2.419  25.461  0.00  0.00    +0.020 C 
ATOM     19  C   UNL     1      -5.163   2.794  25.601  0.00  0.00    +0.002 C 
ATOM     20  C   UNL     1      -5.861   2.473  25.298  0.00  0.00    +0.000 C 
ATOM     21  C   UNL     1      -5.837   1.779  24.855  0.00  0.00    +0.002 C 
ATOM     22  C   UNL     1      -5.116   1.403  24.714  0.00  0.00    +0.020 C 
ENDBRANCH  16  17
TORSDOF 2
ENDMDL
MODEL 4
REMARK VINA RESULT:      -9.3      2.930      4.221
REMARK  Name = 
REMARK  2 active torsions:
REMARK  status: ('A' for Active; 'I' for Inactive)
REMARK    1  A    between atoms: C_7  and  N_10
REMARK    2  A    between atoms: N_16  and  C_17
REMARK                            x       y       z     vdW  Elec       q    Type
REMARK                         _______ _______ _______ _____ _____    ______ ____
ROOT
ATOM     10  N   UNL     1      -2.546   0.815  24.670  0.00  0.00    -0.271 NA
ATOM     11  C   UNL     1      -2.380   0.128  25.096  0.00  0.00    +0.094 C 
ATOM     12  C   UNL     1      -1.661  -0.260  24.989  0.00  0.00    +0.112 C 
ATOM     13  N   UNL     1      -1.106   0.038  24.455  0.00  0.00    -0.261 N 
ATOM     14  C   UNL     1      -1.272   0.724  24.029  0.00  0.00    +0.113 C 
ATOM     15  C   UNL     1      -0.624   0.887  23.545  0.00  0.00    +0.116 C 
ATOM     16  N   UNL     1      -0.058   0.301  23.672  0.00  0.00    -0.264 N 
ATOM     23  C   UNL     1      -0.356  -0.223  24.235  0.00  0.00    +0.307 C 
ATOM     24  O   UNL     1       0.029  -0.893  24.526  0.00  0.00    -0.252 OA
ATOM     25  C   UNL     1      -1.992   1.113  24.136  0.00  0.00    +0.094 C 
ENDROOT
BRANCH  10   7
ATOM      1  C   UNL     1      -6.133   1.953  25.031  0.00  0.00    +0.095 C 
ATOM      2  C   UNL     1      -5.424   2.370  25.099  0.00  0.00    +0.226 C 
ATOM      3  O   UNL     1      -5.436   3.176  25.274  0.00  0.00    -0.275 OA
ATOM      4  N   UNL     1      -4.705   1.981  24.991  0.00  0.00    -0.279 N 
ATOM      5  C   UNL     1      -3.997   2.399  25.059  0.00  0.00    +0.095 C 
ATOM      6  C   UNL     1      -3.277   2.010  24.952  0.00  0.00    +0.038 C 
ATOM      7  C   UNL     1      -3.266   1.204  24.777  0.00  0.00    +0.061 C 
ATOM      8  C   UNL     1      -3.974   0.786  24.709  0.00  0.00    +0.038 C 
ATOM      9  C   UNL     1      -4.693   1.175  24.816  0.00  0.00    +0.095 C 
ENDBRANCH  10   7
BRANCH  16  17
ATOM     17  C   UNL     1       0.678   0.249  23.302  0.00  0.00    +0.077 C 
ATOM     18  C   UNL     1       1.309   0.708  23.571  0.00  0.00    +0.020 C 
ATOM     19  C   UNL     1       2.045   0.655  23.201  0.00  0.00    +0.002 C 
ATOM     20  C   UNL     1       2.149   0.144  22.562  0.00  0.00    +0.000 C 
ATOM     21  C   UNL     1       1.519  -0.314  22.293  0.00  0.00    +0.002 C 
ATOM     22  C   UNL     1       0.783  -0.262  22.663  0.00  0.00    +0.020 C 
ENDBRANCH  16  17
TORSDOF 2
ENDMDL
MODEL 5
REMARK VINA RESULT:      -9.1      1.992      2.493
REMARK  Name = 
REMARK  2 active torsions:
REMARK  status: ('A' for Active; 'I' for Inactive)
REMARK    1  A    between atoms: C_7  and  N_10
REMARK    2  A    between atoms: N_16  and  C_17
REMARK                            x       y       z     vdW  Elec       q    Type
REMARK                         _______ _______ _______ _____ _____    ______ ____
ROOT
ATOM     10  N   UNL     1      -4.078   1.699  24.949  0.00  0.00    -0.271 NA
ATOM     11  C   UNL     1      -3.277   1.736  24.755  0.00  0.00    +0.094 C 
ATOM     12  C   UNL     1      -2.858   1.044  24.601  0.00  0.00    +0.112 C 
ATOM     13  N   UNL     1      -3.238   0.313  24.641  0.00  0.00    -0.261 N 
ATOM     14  C   UNL     1      -4.039   0.275  24.835  0.00  0.00    +0.113 C 
ATOM     15  C   UNL     1      -4.266  -0.517  24.833  0.00  0.00    +0.116 C 
ATOM     16  N   UNL     1      -3.605  -0.971  24.637  0.00  0.00    -0.264 N 
ATOM     23  C   UNL     1      -2.971  -0.457  24.518  0.00  0.00    +0.307 C 
ATOM     24  O   UNL     1      -2.202  -0.676  24.313  0.00  0.00    -0.252 OA
ATOM     25  C   UNL     1      -4.459   0.969  24.990  0.00  0.00    +0.094 C 
ENDROOT
BRANCH  10   7
ATOM      1  C   UNL     1      -5.422   5.205  25.392  0.00  0.00    +0.095 C 
ATOM      2  C   UNL     1      -5.757   4.472  25.567  0.00  0.00    +0.226 C 
ATOM      3  O   UNL     1      -6.513   4.433  25.897  0.00  0.00    -0.275 OA
ATOM      4  N   UNL     1      -5.338   3.779  25.413  0.00  0.00    -0.279 N 
ATOM      5  C   UNL     1      -5.673   3.046  25.588  0.00  0.00    +0.095 C 
ATOM      6  C   UNL     1      -5.253   2.352  25.434  0.00  0.00    +0.038 C 
ATOM      7  C   UNL     1      -4.498   2.393  25.104  0.00  0.00    +0.061 C 
ATOM      8  C   UNL     1      -4.162   3.126  24.929  0.00  0.00    +0.038 C 
ATOM      9  C   UNL     1      -4.582   3.819  25.083  0.00  0.00    +0.095 C 
ENDBRANCH  10   7
BRANCH  16  17
ATOM     17  C   UNL     1      -3.583  -1.793  24.571  0.00  0.00    +0.077 C 
ATOM     18  C   UNL     1      -3.924  -2.164  23.917  0.00  0.00    +0.020 C 
ATOM     19  C   UNL     1      -3.902  -2.986  23.851  0.00  0.00    +0.002 C 
ATOM     20  C   UNL     1      -3.538  -3.437  24.439  0.00  0.00    +0.000 C 
ATOM     21  C   UNL     1      -3.198  -3.066  25.092  0.00  0.00    +0.002 C 
ATOM     22  C   UNL     1      -3.220  -2.244  25.158  0.00  0.00    +0.020 C 
ENDBRANCH  16  17
TORSDOF 2
ENDMDL
MODEL 6
REMARK VINA RESULT:      -8.8      3.090      4.215
REMARK  Name = 
REMARK  2 active torsions:
REMARK  status: ('A' for Active; 'I' for Inactive)
REMARK    1  A    between atoms: C_7  and  N_10
REMARK    2  A    between atoms: N_16  and  C_17
REMARK                            x       y       z     vdW  Elec       q    Type
REMARK                         _______ _______ _______ _____ _____    ______ ____
ROOT
ATOM     10  N   UNL     1      -0.530   1.369  24.192  0.00  0.00    -0.271 NA
ATOM     11  C   UNL     1      -0.456   1.931  24.793  0.00  0.00    +0.094 C 
ATOM     12  C   UNL     1      -1.130   2.245  25.148  0.00  0.00    +0.112 C 
ATOM     13  N   UNL     1      -1.879   1.998  24.904  0.00  0.00    -0.261 N 
ATOM     14  C   UNL     1      -1.953   1.437  24.304  0.00  0.00    +0.113 C 
ATOM     15  C   UNL     1      -2.756   1.300  24.180  0.00  0.00    +0.116 C 
ATOM     16  N   UNL     1      -3.180   1.777  24.703  0.00  0.00    -0.264 N 
ATOM     23  C   UNL     1      -2.637   2.208  25.151  0.00  0.00    +0.307 C 
ATOM     24  O   UNL     1      -2.821   2.754  25.742  0.00  0.00    -0.252 OA
ATOM     25  C   UNL     1      -1.278   1.122  23.948  0.00  0.00    +0.094 C 
ENDROOT
BRANCH  10   7
ATOM      1  C   UNL     1       2.868   0.547  22.754  0.00  0.00    +0.095 C 
ATOM      2  C   UNL     1       2.168   0.111  22.768  0.00  0.00    +0.226 C 
ATOM      3  O   UNL     1       2.143  -0.639  22.426  0.00  0.00    -0.275 OA
ATOM      4  N   UNL     1       1.494   0.426  23.124  0.00  0.00    -0.279 N 
ATOM      5  C   UNL     1       0.794  -0.010  23.138  0.00  0.00    +0.095 C 
ATOM      6  C   UNL     1       0.119   0.304  23.495  0.00  0.00    +0.038 C 
ATOM      7  C   UNL     1       0.145   1.055  23.836  0.00  0.00    +0.061 C 
ATOM      8  C   UNL     1       0.845   1.491  23.822  0.00  0.00    +0.038 C 
ATOM      9  C   UNL     1       1.519   1.176  23.466  0.00  0.00    +0.095 C 
ENDBRANCH  10   7
BRANCH  16  17
ATOM     17  C   UNL     1      -4.001   1.816  24.768  0.00  0.00    +0.077 C 
ATOM     18  C   UNL     1      -4.406   2.483  24.498  0.00  0.00    +0.020 C 
ATOM     19  C   UNL     1      -5.227   2.522  24.562  0.00  0.00    +0.002 C 
ATOM     20  C   UNL     1      -5.644   1.893  24.897  0.00  0.00    +0.000 C 
ATOM     21  C   UNL     1      -5.241   1.227  25.167  0.00  0.00    +0.002 C 
ATOM     22  C   UNL     1      -4.419   1.188  25.103  0.00  0.00    +0.020 C 
ENDBRANCH  16  17
TORSDOF 2
ENDMDL
