MODEL 1
REMARK VINA RESULT:      -9.8      0.000      0.000
REMARK  Name = 
REMARK  8 active torsions:
REMARK  status: ('A' for Active; 'I' for Inactive)
REMARK    1  A    between atoms: O_2  and  C_3
REMARK    2  A    between atoms: C_3  and  C_5
REMARK    3  A    between atoms: C_5  and  N_6
REMARK    4  A    between atoms: C_5  and  C_34
REMARK    5  A    between atoms: C_7  and  C_9
REMARK    6  A    between atoms: C_11  and  N_22
REMARK    7  A    between atoms: C_14  and  C_16
REMARK    8  A    between atoms: N_25  and  C_26
REMARK                            x       y       z     vdW  Elec       q    Type
REMARK                         _______ _______ _______ _____ _____    ______ ____
ROOT
ATOM      9  C   UNL     1      -2.641   2.121  24.926  0.00  0.00    +0.156 C 
ATOM     10  C   UNL     1      -2.619   1.436  24.467  0.00  0.00    +0.053 C 
ATOM     11  C   UNL     1      -3.396   1.227  24.285  0.00  0.00    +0.119 C 
ATOM     12  C   UNL     1      -3.898   1.783  24.631  0.00  0.00    +0.116 C 
ATOM     13  N   UNL     1      -3.430   2.335  25.028  0.00  0.00    -0.266 N 
ATOM     14  C   UNL     1      -3.705   2.987  25.452  0.00  0.00    +0.265 C 
ATOM     15  O   UNL     1      -3.169   3.494  25.822  0.00  0.00    -0.268 OA
ENDROOT
BRANCH  14  16
ATOM     16  C   UNL     1      -4.515   3.133  25.506  0.00  0.00    +0.114 A 
ATOM     17  C   UNL     1      -5.078   2.626  25.834  0.00  0.00    +0.023 A 
ATOM     18  C   UNL     1      -5.816   2.989  25.773  0.00  0.00    +0.020 A 
ATOM     19  C   UNL     1      -5.710   3.722  25.408  0.00  0.00    +0.076 A 
ATOM     20  N   UNL     1      -4.905   3.810  25.243  0.00  0.00    -0.320 N 
ATOM     21  C   UNL     1      -4.554   4.461  24.879  0.00  0.00    +0.131 C 
ENDBRANCH  14  16
BRANCH  11  22
ATOM     22  N   UNL     1      -3.631   0.576  23.834  0.00  0.00    -0.187 NA
ATOM     23  C   UNL     1      -3.543  -0.187  24.135  0.00  0.00    +0.344 C 
ATOM     24  O   UNL     1      -3.220  -0.299  24.886  0.00  0.00    -0.249 OA
ATOM     25  N   UNL     1      -3.778  -0.837  23.685  0.00  0.00    -0.159 NA
BRANCH  25  26
ATOM     26  C   UNL     1      -3.690  -1.600  23.985  0.00  0.00    +0.102 A 
ATOM     27  C   UNL     1      -4.299  -2.150  23.898  0.00  0.00    +0.158 A 
ATOM     28  F   UNL     1      -4.995  -1.937  23.511  0.00  0.00    -0.203 F 
ATOM     29  C   UNL     1      -4.211  -2.914  24.199  0.00  0.00    +0.061 A 
ATOM     30  C   UNL     1      -3.514  -3.126  24.586  0.00  0.00    +0.142 A 
ATOM     31  F   UNL     1      -3.426  -3.890  24.887  0.00  0.00    -0.204 F 
ATOM     32  C   UNL     1      -2.905  -2.576  24.673  0.00  0.00    +0.031 A 
ATOM     33  C   UNL     1      -2.994  -1.814  24.373  0.00  0.00    +0.021 A 
ENDBRANCH  25  26
ENDBRANCH  11  22
BRANCH   9   7
ATOM      6  N   UNL     1      -1.351   2.707  24.737  0.00  0.00    -0.194 NA
ATOM      7  C   UNL     1      -1.986   2.521  25.230  0.00  0.00    +0.260 C 
ATOM      8  O   UNL     1      -1.967   2.735  26.027  0.00  0.00    -0.272 OA
BRANCH   6   5
ATOM      5  C   UNL     1      -0.697   3.108  25.042  0.00  0.00    +0.193 C 
BRANCH   5  34
ATOM     34  C   UNL     1      -0.088   2.687  25.406  0.00  0.00    +0.031 C 
ATOM     35  C   UNL     1       0.372   2.161  24.965  0.00  0.00    +0.002 C 
ATOM     36  C   UNL     1       0.062   2.790  26.211  0.00  0.00    +0.002 C 
ENDBRANCH   5  34
BRANCH   5   3
ATOM      3  C   UNL     1      -0.652   3.929  24.982  0.00  0.00    +0.337 C 
ATOM      4  O   UNL     1      -0.645   4.394  25.663  0.00  0.00    -0.248 OA
BRANCH   3   2
ATOM      1  C   UNL     1      -0.586   5.109  24.177  0.00  0.00    +0.256 C 
ATOM      2  O   UNL     1      -0.614   4.286  24.238  0.00  0.00    -0.443 OA
ENDBRANCH   3   2
ENDBRANCH   5   3
ENDBRANCH   6   5
ENDBRANCH   9   7
TORSDOF 8
ENDMDL
MODEL 2
REMARK VINA RESULT:      -9.5      3.369      5.385
REMARK  Name = 
REMARK  8 active torsions:
REMARK  status: ('A' for Active; 'I' for Inactive)
REMARK    1  A    between atoms: O_2  and  C_3
REMARK    2  A    between atoms: C_3  and  C_5
REMARK    3  A    between atoms: C_5  and  N_6
REMARK    4  A    between atoms: C_5  and  C_34
REMARK    5  A    between atoms: C_7  and  C_9
REMARK    6  A    between atoms: C_11  and  N_22
REMARK    7  A    between atoms: C_14  and  C_16
REMARK    8  A    between atoms: N_25  and  C_26
REMARK                            x       y       z     vdW  Elec       q    Type
REMARK                         _______ _______ _______ _____ _____    ______ ____
ROOT
ATOM      9  C   UNL     1      -0.597   0.914  24.235  0.00  0.00    +0.156 C 
ATOM     10  C   UNL     1       0.030   0.979  23.703  0.00  0.00    +0.053 C 
ATOM     11  C   UNL     1       0.234   0.218  23.456  0.00  0.00    +0.119 C 
ATOM     12  C   UNL     1      -0.267  -0.317  23.836  0.00  0.00    +0.116 C 
ATOM     13  N   UNL     1      -0.780   0.114  24.317  0.00  0.00    -0.266 N 
ATOM     14  C   UNL     1      -1.374  -0.200  24.797  0.00  0.00    +0.265 C 
ATOM     15  O   UNL     1      -1.847   0.301  25.250  0.00  0.00    -0.268 OA
ENDROOT
BRANCH  14  16
ATOM     16  C   UNL     1      -1.494  -1.016  24.823  0.00  0.00    +0.114 A 
ATOM     17  C   UNL     1      -0.937  -1.581  25.050  0.00  0.00    +0.023 A 
ATOM     18  C   UNL     1      -1.291  -2.324  24.994  0.00  0.00    +0.020 A 
ATOM     19  C   UNL     1      -2.066  -2.219  24.734  0.00  0.00    +0.076 A 
ATOM     20  N   UNL     1      -2.192  -1.410  24.627  0.00  0.00    -0.320 N 
ATOM     21  C   UNL     1      -2.892  -1.058  24.371  0.00  0.00    +0.131 C 
ENDBRANCH  14  16
BRANCH  11  22
ATOM     22  N   UNL     1       0.834   0.025  22.923  0.00  0.00    -0.187 NA
ATOM     23  C   UNL     1       1.617   0.217  23.096  0.00  0.00    +0.344 C 
ATOM     24  O   UNL     1       1.801   0.601  23.802  0.00  0.00    -0.249 OA
ATOM     25  N   UNL     1       2.216   0.024  22.563  0.00  0.00    -0.159 NA
BRANCH  25  26
ATOM     26  C   UNL     1       2.999   0.215  22.736  0.00  0.00    +0.102 A 
ATOM     27  C   UNL     1       3.523  -0.372  22.986  0.00  0.00    +0.158 A 
ATOM     28  F   UNL     1       3.262  -1.151  23.062  0.00  0.00    -0.203 F 
ATOM     29  C   UNL     1       4.307  -0.180  23.159  0.00  0.00    +0.061 A 
ATOM     30  C   UNL     1       4.567   0.599  23.082  0.00  0.00    +0.142 A 
ATOM     31  F   UNL     1       5.351   0.791  23.254  0.00  0.00    -0.204 F 
ATOM     32  C   UNL     1       4.044   1.187  22.832  0.00  0.00    +0.031 A 
ATOM     33  C   UNL     1       3.261   0.994  22.659  0.00  0.00    +0.021 A 
ENDBRANCH  25  26
ENDBRANCH  11  22
BRANCH   9   7
ATOM      6  N   UNL     1      -1.268   2.174  24.179  0.00  0.00    -0.194 NA
ATOM      7  C   UNL     1      -0.974   1.541  24.618  0.00  0.00    +0.260 C 
ATOM      8  O   UNL     1      -1.056   1.533  25.439  0.00  0.00    -0.272 OA
BRANCH   6   5
ATOM      5  C   UNL     1      -1.646   2.800  24.562  0.00  0.00    +0.193 C 
BRANCH   5  34
ATOM     34  C   UNL     1      -1.200   3.371  24.958  0.00  0.00    +0.031 C 
ATOM     35  C   UNL     1      -0.684   3.858  24.536  0.00  0.00    +0.002 C 
ATOM     36  C   UNL     1      -1.269   3.454  25.776  0.00  0.00    +0.002 C 
ENDBRANCH   5  34
BRANCH   5   3
ATOM      3  C   UNL     1      -2.469   2.856  24.549  0.00  0.00    +0.337 C 
ATOM      4  O   UNL     1      -2.890   2.923  25.255  0.00  0.00    -0.248 OA
BRANCH   3   2
ATOM      1  C   UNL     1      -3.692   2.919  23.813  0.00  0.00    +0.256 C 
ATOM      2  O   UNL     1      -2.870   2.844  23.827  0.00  0.00    -0.443 OA
ENDBRANCH   3   2
ENDBRANCH   5   3
ENDBRANCH   6   5
ENDBRANCH   9   7
TORSDOF 8
ENDMDL
MODEL 3
REMARK VINA RESULT:      -9.0      2.606      4.761
REMARK  Name = 
REMARK  8 active torsions:
REMARK  status: ('A' for Active; 'I' for Inactive)
REMARK    1  A    between atoms: O_2  and  C_3
REMARK    2  A    between atoms: C_3  and  C_5
REMARK    3  A    between atoms: C_5  and  N_6
REMARK    4  A    between atoms: C_5  and  C_34
REMARK    5  A    between atoms: C_7  and  C_9
REMARK    6  A    between atoms: C_11  and  N_22
REMARK    7  A    between atoms: C_14  and  C_16
REMARK    8  A    between atoms: N_25  and  C_26
REMARK                            x       y       z     vdW  Elec       q    Type
REMARK                         _______ _______ _______ _____ _____    ______ ____
ROOT
ATOM      9  C   UNL     1      -2.845   1.024  24.559  0.00  0.00    +0.156 C 
ATOM     10  C   UNL     1      -2.049   1.236  24.578  0.00  0.00    +0.053 C 
ATOM     11  C   UNL     1      -1.609   0.560  24.751  0.00  0.00    +0.119 C 
ATOM     12  C   UNL     1      -2.134  -0.070  24.840  0.00  0.00    +0.116 C 
ATOM     13  N   UNL     1      -2.898   0.217  24.721  0.00  0.00    -0.266 N 
ATOM     14  C   UNL     1      -3.593  -0.225  24.758  0.00  0.00    +0.265 C 
ATOM     15  O   UNL     1      -4.322   0.139  24.627  0.00  0.00    -0.268 OA
ENDROOT
BRANCH  14  16
ATOM     16  C   UNL     1      -3.561  -1.032  24.927  0.00  0.00    +0.114 A 
ATOM     17  C   UNL     1      -3.286  -1.370  25.628  0.00  0.00    +0.023 A 
ATOM     18  C   UNL     1      -3.352  -2.189  25.559  0.00  0.00    +0.020 A 
ATOM     19  C   UNL     1      -3.668  -2.358  24.816  0.00  0.00    +0.076 A 
ATOM     20  N   UNL     1      -3.797  -1.643  24.425  0.00  0.00    -0.320 N 
ATOM     21  C   UNL     1      -4.107  -1.554  23.666  0.00  0.00    +0.131 C 
ENDBRANCH  14  16
BRANCH  11  22
ATOM     22  N   UNL     1      -0.788   0.520  24.823  0.00  0.00    -0.187 NA
ATOM     23  C   UNL     1      -0.319   0.409  24.153  0.00  0.00    +0.344 C 
ATOM     24  O   UNL     1      -0.672   0.338  23.411  0.00  0.00    -0.249 OA
ATOM     25  N   UNL     1       0.501   0.370  24.225  0.00  0.00    -0.159 NA
BRANCH  25  26
ATOM     26  C   UNL     1       0.969   0.258  23.556  0.00  0.00    +0.102 A 
ATOM     27  C   UNL     1       1.573   0.793  23.380  0.00  0.00    +0.158 A 
ATOM     28  F   UNL     1       1.707   1.440  23.875  0.00  0.00    -0.203 F 
ATOM     29  C   UNL     1       2.041   0.682  22.710  0.00  0.00    +0.061 A 
ATOM     30  C   UNL     1       1.906   0.035  22.216  0.00  0.00    +0.142 A 
ATOM     31  F   UNL     1       2.375  -0.077  21.545  0.00  0.00    -0.204 F 
ATOM     32  C   UNL     1       1.303  -0.500  22.391  0.00  0.00    +0.031 A 
ATOM     33  C   UNL     1       0.835  -0.388  23.061  0.00  0.00    +0.021 A 
ENDBRANCH  25  26
ENDBRANCH  11  22
BRANCH   9   7
ATOM      6  N   UNL     1      -3.614   2.180  24.896  0.00  0.00    -0.194 NA
ATOM      7  C   UNL     1      -3.478   1.531  24.406  0.00  0.00    +0.260 C 
ATOM      8  O   UNL     1      -3.975   1.388  23.763  0.00  0.00    -0.272 OA
BRANCH   6   5
ATOM      5  C   UNL     1      -4.248   2.687  24.742  0.00  0.00    +0.193 C 
BRANCH   5  34
ATOM     34  C   UNL     1      -4.152   3.322  24.224  0.00  0.00    +0.031 C 
ATOM     35  C   UNL     1      -3.747   3.999  24.470  0.00  0.00    +0.002 C 
ATOM     36  C   UNL     1      -4.460   3.282  23.460  0.00  0.00    +0.002 C 
ENDBRANCH   5  34
BRANCH   5   3
ATOM      3  C   UNL     1      -4.976   2.559  25.107  0.00  0.00    +0.337 C 
ATOM      4  O   UNL     1      -5.632   2.345  24.655  0.00  0.00    -0.248 OA
BRANCH   3   2
ATOM      1  C   UNL     1      -5.787   2.572  26.283  0.00  0.00    +0.256 C 
ATOM      2  O   UNL     1      -5.048   2.644  25.925  0.00  0.00    -0.443 OA
ENDBRANCH   3   2
ENDBRANCH   5   3
ENDBRANCH   6   5
ENDBRANCH   9   7
TORSDOF 8
ENDMDL
MODEL 4
REMARK VINA RESULT:      -8.7      1.327      3.367
REMARK  Name = 
REMARK  8 active torsions:
REMARK  status: ('A' for Active; 'I' for Inactive)
REMARK    1  A    between atoms: O_2  and  C_3
REMARK    2  A    between atoms: C_3  and  C_5
REMARK    3  A    between atoms: C_5  and  N_6
REMARK    4  A    between atoms: C_5  and  C_34
REMARK    5  A    between atoms: C_7  and  C_9
REMARK    6  A    between atoms: C_11  and  N_22
REMARK    7  A    between atoms: C_14  and  C_16
REMARK    8  A    between atoms: N_25  and  C_26
REMARK                            x       y       z     vdW  Elec       q    Type
REMARK                         _______ _______ _______ _____ _____    ______ ____
ROOT
ATOM      9  C   UNL     1      -2.324   1.829  24.941  0.00  0.00    +0.156 C 
ATOM     10  C   UNL     1      -2.728   1.183  25.259  0.00  0.00    +0.053 C 
ATOM     11  C   UNL     1      -2.238   0.523  25.199  0.00  0.00    +0.119 C 
ATOM     12  C   UNL     1      -1.531   0.760  24.845  0.00  0.00    +0.116 C 
ATOM     13  N   UNL     1      -1.585   1.567  24.686  0.00  0.00    -0.266 N 
ATOM     14  C   UNL     1      -1.002   2.032  24.333  0.00  0.00    +0.265 C 
ATOM     15  O   UNL     1      -1.135   2.837  24.207  0.00  0.00    -0.268 OA
ENDROOT
BRANCH  14  16
ATOM     16  C   UNL     1      -0.286   1.692  24.105  0.00  0.00    +0.114 A 
ATOM     17  C   UNL     1      -0.184   1.126  23.512  0.00  0.00    +0.023 A 
ATOM     18  C   UNL     1       0.619   0.943  23.470  0.00  0.00    +0.020 A 
ATOM     19  C   UNL     1       1.014   1.395  24.035  0.00  0.00    +0.076 A 
ATOM     20  N   UNL     1       0.455   1.858  24.428  0.00  0.00    -0.320 N 
ATOM     21  C   UNL     1       0.609   2.393  25.036  0.00  0.00    +0.131 C 
ENDBRANCH  14  16
BRANCH  11  22
ATOM     22  N   UNL     1      -2.421  -0.242  25.450  0.00  0.00    -0.187 NA
ATOM     23  C   UNL     1      -2.854  -0.745  24.960  0.00  0.00    +0.344 C 
ATOM     24  O   UNL     1      -3.103  -0.483  24.218  0.00  0.00    -0.249 OA
ATOM     25  N   UNL     1      -3.037  -1.509  25.210  0.00  0.00    -0.159 NA
BRANCH  25  26
ATOM     26  C   UNL     1      -3.470  -2.011  24.720  0.00  0.00    +0.102 A 
ATOM     27  C   UNL     1      -3.259  -2.807  24.654  0.00  0.00    +0.158 A 
ATOM     28  F   UNL     1      -2.614  -3.098  25.079  0.00  0.00    -0.203 F 
ATOM     29  C   UNL     1      -3.692  -3.309  24.163  0.00  0.00    +0.061 A 
ATOM     30  C   UNL     1      -4.336  -3.017  23.739  0.00  0.00    +0.142 A 
ATOM     31  F   UNL     1      -4.769  -3.519  23.248  0.00  0.00    -0.204 F 
ATOM     32  C   UNL     1      -4.547  -2.221  23.804  0.00  0.00    +0.031 A 
ATOM     33  C   UNL     1      -4.114  -1.720  24.295  0.00  0.00    +0.021 A 
ENDBRANCH  25  26
ENDBRANCH  11  22
BRANCH   9   7
ATOM      6  N   UNL     1      -2.942   2.963  25.551  0.00  0.00    -0.194 NA
ATOM      7  C   UNL     1      -2.611   2.601  24.889  0.00  0.00    +0.260 C 
ATOM      8  O   UNL     1      -2.565   3.010  24.174  0.00  0.00    -0.272 OA
BRANCH   6   5
ATOM      5  C   UNL     1      -3.229   3.736  25.499  0.00  0.00    +0.193 C 
BRANCH   5  34
ATOM     34  C   UNL     1      -2.760   4.368  25.747  0.00  0.00    +0.031 C 
ATOM     35  C   UNL     1      -2.540   4.432  26.541  0.00  0.00    +0.002 C 
ATOM     36  C   UNL     1      -2.511   4.936  25.204  0.00  0.00    +0.002 C 
ENDBRANCH   5  34
BRANCH   5   3
ATOM      3  C   UNL     1      -3.984   3.876  25.198  0.00  0.00    +0.337 C 
ATOM      4  O   UNL     1      -4.075   4.192  24.441  0.00  0.00    -0.248 OA
BRANCH   3   2
ATOM      1  C   UNL     1      -5.404   3.813  25.343  0.00  0.00    +0.256 C 
ATOM      2  O   UNL     1      -4.649   3.698  25.654  0.00  0.00    -0.443 OA
ENDBRANCH   3   2
ENDBRANCH   5   3
ENDBRANCH   6   5
ENDBRANCH   9   7
TORSDOF 8
ENDMDL
MODEL 5
REMARK VINA RESULT:      -8.6      2.229      4.669
REMARK  Name = 
REMARK  8 active torsions:
REMARK  status: ('A' for Active; 'I' for Inactive)
REMARK    1  A    between atoms: O_2  and  C_3
REMARK    2  A    between atoms: C_3  and  C_5
REMARK    3  A    between atoms: C_5  and  N_6
REMARK    4  A    between atoms: C_5  and  C_34
REMARK    5  A    between atoms: C_7  and  C_9
REMARK    6  A    between atoms: C_11  and  N_22
REMARK    7  A    between atoms: C_14  and  C_16
REMARK    8  A    between atoms: N_25  and  C_26
REMARK                            x       y       z     vdW  Elec       q    Type
REMARK                         _______ _______ _______ _____ _____    ______ ____
ROOT
ATOM      9  C   UNL     1      -1.990   0.301  24.388  0.00  0.00    +0.156 C 
ATOM     10  C   UNL     1      -2.561   0.863  24.193  0.00  0.00    +0.053 C 
ATOM     11  C   UNL     1      -3.300   0.497  24.227  0.00  0.00    +0.119 C 
ATOM     12  C   UNL     1      -3.185  -0.291  24.443  0.00  0.00    +0.116 C 
ATOM     13  N   UNL     1      -2.375  -0.412  24.542  0.00  0.00    -0.266 N 
ATOM     14  C   UNL     1      -2.014  -1.122  24.758  0.00  0.00    +0.265 C 
ATOM     15  O   UNL     1      -1.193  -1.160  24.837  0.00  0.00    -0.268 OA
ENDROOT
BRANCH  14  16
ATOM     16  C   UNL     1      -2.473  -1.793  24.895  0.00  0.00    +0.114 A 
ATOM     17  C   UNL     1      -3.099  -1.852  25.430  0.00  0.00    +0.023 A 
ATOM     18  C   UNL     1      -3.400  -2.618  25.388  0.00  0.00    +0.020 A 
ATOM     19  C   UNL     1      -2.960  -3.035  24.827  0.00  0.00    +0.076 A 
ATOM     20  N   UNL     1      -2.387  -2.524  24.523  0.00  0.00    -0.320 N 
ATOM     21  C   UNL     1      -1.827  -2.712  23.947  0.00  0.00    +0.131 C 
ENDBRANCH  14  16
BRANCH  11  22
ATOM     22  N   UNL     1      -4.027   0.857  24.072  0.00  0.00    -0.187 NA
ATOM     23  C   UNL     1      -4.258   1.521  24.502  0.00  0.00    +0.344 C 
ATOM     24  O   UNL     1      -3.763   1.828  25.087  0.00  0.00    -0.249 OA
ATOM     25  N   UNL     1      -4.984   1.880  24.347  0.00  0.00    -0.159 NA
BRANCH  25  26
ATOM     26  C   UNL     1      -5.216   2.545  24.776  0.00  0.00    +0.102 A 
ATOM     27  C   UNL     1      -5.902   2.523  25.235  0.00  0.00    +0.158 A 
ATOM     28  F   UNL     1      -6.356   1.834  25.263  0.00  0.00    -0.203 F 
ATOM     29  C   UNL     1      -6.134   3.189  25.664  0.00  0.00    +0.061 A 
ATOM     30  C   UNL     1      -5.679   3.876  25.635  0.00  0.00    +0.142 A 
ATOM     31  F   UNL     1      -5.910   4.542  26.065  0.00  0.00    -0.204 F 
ATOM     32  C   UNL     1      -4.992   3.899  25.177  0.00  0.00    +0.031 A 
ATOM     33  C   UNL     1      -4.762   3.233  24.748  0.00  0.00    +0.021 A 
ENDBRANCH  25  26
ENDBRANCH  11  22
BRANCH   9   7
ATOM      6  N   UNL     1      -0.785   0.774  23.783  0.00  0.00    -0.194 NA
ATOM      7  C   UNL     1      -1.175   0.429  24.423  0.00  0.00    +0.260 C 
ATOM      8  O   UNL     1      -0.751   0.213  25.097  0.00  0.00    -0.272 OA
BRANCH   6   5
ATOM      5  C   UNL     1       0.030   0.902  23.817  0.00  0.00    +0.193 C 
BRANCH   5  34
ATOM     34  C   UNL     1       0.325   1.579  24.184  0.00  0.00    +0.031 C 
ATOM     35  C   UNL     1       0.801   1.511  24.856  0.00  0.00    +0.002 C 
ATOM     36  C   UNL     1       0.146   2.325  23.881  0.00  0.00    +0.002 C 
ENDBRANCH   5  34
BRANCH   5   3
ATOM      3  C   UNL     1       0.548   0.353  23.484  0.00  0.00    +0.337 C 
ATOM      4  O   UNL     1       1.097  -0.037  23.960  0.00  0.00    -0.248 OA
BRANCH   3   2
ATOM      1  C   UNL     1       1.087  -0.287  22.326  0.00  0.00    +0.256 C 
ATOM      2  O   UNL     1       0.515   0.195  22.674  0.00  0.00    -0.443 OA
ENDBRANCH   3   2
ENDBRANCH   5   3
ENDBRANCH   6   5
ENDBRANCH   9   7
TORSDOF 8
ENDMDL
MODEL 6
REMARK VINA RESULT:      -8.3      3.442      5.770
REMARK  Name = 
REMARK  8 active torsions:
REMARK  status: ('A' for Active; 'I' for Inactive)
REMARK    1  A    between atoms: O_2  and  C_3
REMARK    2  A    between atoms: C_3  and  C_5
REMARK    3  A    between atoms: C_5  and  N_6
REMARK    4  A    between atoms: C_5  and  C_34
REMARK    5  A    between atoms: C_7  and  C_9
REMARK    6  A    between atoms: C_11  and  N_22
REMARK    7  A    between atoms: C_14  and  C_16
REMARK    8  A    between atoms: N_25  and  C_26
REMARK                            x       y       z     vdW  Elec       q    Type
REMARK                         _______ _______ _______ _____ _____    ______ ____
ROOT
ATOM      9  C   UNL     1      -0.646  -0.046  24.331  0.00  0.00    +0.156 C 
ATOM     10  C   UNL     1      -0.130  -0.241  23.719  0.00  0.00    +0.053 C 
ATOM     11  C   UNL     1       0.322   0.427  23.544  0.00  0.00    +0.119 C 
ATOM     12  C   UNL     1       0.084   1.035  24.049  0.00  0.00    +0.116 C 
ATOM     13  N   UNL     1      -0.515   0.742  24.536  0.00  0.00    -0.266 N 
ATOM     14  C   UNL     1      -0.911   1.163  25.123  0.00  0.00    +0.265 C 
ATOM     15  O   UNL     1      -1.501   0.795  25.568  0.00  0.00    -0.268 OA
ENDROOT
BRANCH  14  16
ATOM     16  C   UNL     1      -0.719   1.953  25.266  0.00  0.00    +0.114 A 
ATOM     17  C   UNL     1      -0.009   2.229  25.585  0.00  0.00    +0.023 A 
ATOM     18  C   UNL     1      -0.053   3.051  25.632  0.00  0.00    +0.020 A 
ATOM     19  C   UNL     1      -0.790   3.284  25.343  0.00  0.00    +0.076 A 
ATOM     20  N   UNL     1      -1.202   2.604  25.117  0.00  0.00    -0.320 N 
ATOM     21  C   UNL     1      -1.962   2.582  24.798  0.00  0.00    +0.131 C 
ENDBRANCH  14  16
BRANCH  11  22
ATOM     22  N   UNL     1       0.908   0.479  22.966  0.00  0.00    -0.187 NA
ATOM     23  C   UNL     1       1.699   0.355  23.167  0.00  0.00    +0.344 C 
ATOM     24  O   UNL     1       1.902   0.180  23.948  0.00  0.00    -0.249 OA
ATOM     25  N   UNL     1       2.285   0.407  22.590  0.00  0.00    -0.159 NA
BRANCH  25  26
ATOM     26  C   UNL     1       3.075   0.284  22.791  0.00  0.00    +0.102 A 
ATOM     27  C   UNL     1       3.615   0.907  22.747  0.00  0.00    +0.158 A 
ATOM     28  F   UNL     1       3.363   1.653  22.502  0.00  0.00    -0.203 F 
ATOM     29  C   UNL     1       4.405   0.782  22.949  0.00  0.00    +0.061 A 
ATOM     30  C   UNL     1       4.656   0.036  23.194  0.00  0.00    +0.142 A 
ATOM     31  F   UNL     1       5.446  -0.088  23.396  0.00  0.00    -0.204 F 
ATOM     32  C   UNL     1       4.116  -0.588  23.238  0.00  0.00    +0.031 A 
ATOM     33  C   UNL     1       3.326  -0.463  23.037  0.00  0.00    +0.021 A 
ENDBRANCH  25  26
ENDBRANCH  11  22
BRANCH   9   7
ATOM      6  N   UNL     1      -1.772  -0.918  24.213  0.00  0.00    -0.194 NA
ATOM      7  C   UNL     1      -1.199  -0.552  24.679  0.00  0.00    +0.260 C 
ATOM      8  O   UNL     1      -1.177  -0.691  25.492  0.00  0.00    -0.272 OA
BRANCH   6   5
ATOM      5  C   UNL     1      -2.325  -1.424  24.560  0.00  0.00    +0.193 C 
BRANCH   5  34
ATOM     34  C   UNL     1      -2.107  -2.192  24.769  0.00  0.00    +0.031 C 
ATOM     35  C   UNL     1      -1.832  -2.714  24.192  0.00  0.00    +0.002 C 
ATOM     36  C   UNL     1      -2.165  -2.438  25.554  0.00  0.00    +0.002 C 
ENDBRANCH   5  34
BRANCH   5   3
ATOM      3  C   UNL     1      -3.094  -1.160  24.699  0.00  0.00    +0.337 C 
ATOM      4  O   UNL     1      -3.405  -1.174  25.463  0.00  0.00    -0.248 OA
BRANCH   3   2
ATOM      1  C   UNL     1      -4.335  -0.652  24.203  0.00  0.00    +0.256 C 
ATOM      2  O   UNL     1      -3.554  -0.882  24.071  0.00  0.00    -0.443 OA
ENDBRANCH   3   2
ENDBRANCH   5   3
ENDBRANCH   6   5
ENDBRANCH   9   7
TORSDOF 8
ENDMDL
