MODEL 1
REMARK VINA RESULT:     -12.0      0.000      0.000
REMARK  Name = 
REMARK  6 active torsions:
REMARK  status: ('A' for Active; 'I' for Inactive)
REMARK    1  A    between atoms: C_5  and  S_8
REMARK    2  A    between atoms: S_8  and  N_11
REMARK    3  A    between atoms: N_11  and  C_12
REMARK    4  A    between atoms: C_16  and  O_20
REMARK    5  A    between atoms: O_20  and  C_21
REMARK    6  A    between atoms: N_23  and  C_24
REMARK                            x       y       z     vdW  Elec       q    Type
REMARK                         _______ _______ _______ _____ _____    ______ ____
ROOT
ATOM     12  C   UNL     1      -0.366   1.498  25.065  0.00  0.00    +0.157 C 
ATOM     13  C   UNL     1      -0.768   1.436  25.783  0.00  0.00    +0.164 C 
ATOM     14  O   UNL     1      -1.007   0.652  25.874  0.00  0.00    -0.348 OA
ATOM     15  C   UNL     1      -0.753   0.229  25.213  0.00  0.00    +0.186 C 
ATOM     16  C   UNL     1      -0.744  -0.516  24.860  0.00  0.00    +0.229 C 
ATOM     17  C   UNL     1      -0.342  -0.454  24.142  0.00  0.00    +0.188 C 
ATOM     18  O   UNL     1      -0.103   0.330  24.051  0.00  0.00    -0.348 OA
ATOM     19  C   UNL     1      -0.357   0.753  24.713  0.00  0.00    +0.166 C 
ENDROOT
BRANCH  12  11
ATOM     11  N   UNL     1      -0.032   2.186  24.754  0.00  0.00    -0.074 NA
BRANCH  11   8
ATOM      8  S   UNL     1      -0.416   2.910  24.848  0.00  0.00    +0.077 S 
ATOM      9  O   UNL     1      -0.780   2.813  24.114  0.00  0.00    -0.152 OA
ATOM     10  O   UNL     1      -0.052   3.008  25.582  0.00  0.00    -0.152 OA
BRANCH   8   5
ATOM      1  C   UNL     1      -1.951   5.807  25.225  0.00  0.00    +0.031 C 
ATOM      2  C   UNL     1      -1.566   5.083  25.131  0.00  0.00    -0.022 A 
ATOM      3  C   UNL     1      -0.786   5.061  24.866  0.00  0.00    -0.003 A 
ATOM      4  C   UNL     1      -0.401   4.337  24.772  0.00  0.00    +0.020 A 
ATOM      5  C   UNL     1      -0.799   3.634  24.942  0.00  0.00    +0.124 A 
ATOM      6  C   UNL     1      -1.580   3.656  25.207  0.00  0.00    +0.020 A 
ATOM      7  C   UNL     1      -1.964   4.380  25.301  0.00  0.00    -0.003 A 
ENDBRANCH   8   5
ENDBRANCH  11   8
ENDBRANCH  12  11
BRANCH  16  20
ATOM     20  O   UNL     1      -1.078  -1.204  25.171  0.00  0.00    -0.432 OA
BRANCH  20  21
ATOM     21  C   UNL     1      -1.704  -1.572  24.779  0.00  0.00    +0.421 C 
ATOM     22  O   UNL     1      -1.570  -1.964  24.066  0.00  0.00    -0.225 OA
ATOM     23  N   UNL     1      -2.463  -1.548  25.101  0.00  0.00    -0.170 NA
BRANCH  23  24
ATOM     24  C   UNL     1      -3.089  -1.916  24.709  0.00  0.00    +0.099 C 
ATOM     25  C   UNL     1      -3.624  -1.467  24.271  0.00  0.00    +0.022 C 
ATOM     26  C   UNL     1      -4.249  -1.835  23.880  0.00  0.00    +0.002 C 
ATOM     27  C   UNL     1      -4.341  -2.654  23.927  0.00  0.00    +0.000 C 
ATOM     28  C   UNL     1      -3.805  -3.104  24.365  0.00  0.00    +0.002 C 
ATOM     29  C   UNL     1      -3.180  -2.735  24.756  0.00  0.00    +0.022 C 
ENDBRANCH  23  24
ENDBRANCH  20  21
ENDBRANCH  16  20
TORSDOF 6
ENDMDL
MODEL 2
REMARK VINA RESULT:     -11.3      1.061      5.658
REMARK  Name = 
REMARK  6 active torsions:
REMARK  status: ('A' for Active; 'I' for Inactive)
REMARK    1  A    between atoms: C_5  and  S_8
REMARK    2  A    between atoms: S_8  and  N_11
REMARK    3  A    between atoms: N_11  and  C_12
REMARK    4  A    between atoms: C_16  and  O_20
REMARK    5  A    between atoms: O_20  and  C_21
REMARK    6  A    between atoms: N_23  and  C_24
REMARK                            x       y       z     vdW  Elec       q    Type
REMARK                         _______ _______ _______ _____ _____    ______ ____
ROOT
ATOM     12  C   UNL     1      -1.029  -0.473  24.935  0.00  0.00    +0.157 C 
ATOM     13  C   UNL     1      -0.830  -0.368  24.142  0.00  0.00    +0.164 C 
ATOM     14  O   UNL     1      -0.520   0.391  24.056  0.00  0.00    -0.348 OA
ATOM     15  C   UNL     1      -0.528   0.756  24.795  0.00  0.00    +0.186 C 
ATOM     16  C   UNL     1      -0.342   1.450  25.200  0.00  0.00    +0.229 C 
ATOM     17  C   UNL     1      -0.542   1.345  25.993  0.00  0.00    +0.188 C 
ATOM     18  O   UNL     1      -0.851   0.586  26.079  0.00  0.00    -0.348 OA
ATOM     19  C   UNL     1      -0.843   0.221  25.339  0.00  0.00    +0.166 C 
ENDROOT
BRANCH  12  11
ATOM     11  N   UNL     1      -1.358  -1.154  25.267  0.00  0.00    -0.074 NA
BRANCH  11   8
ATOM      8  S   UNL     1      -2.046  -1.478  24.947  0.00  0.00    +0.077 S 
ATOM      9  O   UNL     1      -2.488  -1.145  25.558  0.00  0.00    -0.152 OA
ATOM     10  O   UNL     1      -1.605  -1.812  24.335  0.00  0.00    -0.152 OA
BRANCH   8   5
ATOM      1  C   UNL     1      -4.795  -2.778  23.665  0.00  0.00    +0.031 C 
ATOM      2  C   UNL     1      -4.108  -2.452  23.985  0.00  0.00    -0.022 A 
ATOM      3  C   UNL     1      -4.029  -1.634  24.047  0.00  0.00    -0.003 A 
ATOM      4  C   UNL     1      -3.341  -1.309  24.367  0.00  0.00    +0.020 A 
ATOM      5  C   UNL     1      -2.734  -1.803  24.626  0.00  0.00    +0.124 A 
ATOM      6  C   UNL     1      -2.813  -2.622  24.565  0.00  0.00    +0.020 A 
ATOM      7  C   UNL     1      -3.500  -2.946  24.245  0.00  0.00    -0.003 A 
ENDBRANCH   8   5
ENDBRANCH  11   8
ENDBRANCH  12  11
BRANCH  16  20
ATOM     20  O   UNL     1      -0.013   2.131  24.869  0.00  0.00    -0.432 OA
BRANCH  20  21
ATOM     21  C   UNL     1      -0.302   2.874  25.081  0.00  0.00    +0.421 C 
ATOM     22  O   UNL     1      -0.122   3.190  25.821  0.00  0.00    -0.225 OA
ATOM     23  N   UNL     1      -0.770   3.301  24.553  0.00  0.00    -0.170 NA
BRANCH  23  24
ATOM     24  C   UNL     1      -1.058   4.045  24.765  0.00  0.00    +0.099 C 
ATOM     25  C   UNL     1      -0.602   4.718  24.632  0.00  0.00    +0.022 C 
ATOM     26  C   UNL     1      -0.890   5.461  24.844  0.00  0.00    +0.002 C 
ATOM     27  C   UNL     1      -1.636   5.531  25.190  0.00  0.00    +0.000 C 
ATOM     28  C   UNL     1      -2.093   4.856  25.324  0.00  0.00    +0.002 C 
ATOM     29  C   UNL     1      -1.804   4.114  25.112  0.00  0.00    +0.022 C 
ENDBRANCH  23  24
ENDBRANCH  20  21
ENDBRANCH  16  20
TORSDOF 6
ENDMDL
MODEL 3
REMARK VINA RESULT:     -11.0      2.247      2.882
REMARK  Name = 
REMARK  6 active torsions:
REMARK  status: ('A' for Active; 'I' for Inactive)
REMARK    1  A    between atoms: C_5  and  S_8
REMARK    2  A    between atoms: S_8  and  N_11
REMARK    3  A    between atoms: N_11  and  C_12
REMARK    4  A    between atoms: C_16  and  O_20
REMARK    5  A    between atoms: O_20  and  C_21
REMARK    6  A    between atoms: N_23  and  C_24
REMARK                            x       y       z     vdW  Elec       q    Type
REMARK                         _______ _______ _______ _____ _____    ______ ____
ROOT
ATOM     12  C   UNL     1      -3.905   2.699  24.734  0.00  0.00    +0.157 C 
ATOM     13  C   UNL     1      -3.642   2.548  23.967  0.00  0.00    +0.164 C 
ATOM     14  O   UNL     1      -3.865   1.780  23.768  0.00  0.00    -0.348 OA
ATOM     15  C   UNL     1      -4.266   1.455  24.410  0.00  0.00    +0.186 C 
ATOM     16  C   UNL     1      -4.653   0.780  24.685  0.00  0.00    +0.229 C 
ATOM     17  C   UNL     1      -4.916   0.931  25.452  0.00  0.00    +0.188 C 
ATOM     18  O   UNL     1      -4.693   1.699  25.652  0.00  0.00    -0.348 OA
ATOM     19  C   UNL     1      -4.291   2.023  25.008  0.00  0.00    +0.166 C 
ENDROOT
BRANCH  12  11
ATOM     11  N   UNL     1      -3.801   3.402  25.154  0.00  0.00    -0.074 NA
BRANCH  11   8
ATOM      8  S   UNL     1      -3.083   3.807  25.109  0.00  0.00    +0.077 S 
ATOM      9  O   UNL     1      -3.326   4.160  24.404  0.00  0.00    -0.152 OA
ATOM     10  O   UNL     1      -2.840   3.454  25.813  0.00  0.00    -0.152 OA
BRANCH   8   5
ATOM      1  C   UNL     1      -0.214   5.427  24.931  0.00  0.00    +0.031 C 
ATOM      2  C   UNL     1      -0.931   5.021  24.976  0.00  0.00    -0.022 A 
ATOM      3  C   UNL     1      -0.941   4.197  24.953  0.00  0.00    -0.003 A 
ATOM      4  C   UNL     1      -1.658   3.792  24.998  0.00  0.00    +0.020 A 
ATOM      5  C   UNL     1      -2.366   4.211  25.064  0.00  0.00    +0.124 A 
ATOM      6  C   UNL     1      -2.356   5.036  25.087  0.00  0.00    +0.020 A 
ATOM      7  C   UNL     1      -1.638   5.441  25.042  0.00  0.00    -0.003 A 
ENDBRANCH   8   5
ENDBRANCH  11   8
ENDBRANCH  12  11
BRANCH  16  20
ATOM     20  O   UNL     1      -4.757   0.077  24.266  0.00  0.00    -0.432 OA
BRANCH  20  21
ATOM     21  C   UNL     1      -4.349  -0.603  24.492  0.00  0.00    +0.421 C 
ATOM     22  O   UNL     1      -4.291  -0.802  25.290  0.00  0.00    -0.225 OA
ATOM     23  N   UNL     1      -4.000  -1.084  23.921  0.00  0.00    -0.170 NA
BRANCH  23  24
ATOM     24  C   UNL     1      -3.592  -1.765  24.147  0.00  0.00    +0.099 C 
ATOM     25  C   UNL     1      -2.789  -1.723  24.329  0.00  0.00    +0.022 C 
ATOM     26  C   UNL     1      -2.381  -2.403  24.555  0.00  0.00    +0.002 C 
ATOM     27  C   UNL     1      -2.777  -3.126  24.599  0.00  0.00    +0.000 C 
ATOM     28  C   UNL     1      -3.580  -3.168  24.417  0.00  0.00    +0.002 C 
ATOM     29  C   UNL     1      -3.988  -2.487  24.191  0.00  0.00    +0.022 C 
ENDBRANCH  23  24
ENDBRANCH  20  21
ENDBRANCH  16  20
TORSDOF 6
ENDMDL
MODEL 4
REMARK VINA RESULT:     -10.8      2.492      6.233
REMARK  Name = 
REMARK  6 active torsions:
REMARK  status: ('A' for Active; 'I' for Inactive)
REMARK    1  A    between atoms: C_5  and  S_8
REMARK    2  A    between atoms: S_8  and  N_11
REMARK    3  A    between atoms: N_11  and  C_12
REMARK    4  A    between atoms: C_16  and  O_20
REMARK    5  A    between atoms: O_20  and  C_21
REMARK    6  A    between atoms: N_23  and  C_24
REMARK                            x       y       z     vdW  Elec       q    Type
REMARK                         _______ _______ _______ _____ _____    ______ ____
ROOT
ATOM     12  C   UNL     1      -4.562   0.869  24.705  0.00  0.00    +0.157 C 
ATOM     13  C   UNL     1      -4.127   0.970  24.011  0.00  0.00    +0.164 C 
ATOM     14  O   UNL     1      -3.958   1.774  23.933  0.00  0.00    -0.348 OA
ATOM     15  C   UNL     1      -4.288   2.169  24.576  0.00  0.00    +0.186 C 
ATOM     16  C   UNL     1      -4.389   2.909  24.927  0.00  0.00    +0.229 C 
ATOM     17  C   UNL     1      -4.824   2.807  25.620  0.00  0.00    +0.188 C 
ATOM     18  O   UNL     1      -4.992   2.004  25.699  0.00  0.00    -0.348 OA
ATOM     19  C   UNL     1      -4.661   1.609  25.054  0.00  0.00    +0.166 C 
ENDROOT
BRANCH  12  11
ATOM     11  N   UNL     1      -4.847   0.152  24.997  0.00  0.00    -0.074 NA
BRANCH  11   8
ATOM      8  S   UNL     1      -4.422  -0.544  24.870  0.00  0.00    +0.077 S 
ATOM      9  O   UNL     1      -4.790  -0.636  24.137  0.00  0.00    -0.152 OA
ATOM     10  O   UNL     1      -4.054  -0.454  25.603  0.00  0.00    -0.152 OA
BRANCH   8   5
ATOM      1  C   UNL     1      -2.721  -3.327  24.367  0.00  0.00    +0.031 C 
ATOM      2  C   UNL     1      -3.147  -2.632  24.493  0.00  0.00    -0.022 A 
ATOM      3  C   UNL     1      -3.775  -2.436  23.995  0.00  0.00    -0.003 A 
ATOM      4  C   UNL     1      -4.200  -1.741  24.121  0.00  0.00    +0.020 A 
ATOM      5  C   UNL     1      -3.997  -1.240  24.744  0.00  0.00    +0.124 A 
ATOM      6  C   UNL     1      -3.369  -1.435  25.242  0.00  0.00    +0.020 A 
ATOM      7  C   UNL     1      -2.944  -2.131  25.116  0.00  0.00    -0.003 A 
ENDBRANCH   8   5
ENDBRANCH  11   8
ENDBRANCH  12  11
BRANCH  16  20
ATOM     20  O   UNL     1      -4.103   3.626  24.634  0.00  0.00    -0.432 OA
BRANCH  20  21
ATOM     21  C   UNL     1      -3.388   3.929  24.910  0.00  0.00    +0.421 C 
ATOM     22  O   UNL     1      -3.301   4.116  25.709  0.00  0.00    -0.225 OA
ATOM     23  N   UNL     1      -2.760   4.047  24.389  0.00  0.00    -0.170 NA
BRANCH  23  24
ATOM     24  C   UNL     1      -2.044   4.350  24.666  0.00  0.00    +0.099 C 
ATOM     25  C   UNL     1      -1.963   5.160  24.798  0.00  0.00    +0.022 C 
ATOM     26  C   UNL     1      -1.248   5.463  25.074  0.00  0.00    +0.002 C 
ATOM     27  C   UNL     1      -0.613   4.956  25.219  0.00  0.00    +0.000 C 
ATOM     28  C   UNL     1      -0.694   4.146  25.087  0.00  0.00    +0.002 C 
ATOM     29  C   UNL     1      -1.410   3.843  24.810  0.00  0.00    +0.022 C 
ENDBRANCH  23  24
ENDBRANCH  20  21
ENDBRANCH  16  20
TORSDOF 6
ENDMDL
MODEL 5
REMARK VINA RESULT:      -9.5      2.947      4.918
REMARK  Name = 
REMARK  6 active torsions:
REMARK  status: ('A' for Active; 'I' for Inactive)
REMARK    1  A    between atoms: C_5  and  S_8
REMARK    2  A    between atoms: S_8  and  N_11
REMARK    3  A    between atoms: N_11  and  C_12
REMARK    4  A    between atoms: C_16  and  O_20
REMARK    5  A    between atoms: O_20  and  C_21
REMARK    6  A    between atoms: N_23  and  C_24
REMARK                            x       y       z     vdW  Elec       q    Type
REMARK                         _______ _______ _______ _____ _____    ______ ____
ROOT
ATOM     12  C   UNL     1      -1.339   0.494  24.284  0.00  0.00    +0.157 C 
ATOM     13  C   UNL     1      -1.413   1.104  23.735  0.00  0.00    +0.164 C 
ATOM     14  O   UNL     1      -0.744   1.096  23.253  0.00  0.00    -0.348 OA
ATOM     15  C   UNL     1      -0.256   0.481  23.505  0.00  0.00    +0.186 C 
ATOM     16  C   UNL     1       0.459   0.095  23.364  0.00  0.00    +0.229 C 
ATOM     17  C   UNL     1       0.533  -0.516  23.913  0.00  0.00    +0.188 C 
ATOM     18  O   UNL     1      -0.136  -0.507  24.395  0.00  0.00    -0.348 OA
ATOM     19  C   UNL     1      -0.624   0.109  24.142  0.00  0.00    +0.166 C 
ENDROOT
BRANCH  12  11
ATOM     11  N   UNL     1      -1.885   0.302  24.873  0.00  0.00    -0.074 NA
BRANCH  11   8
ATOM      8  S   UNL     1      -2.639   0.639  24.862  0.00  0.00    +0.077 S 
ATOM      9  O   UNL     1      -2.914   0.011  24.403  0.00  0.00    -0.152 OA
ATOM     10  O   UNL     1      -2.365   1.267  25.322  0.00  0.00    -0.152 OA
BRANCH   8   5
ATOM      1  C   UNL     1      -5.651   1.985  24.823  0.00  0.00    +0.031 C 
ATOM      2  C   UNL     1      -4.898   1.649  24.832  0.00  0.00    -0.022 A 
ATOM      3  C   UNL     1      -4.232   2.130  24.898  0.00  0.00    -0.003 A 
ATOM      4  C   UNL     1      -3.479   1.794  24.908  0.00  0.00    +0.020 A 
ATOM      5  C   UNL     1      -3.392   0.976  24.852  0.00  0.00    +0.124 A 
ATOM      6  C   UNL     1      -4.058   0.493  24.786  0.00  0.00    +0.020 A 
ATOM      7  C   UNL     1      -4.811   0.830  24.777  0.00  0.00    -0.003 A 
ENDBRANCH   8   5
ENDBRANCH  11   8
ENDBRANCH  12  11
BRANCH  16  20
ATOM     20  O   UNL     1       1.005   0.286  22.775  0.00  0.00    -0.432 OA
BRANCH  20  21
ATOM     21  C   UNL     1       1.795   0.420  22.973  0.00  0.00    +0.421 C 
ATOM     22  O   UNL     1       1.985   0.930  23.593  0.00  0.00    -0.225 OA
ATOM     23  N   UNL     1       2.396   0.044  22.551  0.00  0.00    -0.170 NA
BRANCH  23  24
ATOM     24  C   UNL     1       3.185   0.178  22.748  0.00  0.00    +0.099 C 
ATOM     25  C   UNL     1       3.547   0.890  22.545  0.00  0.00    +0.022 C 
ATOM     26  C   UNL     1       4.336   1.024  22.742  0.00  0.00    +0.002 C 
ATOM     27  C   UNL     1       4.765   0.444  23.143  0.00  0.00    +0.000 C 
ATOM     28  C   UNL     1       4.404  -0.270  23.347  0.00  0.00    +0.002 C 
ATOM     29  C   UNL     1       3.614  -0.402  23.149  0.00  0.00    +0.022 C 
ENDBRANCH  23  24
ENDBRANCH  20  21
ENDBRANCH  16  20
TORSDOF 6
ENDMDL
MODEL 6
REMARK VINA RESULT:      -9.3      2.894      5.813
REMARK  Name = 
REMARK  6 active torsions:
REMARK  status: ('A' for Active; 'I' for Inactive)
REMARK    1  A    between atoms: C_5  and  S_8
REMARK    2  A    between atoms: S_8  and  N_11
REMARK    3  A    between atoms: N_11  and  C_12
REMARK    4  A    between atoms: C_16  and  O_20
REMARK    5  A    between atoms: O_20  and  C_21
REMARK    6  A    between atoms: N_23  and  C_24
REMARK                            x       y       z     vdW  Elec       q    Type
REMARK                         _______ _______ _______ _____ _____    ______ ____
ROOT
ATOM     12  C   UNL     1      -0.470  -0.251  24.215  0.00  0.00    +0.157 C 
ATOM     13  C   UNL     1      -0.285  -0.948  23.815  0.00  0.00    +0.164 C 
ATOM     14  O   UNL     1       0.384  -0.807  23.354  0.00  0.00    -0.348 OA
ATOM     15  C   UNL     1       0.613  -0.023  23.469  0.00  0.00    +0.186 C 
ATOM     16  C   UNL     1       1.167   0.550  23.256  0.00  0.00    +0.229 C 
ATOM     17  C   UNL     1       0.982   1.247  23.656  0.00  0.00    +0.188 C 
ATOM     18  O   UNL     1       0.313   1.105  24.117  0.00  0.00    -0.348 OA
ATOM     19  C   UNL     1       0.084   0.320  24.001  0.00  0.00    +0.166 C 
ENDROOT
BRANCH  12  11
ATOM     11  N   UNL     1      -1.100  -0.145  24.737  0.00  0.00    -0.074 NA
BRANCH  11   8
ATOM      8  S   UNL     1      -1.804  -0.560  24.625  0.00  0.00    +0.077 S 
ATOM      9  O   UNL     1      -2.109   0.072  24.193  0.00  0.00    -0.152 OA
ATOM     10  O   UNL     1      -1.499  -1.194  25.057  0.00  0.00    -0.152 OA
BRANCH   8   5
ATOM      1  C   UNL     1      -4.619  -2.223  24.178  0.00  0.00    +0.031 C 
ATOM      2  C   UNL     1      -3.915  -1.808  24.290  0.00  0.00    -0.022 A 
ATOM      3  C   UNL     1      -3.272  -2.175  24.652  0.00  0.00    -0.003 A 
ATOM      4  C   UNL     1      -2.568  -1.760  24.764  0.00  0.00    +0.020 A 
ATOM      5  C   UNL     1      -2.508  -0.976  24.513  0.00  0.00    +0.124 A 
ATOM      6  C   UNL     1      -3.151  -0.608  24.150  0.00  0.00    +0.020 A 
ATOM      7  C   UNL     1      -3.855  -1.024  24.039  0.00  0.00    -0.003 A 
ENDBRANCH   8   5
ENDBRANCH  11   8
ENDBRANCH  12  11
BRANCH  16  20
ATOM     20  O   UNL     1       1.797   0.443  22.733  0.00  0.00    -0.432 OA
BRANCH  20  21
ATOM     21  C   UNL     1       2.574   0.503  23.005  0.00  0.00    +0.421 C 
ATOM     22  O   UNL     1       2.797   1.139  23.480  0.00  0.00    -0.225 OA
ATOM     23  N   UNL     1       3.127  -0.074  22.803  0.00  0.00    -0.170 NA
BRANCH  23  24
ATOM     24  C   UNL     1       3.904  -0.014  23.075  0.00  0.00    +0.099 C 
ATOM     25  C   UNL     1       4.370   0.629  22.855  0.00  0.00    +0.022 C 
ATOM     26  C   UNL     1       5.146   0.688  23.127  0.00  0.00    +0.002 C 
ATOM     27  C   UNL     1       5.457   0.104  23.620  0.00  0.00    +0.000 C 
ATOM     28  C   UNL     1       4.990  -0.541  23.840  0.00  0.00    +0.002 C 
ATOM     29  C   UNL     1       4.214  -0.599  23.567  0.00  0.00    +0.022 C 
ENDBRANCH  23  24
ENDBRANCH  20  21
ENDBRANCH  16  20
TORSDOF 6
ENDMDL
