MODEL 1
REMARK VINA RESULT:     -13.5      0.000      0.000
REMARK  Name = 
REMARK  5 active torsions:
REMARK  status: ('A' for Active; 'I' for Inactive)
REMARK    1  A    between atoms: C_5  and  S_8
REMARK    2  A    between atoms: S_8  and  N_11
REMARK    3  A    between atoms: N_18  and  C_22
REMARK    4  A    between atoms: C_25  and  O_26
REMARK    5  A    between atoms: O_26  and  C_27
REMARK                            x       y       z     vdW  Elec       q    Type
REMARK                         _______ _______ _______ _____ _____    ______ ____
ROOT
ATOM     11  N   UNL     1      -1.881   3.662  25.031  0.00  0.00    -0.146 NA
ATOM     12  C   UNL     1      -1.441   4.355  24.958  0.00  0.00    +0.098 C 
ATOM     13  C   UNL     1      -0.649   4.145  24.858  0.00  0.00    +0.043 C 
ATOM     14  C   UNL     1      -0.601   3.322  24.870  0.00  0.00    +0.123 C 
ATOM     15  N   UNL     1       0.038   2.804  24.797  0.00  0.00    -0.188 NA
ATOM     16  C   UNL     1      -0.085   1.990  24.832  0.00  0.00    +0.333 C 
ATOM     17  O   UNL     1       0.554   1.472  24.759  0.00  0.00    -0.250 OA
ATOM     18  N   UNL     1      -0.846   1.692  24.939  0.00  0.00    -0.190 N 
ATOM     19  C   UNL     1      -1.486   2.208  25.011  0.00  0.00    +0.254 C 
ATOM     20  O   UNL     1      -2.247   1.909  25.118  0.00  0.00    -0.273 OA
ATOM     21  C   UNL     1      -1.363   3.023  24.977  0.00  0.00    +0.176 C 
ENDROOT
BRANCH  18  22
ATOM     22  C   UNL     1      -0.969   0.876  24.973  0.00  0.00    +0.062 A 
ATOM     23  C   UNL     1      -1.018   0.497  25.704  0.00  0.00    +0.018 A 
ATOM     24  C   UNL     1      -1.141  -0.318  25.739  0.00  0.00    +0.039 A 
ATOM     25  C   UNL     1      -1.215  -0.754  25.042  0.00  0.00    +0.145 A 
ATOM     33  C   UNL     1      -1.166  -0.375  24.311  0.00  0.00    +0.039 A 
ATOM     34  C   UNL     1      -1.043   0.440  24.277  0.00  0.00    +0.018 A 
BRANCH  25  26
ATOM     26  O   UNL     1      -1.338  -1.569  25.077  0.00  0.00    -0.453 OA
BRANCH  26  27
ATOM     27  C   UNL     1      -2.095  -1.877  24.966  0.00  0.00    +0.145 A 
ATOM     28  C   UNL     1      -2.260  -2.339  24.302  0.00  0.00    +0.037 A 
ATOM     29  C   UNL     1      -3.017  -2.647  24.191  0.00  0.00    +0.003 A 
ATOM     30  C   UNL     1      -3.610  -2.493  24.745  0.00  0.00    +0.000 A 
ATOM     31  C   UNL     1      -3.445  -2.032  25.408  0.00  0.00    +0.003 A 
ATOM     32  C   UNL     1      -2.688  -1.724  25.519  0.00  0.00    +0.037 A 
ENDBRANCH  26  27
ENDBRANCH  25  26
ENDBRANCH  18  22
BRANCH  11   8
ATOM      8  S   UNL     1      -2.698   3.616  25.140  0.00  0.00    +0.064 S 
ATOM      9  O   UNL     1      -2.804   3.564  24.324  0.00  0.00    -0.153 OA
ATOM     10  O   UNL     1      -2.593   3.668  25.957  0.00  0.00    -0.153 OA
BRANCH   8   5
ATOM      1 CL   UNL     1      -5.964   3.431  25.573  0.00  0.00    -0.082 Cl
ATOM      2  C   UNL     1      -5.148   3.477  25.465  0.00  0.00    +0.058 A 
ATOM      3  C   UNL     1      -4.824   3.360  24.715  0.00  0.00    +0.013 A 
ATOM      4  C   UNL     1      -4.008   3.407  24.607  0.00  0.00    +0.021 A 
ATOM      5  C   UNL     1      -3.515   3.569  25.248  0.00  0.00    +0.122 A 
ATOM      6  C   UNL     1      -3.839   3.686  25.998  0.00  0.00    +0.021 A 
ATOM      7  C   UNL     1      -4.655   3.640  26.106  0.00  0.00    +0.013 A 
ENDBRANCH   8   5
ENDBRANCH  11   8
TORSDOF 5
ENDMDL
MODEL 2
REMARK VINA RESULT:     -12.6      2.063      3.338
REMARK  Name = 
REMARK  5 active torsions:
REMARK  status: ('A' for Active; 'I' for Inactive)
REMARK    1  A    between atoms: C_5  and  S_8
REMARK    2  A    between atoms: S_8  and  N_11
REMARK    3  A    between atoms: N_18  and  C_22
REMARK    4  A    between atoms: C_25  and  O_26
REMARK    5  A    between atoms: O_26  and  C_27
REMARK                            x       y       z     vdW  Elec       q    Type
REMARK                         _______ _______ _______ _____ _____    ______ ____
ROOT
ATOM     11  N   UNL     1      -4.377   3.453  25.384  0.00  0.00    -0.146 NA
ATOM     12  C   UNL     1      -5.024   3.929  25.571  0.00  0.00    +0.098 C 
ATOM     13  C   UNL     1      -5.698   3.453  25.573  0.00  0.00    +0.043 C 
ATOM     14  C   UNL     1      -5.468   2.684  25.387  0.00  0.00    +0.123 C 
ATOM     15  N   UNL     1      -5.895   1.983  25.308  0.00  0.00    -0.188 NA
ATOM     16  C   UNL     1      -5.507   1.282  25.113  0.00  0.00    +0.333 C 
ATOM     17  O   UNL     1      -5.935   0.581  25.035  0.00  0.00    -0.250 OA
ATOM     18  N   UNL     1      -4.690   1.282  24.997  0.00  0.00    -0.190 N 
ATOM     19  C   UNL     1      -4.262   1.982  25.075  0.00  0.00    +0.254 C 
ATOM     20  O   UNL     1      -3.445   1.982  24.959  0.00  0.00    -0.273 OA
ATOM     21  C   UNL     1      -4.651   2.684  25.270  0.00  0.00    +0.176 C 
ENDROOT
BRANCH  18  22
ATOM     22  C   UNL     1      -4.301   0.580  24.802  0.00  0.00    +0.062 A 
ATOM     23  C   UNL     1      -4.066   0.442  24.023  0.00  0.00    +0.018 A 
ATOM     24  C   UNL     1      -3.677  -0.259  23.828  0.00  0.00    +0.039 A 
ATOM     25  C   UNL     1      -3.524  -0.822  24.412  0.00  0.00    +0.145 A 
ATOM     33  C   UNL     1      -3.760  -0.683  25.190  0.00  0.00    +0.039 A 
ATOM     34  C   UNL     1      -4.148   0.017  25.385  0.00  0.00    +0.018 A 
BRANCH  25  26
ATOM     26  O   UNL     1      -3.135  -1.523  24.217  0.00  0.00    -0.453 OA
BRANCH  26  27
ATOM     27  C   UNL     1      -2.356  -1.643  24.459  0.00  0.00    +0.145 A 
ATOM     28  C   UNL     1      -2.180  -2.241  25.001  0.00  0.00    +0.037 A 
ATOM     29  C   UNL     1      -1.401  -2.362  25.244  0.00  0.00    +0.003 A 
ATOM     30  C   UNL     1      -0.798  -1.885  24.945  0.00  0.00    +0.000 A 
ATOM     31  C   UNL     1      -0.973  -1.288  24.404  0.00  0.00    +0.003 A 
ATOM     32  C   UNL     1      -1.752  -1.167  24.162  0.00  0.00    +0.037 A 
ENDBRANCH  26  27
ENDBRANCH  25  26
ENDBRANCH  18  22
BRANCH  11   8
ATOM      8  S   UNL     1      -3.593   3.703  25.322  0.00  0.00    +0.064 S 
ATOM      9  O   UNL     1      -3.706   3.861  24.521  0.00  0.00    -0.153 OA
ATOM     10  O   UNL     1      -3.479   3.544  26.124  0.00  0.00    -0.153 OA
BRANCH   8   5
ATOM      1 CL   UNL     1      -0.458   4.702  25.074  0.00  0.00    -0.082 Cl
ATOM      2  C   UNL     1      -1.241   4.452  25.136  0.00  0.00    +0.058 A 
ATOM      3  C   UNL     1      -1.770   4.597  24.520  0.00  0.00    +0.013 A 
ATOM      4  C   UNL     1      -2.554   4.347  24.582  0.00  0.00    +0.021 A 
ATOM      5  C   UNL     1      -2.808   3.952  25.260  0.00  0.00    +0.122 A 
ATOM      6  C   UNL     1      -2.279   3.808  25.876  0.00  0.00    +0.021 A 
ATOM      7  C   UNL     1      -1.496   4.057  25.814  0.00  0.00    +0.013 A 
ENDBRANCH   8   5
ENDBRANCH  11   8
TORSDOF 5
ENDMDL
