MODEL 1
REMARK VINA RESULT:     -12.3      0.000      0.000
REMARK  Name = 
REMARK  6 active torsions:
REMARK  status: ('A' for Active; 'I' for Inactive)
REMARK    1  A    between atoms: C_2  and  C_22
REMARK    2  A    between atoms: C_9  and  N_10
REMARK    3  A    between atoms: N_13  and  C_14
REMARK    4  A    between atoms: C_22  and  C_24
REMARK    5  A    between atoms: N_26  and  C_27
REMARK    6  A    between atoms: C_27  and  C_28
REMARK                            x       y       z     vdW  Elec       q    Type
REMARK                         _______ _______ _______ _____ _____    ______ ____
ROOT
ATOM      1  C   UNL     1      -4.118   2.820  24.464  0.00  0.00    +0.052 C 
ATOM      2  C   UNL     1      -4.720   2.868  25.026  0.00  0.00    -0.001 C 
ATOM      3  C   UNL     1      -5.096   2.182  25.287  0.00  0.00    -0.000 C 
ATOM      4  C   UNL     1      -4.869   1.447  24.987  0.00  0.00    -0.001 C 
ATOM      5  C   UNL     1      -5.472   1.495  25.549  0.00  0.00    -0.000 C 
ATOM      6  C   UNL     1      -5.246   0.761  25.248  0.00  0.00    +0.002 C 
ATOM      7  C   UNL     1      -5.020   0.027  24.948  0.00  0.00    +0.022 C 
ATOM      8  C   UNL     1      -4.418  -0.022  24.385  0.00  0.00    +0.097 C 
ATOM     15  C   UNL     1      -4.042   0.664  24.124  0.00  0.00    +0.019 C 
ATOM     16  C   UNL     1      -3.440   0.616  23.562  0.00  0.00    +0.002 C 
ATOM     17  C   UNL     1      -4.268   1.399  24.425  0.00  0.00    +0.045 C 
ATOM     18  C   UNL     1      -3.892   2.084  24.164  0.00  0.00    +0.145 C 
ATOM     19  O   UNL     1      -3.290   2.037  23.601  0.00  0.00    -0.224 OA
ENDROOT
BRANCH   8   9
ATOM      9  N   UNL     1      -4.192  -0.755  24.085  0.00  0.00    -0.189 NA
ATOM     10  C   UNL     1      -3.950  -1.355  24.599  0.00  0.00    +0.339 C 
ATOM     11  O   UNL     1      -3.933  -1.219  25.413  0.00  0.00    -0.249 OA
ATOM     12  N   UNL     1      -3.724  -2.089  24.298  0.00  0.00    -0.187 NA
BRANCH  12  13
ATOM     13  C   UNL     1      -3.482  -2.688  24.812  0.00  0.00    +0.117 C 
ATOM     14  C   UNL     1      -3.152  -3.381  24.510  0.00  0.00    +0.025 C 
ENDBRANCH  12  13
ENDBRANCH   8   9
BRANCH   1  20
ATOM     20  C   UNL     1      -3.741   3.505  24.202  0.00  0.00    +0.077 C 
ATOM     21  C   UNL     1      -3.915   3.811  23.456  0.00  0.00    +0.009 C 
BRANCH  20  22
ATOM     22  C   UNL     1      -3.192   3.885  24.686  0.00  0.00    +0.241 C 
ATOM     23  O   UNL     1      -3.413   4.558  25.111  0.00  0.00    -0.273 OA
ATOM     24  N   UNL     1      -2.423   3.594  24.746  0.00  0.00    -0.201 NA
BRANCH  24  25
ATOM     25  C   UNL     1      -1.874   3.974  25.229  0.00  0.00    +0.141 C 
BRANCH  25  26
ATOM     26  C   UNL     1      -1.195   3.575  25.477  0.00  0.00    -0.000 A 
ATOM     27  C   UNL     1      -0.512   3.597  25.017  0.00  0.00    -0.000 A 
ATOM     28  C   UNL     1       0.167   3.198  25.265  0.00  0.00    +0.029 A 
ATOM     29  C   UNL     1       0.161   2.777  25.974  0.00  0.00    +0.140 A 
ATOM     30  F   UNL     1       0.838   2.378  26.224  0.00  0.00    -0.204 F 
ATOM     31  C   UNL     1      -0.524   2.755  26.436  0.00  0.00    +0.029 A 
ATOM     32  C   UNL     1      -1.201   3.154  26.187  0.00  0.00    -0.000 A 
ENDBRANCH  25  26
ENDBRANCH  24  25
ENDBRANCH  20  22
ENDBRANCH   1  20
TORSDOF 6
ENDMDL
MODEL 2
REMARK VINA RESULT:     -12.0      2.348      3.783
REMARK  Name = 
REMARK  6 active torsions:
REMARK  status: ('A' for Active; 'I' for Inactive)
REMARK    1  A    between atoms: C_2  and  C_22
REMARK    2  A    between atoms: C_9  and  N_10
REMARK    3  A    between atoms: N_13  and  C_14
REMARK    4  A    between atoms: C_22  and  C_24
REMARK    5  A    between atoms: N_26  and  C_27
REMARK    6  A    between atoms: C_27  and  C_28
REMARK                            x       y       z     vdW  Elec       q    Type
REMARK                         _______ _______ _______ _____ _____    ______ ____
ROOT
ATOM      1  C   UNL     1      -0.257   1.951  25.193  0.00  0.00    +0.052 C 
ATOM      2  C   UNL     1       0.149   1.979  24.476  0.00  0.00    -0.001 C 
ATOM      3  C   UNL     1       0.192   1.307  24.000  0.00  0.00    -0.000 C 
ATOM      4  C   UNL     1      -0.171   0.605  24.242  0.00  0.00    -0.001 C 
ATOM      5  C   UNL     1       0.236   0.634  23.524  0.00  0.00    -0.000 C 
ATOM      6  C   UNL     1      -0.127  -0.067  23.766  0.00  0.00    +0.002 C 
ATOM      7  C   UNL     1      -0.490  -0.767  24.007  0.00  0.00    +0.022 C 
ATOM      8  C   UNL     1      -0.897  -0.795  24.725  0.00  0.00    +0.097 C 
ATOM     15  C   UNL     1      -0.940  -0.123  25.200  0.00  0.00    +0.019 C 
ATOM     16  C   UNL     1      -1.346  -0.151  25.918  0.00  0.00    +0.002 C 
ATOM     17  C   UNL     1      -0.577   0.578  24.959  0.00  0.00    +0.045 C 
ATOM     18  C   UNL     1      -0.620   1.250  25.435  0.00  0.00    +0.145 C 
ATOM     19  O   UNL     1      -1.027   1.222  26.152  0.00  0.00    -0.224 OA
ENDROOT
BRANCH   8   9
ATOM      9  N   UNL     1      -1.259  -1.495  24.966  0.00  0.00    -0.189 NA
ATOM     10  C   UNL     1      -1.901  -1.795  24.542  0.00  0.00    +0.339 C 
ATOM     11  O   UNL     1      -2.179  -1.395  23.875  0.00  0.00    -0.249 OA
ATOM     12  N   UNL     1      -2.264  -2.496  24.783  0.00  0.00    -0.187 NA
BRANCH  12  13
ATOM     13  C   UNL     1      -2.905  -2.795  24.358  0.00  0.00    +0.117 C 
ATOM     14  C   UNL     1      -3.487  -3.233  24.746  0.00  0.00    +0.025 C 
ENDBRANCH  12  13
ENDBRANCH   8   9
BRANCH   1  20
ATOM     20  C   UNL     1      -0.301   2.623  25.669  0.00  0.00    +0.077 C 
ATOM     21  C   UNL     1       0.107   2.647  26.386  0.00  0.00    +0.009 C 
BRANCH  20  22
ATOM     22  C   UNL     1      -0.752   3.270  25.430  0.00  0.00    +0.241 C 
ATOM     23  O   UNL     1      -0.395   3.895  25.025  0.00  0.00    -0.273 OA
ATOM     24  N   UNL     1      -1.560   3.294  25.595  0.00  0.00    -0.201 NA
BRANCH  24  25
ATOM     25  C   UNL     1      -2.012   3.941  25.356  0.00  0.00    +0.141 C 
BRANCH  25  26
ATOM     26  C   UNL     1      -2.835   3.891  25.348  0.00  0.00    -0.000 A 
ATOM     27  C   UNL     1      -3.261   3.976  26.048  0.00  0.00    -0.000 A 
ATOM     28  C   UNL     1      -4.085   3.925  26.040  0.00  0.00    +0.029 A 
ATOM     29  C   UNL     1      -4.482   3.789  25.330  0.00  0.00    +0.140 A 
ATOM     30  F   UNL     1      -5.305   3.738  25.320  0.00  0.00    -0.204 F 
ATOM     31  C   UNL     1      -4.056   3.703  24.628  0.00  0.00    +0.029 A 
ATOM     32  C   UNL     1      -3.232   3.754  24.637  0.00  0.00    -0.000 A 
ENDBRANCH  25  26
ENDBRANCH  24  25
ENDBRANCH  20  22
ENDBRANCH   1  20
TORSDOF 6
ENDMDL
MODEL 3
REMARK VINA RESULT:     -12.0      2.286      5.133
REMARK  Name = 
REMARK  6 active torsions:
REMARK  status: ('A' for Active; 'I' for Inactive)
REMARK    1  A    between atoms: C_2  and  C_22
REMARK    2  A    between atoms: C_9  and  N_10
REMARK    3  A    between atoms: N_13  and  C_14
REMARK    4  A    between atoms: C_22  and  C_24
REMARK    5  A    between atoms: N_26  and  C_27
REMARK    6  A    between atoms: C_27  and  C_28
REMARK                            x       y       z     vdW  Elec       q    Type
REMARK                         _______ _______ _______ _____ _____    ______ ____
ROOT
ATOM      1  C   UNL     1      -0.793   1.178  24.609  0.00  0.00    +0.052 C 
ATOM      2  C   UNL     1      -0.338   1.466  25.233  0.00  0.00    -0.001 C 
ATOM      3  C   UNL     1      -0.582   2.137  25.646  0.00  0.00    -0.000 C 
ATOM      4  C   UNL     1      -1.283   2.520  25.435  0.00  0.00    -0.001 C 
ATOM      5  C   UNL     1      -0.826   2.808  26.060  0.00  0.00    -0.000 C 
ATOM      6  C   UNL     1      -1.526   3.191  25.849  0.00  0.00    +0.002 C 
ATOM      7  C   UNL     1      -2.226   3.573  25.639  0.00  0.00    +0.022 C 
ATOM      8  C   UNL     1      -2.682   3.285  25.014  0.00  0.00    +0.097 C 
ATOM     15  C   UNL     1      -2.438   2.614  24.601  0.00  0.00    +0.019 C 
ATOM     16  C   UNL     1      -2.894   2.326  23.976  0.00  0.00    +0.002 C 
ATOM     17  C   UNL     1      -1.738   2.232  24.811  0.00  0.00    +0.045 C 
ATOM     18  C   UNL     1      -1.494   1.561  24.398  0.00  0.00    +0.145 C 
ATOM     19  O   UNL     1      -1.949   1.272  23.773  0.00  0.00    -0.224 OA
ENDROOT
BRANCH   8   9
ATOM      9  N   UNL     1      -3.382   3.667  24.803  0.00  0.00    -0.189 NA
ATOM     10  C   UNL     1      -4.013   3.696  25.335  0.00  0.00    +0.339 C 
ATOM     11  O   UNL     1      -3.943   3.342  26.077  0.00  0.00    -0.249 OA
ATOM     12  N   UNL     1      -4.713   4.078  25.124  0.00  0.00    -0.187 NA
BRANCH  12  13
ATOM     13  C   UNL     1      -5.343   4.107  25.656  0.00  0.00    +0.117 C 
ATOM     14  C   UNL     1      -6.046   4.481  25.441  0.00  0.00    +0.025 C 
ENDBRANCH  12  13
ENDBRANCH   8   9
BRANCH   1  20
ATOM     20  C   UNL     1      -0.549   0.507  24.195  0.00  0.00    +0.077 C 
ATOM     21  C   UNL     1      -0.257   0.581  23.427  0.00  0.00    +0.009 C 
BRANCH  20  22
ATOM     22  C   UNL     1      -0.598  -0.236  24.548  0.00  0.00    +0.241 C 
ATOM     23  O   UNL     1       0.045  -0.533  24.974  0.00  0.00    -0.273 OA
ATOM     24  N   UNL     1      -1.287  -0.684  24.476  0.00  0.00    -0.201 NA
BRANCH  24  25
ATOM     25  C   UNL     1      -1.335  -1.427  24.829  0.00  0.00    +0.141 C 
BRANCH  25  26
ATOM     26  C   UNL     1      -2.033  -1.864  24.779  0.00  0.00    -0.000 A 
ATOM     27  C   UNL     1      -2.678  -1.667  25.253  0.00  0.00    -0.000 A 
ATOM     28  C   UNL     1      -3.376  -2.104  25.203  0.00  0.00    +0.029 A 
ATOM     29  C   UNL     1      -3.429  -2.739  24.678  0.00  0.00    +0.140 A 
ATOM     30  F   UNL     1      -4.126  -3.176  24.628  0.00  0.00    -0.204 F 
ATOM     31  C   UNL     1      -2.783  -2.936  24.204  0.00  0.00    +0.029 A 
ATOM     32  C   UNL     1      -2.085  -2.499  24.254  0.00  0.00    -0.000 A 
ENDBRANCH  25  26
ENDBRANCH  24  25
ENDBRANCH  20  22
ENDBRANCH   1  20
TORSDOF 6
ENDMDL
MODEL 4
REMARK VINA RESULT:     -11.5      1.599      4.520
REMARK  Name = 
REMARK  6 active torsions:
REMARK  status: ('A' for Active; 'I' for Inactive)
REMARK    1  A    between atoms: C_2  and  C_22
REMARK    2  A    between atoms: C_9  and  N_10
REMARK    3  A    between atoms: N_13  and  C_14
REMARK    4  A    between atoms: C_22  and  C_24
REMARK    5  A    between atoms: N_26  and  C_27
REMARK    6  A    between atoms: C_27  and  C_28
REMARK                            x       y       z     vdW  Elec       q    Type
REMARK                         _______ _______ _______ _____ _____    ______ ____
ROOT
ATOM      1  C   UNL     1      -4.378   0.498  24.564  0.00  0.00    +0.052 C 
ATOM      2  C   UNL     1      -5.006   0.657  25.074  0.00  0.00    -0.001 C 
ATOM      3  C   UNL     1      -5.136   1.427  25.340  0.00  0.00    -0.000 C 
ATOM      4  C   UNL     1      -4.638   2.038  25.094  0.00  0.00    -0.001 C 
ATOM      5  C   UNL     1      -5.267   2.198  25.605  0.00  0.00    -0.000 C 
ATOM      6  C   UNL     1      -4.769   2.808  25.360  0.00  0.00    +0.002 C 
ATOM      7  C   UNL     1      -4.271   3.419  25.115  0.00  0.00    +0.022 C 
ATOM      8  C   UNL     1      -3.642   3.259  24.604  0.00  0.00    +0.097 C 
ATOM     15  C   UNL     1      -3.512   2.489  24.339  0.00  0.00    +0.019 C 
ATOM     16  C   UNL     1      -2.884   2.330  23.829  0.00  0.00    +0.002 C 
ATOM     17  C   UNL     1      -4.010   1.879  24.584  0.00  0.00    +0.045 C 
ATOM     18  C   UNL     1      -3.880   1.109  24.319  0.00  0.00    +0.145 C 
ATOM     19  O   UNL     1      -3.251   0.949  23.809  0.00  0.00    -0.224 OA
ENDROOT
BRANCH   8   9
ATOM      9  N   UNL     1      -3.145   3.869  24.360  0.00  0.00    -0.189 NA
ATOM     10  C   UNL     1      -2.641   4.234  24.902  0.00  0.00    +0.339 C 
ATOM     11  O   UNL     1      -2.634   3.987  25.690  0.00  0.00    -0.249 OA
ATOM     12  N   UNL     1      -2.143   4.844  24.657  0.00  0.00    -0.187 NA
BRANCH  12  13
ATOM     13  C   UNL     1      -1.639   5.208  25.200  0.00  0.00    +0.117 C 
ATOM     14  C   UNL     1      -0.917   5.518  24.948  0.00  0.00    +0.025 C 
ENDBRANCH  12  13
ENDBRANCH   8   9
BRANCH   1  20
ATOM     20  C   UNL     1      -4.247  -0.273  24.299  0.00  0.00    +0.077 C 
ATOM     21  C   UNL     1      -4.460  -0.485  23.530  0.00  0.00    +0.009 C 
BRANCH  20  22
ATOM     22  C   UNL     1      -3.903  -0.829  24.800  0.00  0.00    +0.241 C 
ATOM     23  O   UNL     1      -4.355  -1.186  25.392  0.00  0.00    -0.273 OA
ATOM     24  N   UNL     1      -3.108  -1.031  24.710  0.00  0.00    -0.201 NA
BRANCH  24  25
ATOM     25  C   UNL     1      -2.764  -1.588  25.211  0.00  0.00    +0.141 C 
BRANCH  25  26
ATOM     26  C   UNL     1      -1.945  -1.689  25.217  0.00  0.00    -0.000 A 
ATOM     27  C   UNL     1      -1.598  -2.277  24.755  0.00  0.00    -0.000 A 
ATOM     28  C   UNL     1      -0.779  -2.378  24.761  0.00  0.00    +0.029 A 
ATOM     29  C   UNL     1      -0.307  -1.890  25.229  0.00  0.00    +0.140 A 
ATOM     30  F   UNL     1       0.512  -1.990  25.236  0.00  0.00    -0.204 F 
ATOM     31  C   UNL     1      -0.654  -1.301  25.692  0.00  0.00    +0.029 A 
ATOM     32  C   UNL     1      -1.473  -1.201  25.686  0.00  0.00    -0.000 A 
ENDBRANCH  25  26
ENDBRANCH  24  25
ENDBRANCH  20  22
ENDBRANCH   1  20
TORSDOF 6
ENDMDL
MODEL 5
REMARK VINA RESULT:     -11.3      2.881      4.684
REMARK  Name = 
REMARK  6 active torsions:
REMARK  status: ('A' for Active; 'I' for Inactive)
REMARK    1  A    between atoms: C_2  and  C_22
REMARK    2  A    between atoms: C_9  and  N_10
REMARK    3  A    between atoms: N_13  and  C_14
REMARK    4  A    between atoms: C_22  and  C_24
REMARK    5  A    between atoms: N_26  and  C_27
REMARK    6  A    between atoms: C_27  and  C_28
REMARK                            x       y       z     vdW  Elec       q    Type
REMARK                         _______ _______ _______ _____ _____    ______ ____
ROOT
ATOM      1  C   UNL     1      -3.029  -0.434  24.539  0.00  0.00    +0.052 C 
ATOM      2  C   UNL     1      -2.851  -1.084  25.013  0.00  0.00    -0.001 C 
ATOM      3  C   UNL     1      -2.066  -1.302  25.137  0.00  0.00    -0.000 C 
ATOM      4  C   UNL     1      -1.457  -0.869  24.785  0.00  0.00    -0.001 C 
ATOM      5  C   UNL     1      -1.279  -1.520  25.261  0.00  0.00    -0.000 C 
ATOM      6  C   UNL     1      -0.671  -1.088  24.910  0.00  0.00    +0.002 C 
ATOM      7  C   UNL     1      -0.063  -0.655  24.558  0.00  0.00    +0.022 C 
ATOM      8  C   UNL     1      -0.240  -0.004  24.083  0.00  0.00    +0.097 C 
ATOM     15  C   UNL     1      -1.026   0.214  23.959  0.00  0.00    +0.019 C 
ATOM     16  C   UNL     1      -1.203   0.864  23.484  0.00  0.00    +0.002 C 
ATOM     17  C   UNL     1      -1.635  -0.219  24.311  0.00  0.00    +0.045 C 
ATOM     18  C   UNL     1      -2.420  -0.001  24.187  0.00  0.00    +0.145 C 
ATOM     19  O   UNL     1      -2.598   0.650  23.712  0.00  0.00    -0.224 OA
ENDROOT
BRANCH   8   9
ATOM      9  N   UNL     1       0.367   0.428  23.732  0.00  0.00    -0.189 NA
ATOM     10  C   UNL     1       0.974   0.037  23.330  0.00  0.00    +0.339 C 
ATOM     11  O   UNL     1       0.971  -0.787  23.280  0.00  0.00    -0.249 OA
ATOM     12  N   UNL     1       1.582   0.469  22.979  0.00  0.00    -0.187 NA
BRANCH  12  13
ATOM     13  C   UNL     1       2.187   0.078  22.578  0.00  0.00    +0.117 C 
ATOM     14  C   UNL     1       2.906   0.460  22.441  0.00  0.00    +0.025 C 
ENDBRANCH  12  13
ENDBRANCH   8   9
BRANCH   1  20
ATOM     20  C   UNL     1      -3.815  -0.215  24.415  0.00  0.00    +0.077 C 
ATOM     21  C   UNL     1      -4.169  -0.349  23.682  0.00  0.00    +0.009 C 
BRANCH  20  22
ATOM     22  C   UNL     1      -4.247   0.137  25.022  0.00  0.00    +0.241 C 
ATOM     23  O   UNL     1      -4.446  -0.300  25.694  0.00  0.00    -0.273 OA
ATOM     24  N   UNL     1      -4.480   0.926  24.960  0.00  0.00    -0.201 NA
BRANCH  24  25
ATOM     25  C   UNL     1      -4.911   1.279  25.568  0.00  0.00    +0.141 C 
BRANCH  25  26
ATOM     26  C   UNL     1      -5.081   2.086  25.540  0.00  0.00    -0.000 A 
ATOM     27  C   UNL     1      -4.471   2.638  25.584  0.00  0.00    -0.000 A 
ATOM     28  C   UNL     1      -4.641   3.445  25.556  0.00  0.00    +0.029 A 
ATOM     29  C   UNL     1      -5.423   3.699  25.485  0.00  0.00    +0.140 A 
ATOM     30  F   UNL     1      -5.594   4.505  25.457  0.00  0.00    -0.204 F 
ATOM     31  C   UNL     1      -6.034   3.146  25.441  0.00  0.00    +0.029 A 
ATOM     32  C   UNL     1      -5.863   2.340  25.469  0.00  0.00    -0.000 A 
ENDBRANCH  25  26
ENDBRANCH  24  25
ENDBRANCH  20  22
ENDBRANCH   1  20
TORSDOF 6
ENDMDL
MODEL 6
REMARK VINA RESULT:     -11.3      2.172      5.079
REMARK  Name = 
REMARK  6 active torsions:
REMARK  status: ('A' for Active; 'I' for Inactive)
REMARK    1  A    between atoms: C_2  and  C_22
REMARK    2  A    between atoms: C_9  and  N_10
REMARK    3  A    between atoms: N_13  and  C_14
REMARK    4  A    between atoms: C_22  and  C_24
REMARK    5  A    between atoms: N_26  and  C_27
REMARK    6  A    between atoms: C_27  and  C_28
REMARK                            x       y       z     vdW  Elec       q    Type
REMARK                         _______ _______ _______ _____ _____    ______ ____
ROOT
ATOM      1  C   UNL     1      -2.615   2.056  24.213  0.00  0.00    +0.052 C 
ATOM      2  C   UNL     1      -3.043   2.718  24.454  0.00  0.00    -0.001 C 
ATOM      3  C   UNL     1      -2.718   3.243  24.999  0.00  0.00    -0.000 C 
ATOM      4  C   UNL     1      -1.962   3.106  25.305  0.00  0.00    -0.001 C 
ATOM      5  C   UNL     1      -2.391   3.769  25.546  0.00  0.00    -0.000 C 
ATOM      6  C   UNL     1      -1.637   3.633  25.851  0.00  0.00    +0.002 C 
ATOM      7  C   UNL     1      -0.883   3.496  26.156  0.00  0.00    +0.022 C 
ATOM      8  C   UNL     1      -0.454   2.833  25.915  0.00  0.00    +0.097 C 
ATOM     15  C   UNL     1      -0.780   2.308  25.369  0.00  0.00    +0.019 C 
ATOM     16  C   UNL     1      -0.351   1.646  25.128  0.00  0.00    +0.002 C 
ATOM     17  C   UNL     1      -1.534   2.444  25.064  0.00  0.00    +0.045 C 
ATOM     18  C   UNL     1      -1.860   1.919  24.518  0.00  0.00    +0.145 C 
ATOM     19  O   UNL     1      -1.431   1.256  24.276  0.00  0.00    -0.224 OA
ENDROOT
BRANCH   8   9
ATOM      9  N   UNL     1       0.300   2.696  26.219  0.00  0.00    -0.189 NA
ATOM     10  C   UNL     1       0.416   2.670  27.036  0.00  0.00    +0.339 C 
ATOM     11  O   UNL     1      -0.222   2.781  27.548  0.00  0.00    -0.249 OA
ATOM     12  N   UNL     1       1.170   2.533  27.341  0.00  0.00    -0.187 NA
BRANCH  12  13
ATOM     13  C   UNL     1       1.286   2.507  28.158  0.00  0.00    +0.117 C 
ATOM     14  C   UNL     1       2.029   2.676  28.474  0.00  0.00    +0.025 C 
ENDBRANCH  12  13
ENDBRANCH   8   9
BRANCH   1  20
ATOM     20  C   UNL     1      -2.940   1.530  23.667  0.00  0.00    +0.077 C 
ATOM     21  C   UNL     1      -2.635   1.490  22.901  0.00  0.00    +0.009 C 
BRANCH  20  22
ATOM     22  C   UNL     1      -3.569   1.044  23.885  0.00  0.00    +0.241 C 
ATOM     23  O   UNL     1      -4.324   1.364  23.983  0.00  0.00    -0.273 OA
ATOM     24  N   UNL     1      -3.445   0.237  24.007  0.00  0.00    -0.201 NA
BRANCH  24  25
ATOM     25  C   UNL     1      -4.074  -0.249  24.226  0.00  0.00    +0.141 C 
BRANCH  25  26
ATOM     26  C   UNL     1      -3.940  -1.044  24.402  0.00  0.00    -0.000 A 
ATOM     27  C   UNL     1      -3.609  -1.257  25.126  0.00  0.00    -0.000 A 
ATOM     28  C   UNL     1      -3.475  -2.052  25.302  0.00  0.00    +0.029 A 
ATOM     29  C   UNL     1      -3.673  -2.634  24.752  0.00  0.00    +0.140 A 
ATOM     30  F   UNL     1      -3.539  -3.429  24.927  0.00  0.00    -0.204 F 
ATOM     31  C   UNL     1      -4.004  -2.422  24.026  0.00  0.00    +0.029 A 
ATOM     32  C   UNL     1      -4.138  -1.627  23.852  0.00  0.00    -0.000 A 
ENDBRANCH  25  26
ENDBRANCH  24  25
ENDBRANCH  20  22
ENDBRANCH   1  20
TORSDOF 6
ENDMDL
MODEL 7
REMARK VINA RESULT:     -11.2      2.786      4.464
REMARK  Name = 
REMARK  6 active torsions:
REMARK  status: ('A' for Active; 'I' for Inactive)
REMARK    1  A    between atoms: C_2  and  C_22
REMARK    2  A    between atoms: C_9  and  N_10
REMARK    3  A    between atoms: N_13  and  C_14
REMARK    4  A    between atoms: C_22  and  C_24
REMARK    5  A    between atoms: N_26  and  C_27
REMARK    6  A    between atoms: C_27  and  C_28
REMARK                            x       y       z     vdW  Elec       q    Type
REMARK                         _______ _______ _______ _____ _____    ______ ____
ROOT
ATOM      1  C   UNL     1      -1.790   3.501  25.315  0.00  0.00    +0.052 C 
ATOM      2  C   UNL     1      -1.350   3.488  26.012  0.00  0.00    -0.001 C 
ATOM      3  C   UNL     1      -0.744   2.937  26.107  0.00  0.00    -0.000 C 
ATOM      4  C   UNL     1      -0.579   2.397  25.504  0.00  0.00    -0.001 C 
ATOM      5  C   UNL     1      -0.138   2.384  26.202  0.00  0.00    -0.000 C 
ATOM      6  C   UNL     1       0.027   1.845  25.600  0.00  0.00    +0.002 C 
ATOM      7  C   UNL     1       0.193   1.306  24.997  0.00  0.00    +0.022 C 
ATOM      8  C   UNL     1      -0.248   1.319  24.299  0.00  0.00    +0.097 C 
ATOM     15  C   UNL     1      -0.853   1.871  24.205  0.00  0.00    +0.019 C 
ATOM     16  C   UNL     1      -1.293   1.884  23.507  0.00  0.00    +0.002 C 
ATOM     17  C   UNL     1      -1.019   2.410  24.807  0.00  0.00    +0.045 C 
ATOM     18  C   UNL     1      -1.624   2.962  24.712  0.00  0.00    +0.145 C 
ATOM     19  O   UNL     1      -2.065   2.975  24.014  0.00  0.00    -0.224 OA
ENDROOT
BRANCH   8   9
ATOM      9  N   UNL     1      -0.083   0.781  23.697  0.00  0.00    -0.189 NA
ATOM     10  C   UNL     1       0.696   0.663  23.451  0.00  0.00    +0.339 C 
ATOM     11  O   UNL     1       1.310   1.084  23.808  0.00  0.00    -0.249 OA
ATOM     12  N   UNL     1       0.862   0.124  22.849  0.00  0.00    -0.187 NA
BRANCH  12  13
ATOM     13  C   UNL     1       1.641   0.007  22.604  0.00  0.00    +0.117 C 
ATOM     14  C   UNL     1       1.794  -0.351  21.876  0.00  0.00    +0.025 C 
ENDBRANCH  12  13
ENDBRANCH   8   9
BRANCH   1  20
ATOM     20  C   UNL     1      -2.396   4.053  25.219  0.00  0.00    +0.077 C 
ATOM     21  C   UNL     1      -2.307   4.674  24.683  0.00  0.00    +0.009 C 
BRANCH  20  22
ATOM     22  C   UNL     1      -3.090   3.985  25.659  0.00  0.00    +0.241 C 
ATOM     23  O   UNL     1      -3.131   4.309  26.417  0.00  0.00    -0.273 OA
ATOM     24  N   UNL     1      -3.743   3.593  25.342  0.00  0.00    -0.201 NA
BRANCH  24  25
ATOM     25  C   UNL     1      -4.437   3.524  25.782  0.00  0.00    +0.141 C 
BRANCH  25  26
ATOM     26  C   UNL     1      -5.015   2.979  25.560  0.00  0.00    -0.000 A 
ATOM     27  C   UNL     1      -5.047   2.705  24.783  0.00  0.00    -0.000 A 
ATOM     28  C   UNL     1      -5.625   2.159  24.561  0.00  0.00    +0.029 A 
ATOM     29  C   UNL     1      -6.171   1.888  25.117  0.00  0.00    +0.140 A 
ATOM     30  F   UNL     1      -6.750   1.343  24.896  0.00  0.00    -0.204 F 
ATOM     31  C   UNL     1      -6.139   2.163  25.895  0.00  0.00    +0.029 A 
ATOM     32  C   UNL     1      -5.561   2.708  26.115  0.00  0.00    -0.000 A 
ENDBRANCH  25  26
ENDBRANCH  24  25
ENDBRANCH  20  22
ENDBRANCH   1  20
TORSDOF 6
ENDMDL
MODEL 8
REMARK VINA RESULT:     -10.9      2.136      4.529
REMARK  Name = 
REMARK  6 active torsions:
REMARK  status: ('A' for Active; 'I' for Inactive)
REMARK    1  A    between atoms: C_2  and  C_22
REMARK    2  A    between atoms: C_9  and  N_10
REMARK    3  A    between atoms: N_13  and  C_14
REMARK    4  A    between atoms: C_22  and  C_24
REMARK    5  A    between atoms: N_26  and  C_27
REMARK    6  A    between atoms: C_27  and  C_28
REMARK                            x       y       z     vdW  Elec       q    Type
REMARK                         _______ _______ _______ _____ _____    ______ ____
ROOT
ATOM      1  C   UNL     1      -3.419   2.648  24.760  0.00  0.00    +0.052 C 
ATOM      2  C   UNL     1      -3.322   3.051  25.473  0.00  0.00    -0.001 C 
ATOM      3  C   UNL     1      -2.569   3.283  25.716  0.00  0.00    -0.000 C 
ATOM      4  C   UNL     1      -1.912   3.112  25.246  0.00  0.00    -0.001 C 
ATOM      5  C   UNL     1      -1.815   3.516  25.959  0.00  0.00    -0.000 C 
ATOM      6  C   UNL     1      -1.159   3.345  25.490  0.00  0.00    +0.002 C 
ATOM      7  C   UNL     1      -0.502   3.174  25.020  0.00  0.00    +0.022 C 
ATOM      8  C   UNL     1      -0.599   2.769  24.307  0.00  0.00    +0.097 C 
ATOM     15  C   UNL     1      -1.353   2.537  24.064  0.00  0.00    +0.019 C 
ATOM     16  C   UNL     1      -1.449   2.134  23.351  0.00  0.00    +0.002 C 
ATOM     17  C   UNL     1      -2.009   2.709  24.534  0.00  0.00    +0.045 C 
ATOM     18  C   UNL     1      -2.761   2.476  24.290  0.00  0.00    +0.145 C 
ATOM     19  O   UNL     1      -2.859   2.072  23.577  0.00  0.00    -0.224 OA
ENDROOT
BRANCH   8   9
ATOM      9  N   UNL     1       0.056   2.598  23.838  0.00  0.00    -0.189 NA
ATOM     10  C   UNL     1       0.583   2.005  24.065  0.00  0.00    +0.339 C 
ATOM     11  O   UNL     1       0.453   1.583  24.762  0.00  0.00    -0.249 OA
ATOM     12  N   UNL     1       1.240   1.834  23.595  0.00  0.00    -0.187 NA
BRANCH  12  13
ATOM     13  C   UNL     1       1.766   1.240  23.823  0.00  0.00    +0.117 C 
ATOM     14  C   UNL     1       2.246   0.877  23.260  0.00  0.00    +0.025 C 
ENDBRANCH  12  13
ENDBRANCH   8   9
BRANCH   1  20
ATOM     20  C   UNL     1      -4.172   2.415  24.517  0.00  0.00    +0.077 C 
ATOM     21  C   UNL     1      -4.562   2.837  23.925  0.00  0.00    +0.009 C 
BRANCH  20  22
ATOM     22  C   UNL     1      -4.535   1.761  24.864  0.00  0.00    +0.241 C 
ATOM     23  O   UNL     1      -5.132   1.870  25.423  0.00  0.00    -0.273 OA
ATOM     24  N   UNL     1      -4.301   0.998  24.653  0.00  0.00    -0.201 NA
BRANCH  24  25
ATOM     25  C   UNL     1      -4.664   0.344  25.000  0.00  0.00    +0.141 C 
BRANCH  25  26
ATOM     26  C   UNL     1      -4.347  -0.410  24.893  0.00  0.00    -0.000 A 
ATOM     27  C   UNL     1      -4.507  -0.830  24.202  0.00  0.00    -0.000 A 
ATOM     28  C   UNL     1      -4.190  -1.585  24.094  0.00  0.00    +0.029 A 
ATOM     29  C   UNL     1      -3.713  -1.918  24.679  0.00  0.00    +0.140 A 
ATOM     30  F   UNL     1      -3.395  -2.672  24.573  0.00  0.00    -0.204 F 
ATOM     31  C   UNL     1      -3.552  -1.497  25.371  0.00  0.00    +0.029 A 
ATOM     32  C   UNL     1      -3.870  -0.743  25.477  0.00  0.00    -0.000 A 
ENDBRANCH  25  26
ENDBRANCH  24  25
ENDBRANCH  20  22
ENDBRANCH   1  20
TORSDOF 6
ENDMDL
MODEL 9
REMARK VINA RESULT:     -10.4      2.302      4.023
REMARK  Name = 
REMARK  6 active torsions:
REMARK  status: ('A' for Active; 'I' for Inactive)
REMARK    1  A    between atoms: C_2  and  C_22
REMARK    2  A    between atoms: C_9  and  N_10
REMARK    3  A    between atoms: N_13  and  C_14
REMARK    4  A    between atoms: C_22  and  C_24
REMARK    5  A    between atoms: N_26  and  C_27
REMARK    6  A    between atoms: C_27  and  C_28
REMARK                            x       y       z     vdW  Elec       q    Type
REMARK                         _______ _______ _______ _____ _____    ______ ____
ROOT
ATOM      1  C   UNL     1      -1.030   2.963  24.696  0.00  0.00    +0.052 C 
ATOM      2  C   UNL     1      -0.893   3.424  25.366  0.00  0.00    -0.001 C 
ATOM      3  C   UNL     1      -1.527   3.759  25.773  0.00  0.00    -0.000 C 
ATOM      4  C   UNL     1      -2.299   3.633  25.509  0.00  0.00    -0.001 C 
ATOM      5  C   UNL     1      -2.162   4.094  26.180  0.00  0.00    -0.000 C 
ATOM      6  C   UNL     1      -2.934   3.969  25.917  0.00  0.00    +0.002 C 
ATOM      7  C   UNL     1      -3.705   3.843  25.653  0.00  0.00    +0.022 C 
ATOM      8  C   UNL     1      -3.843   3.381  24.983  0.00  0.00    +0.097 C 
ATOM     15  C   UNL     1      -3.208   3.046  24.576  0.00  0.00    +0.019 C 
ATOM     16  C   UNL     1      -3.345   2.586  23.906  0.00  0.00    +0.002 C 
ATOM     17  C   UNL     1      -2.436   3.172  24.839  0.00  0.00    +0.045 C 
ATOM     18  C   UNL     1      -1.802   2.837  24.433  0.00  0.00    +0.145 C 
ATOM     19  O   UNL     1      -1.939   2.376  23.762  0.00  0.00    -0.224 OA
ENDROOT
BRANCH   8   9
ATOM      9  N   UNL     1      -4.613   3.256  24.720  0.00  0.00    -0.189 NA
ATOM     10  C   UNL     1      -5.126   2.777  25.156  0.00  0.00    +0.339 C 
ATOM     11  O   UNL     1      -4.865   2.424  25.855  0.00  0.00    -0.249 OA
ATOM     12  N   UNL     1      -5.897   2.651  24.892  0.00  0.00    -0.187 NA
BRANCH  12  13
ATOM     13  C   UNL     1      -6.409   2.172  25.329  0.00  0.00    +0.117 C 
ATOM     14  C   UNL     1      -6.913   1.647  24.941  0.00  0.00    +0.025 C 
ENDBRANCH  12  13
ENDBRANCH   8   9
BRANCH   1  20
ATOM     20  C   UNL     1      -0.395   2.628  24.289  0.00  0.00    +0.077 C 
ATOM     21  C   UNL     1      -0.141   2.959  23.578  0.00  0.00    +0.009 C 
BRANCH  20  22
ATOM     22  C   UNL     1      -0.016   1.961  24.592  0.00  0.00    +0.241 C 
ATOM     23  O   UNL     1       0.670   2.047  25.045  0.00  0.00    -0.273 OA
ATOM     24  N   UNL     1      -0.321   1.209  24.443  0.00  0.00    -0.201 NA
BRANCH  24  25
ATOM     25  C   UNL     1       0.059   0.543  24.746  0.00  0.00    +0.141 C 
BRANCH  25  26
ATOM     26  C   UNL     1      -0.337  -0.181  24.774  0.00  0.00    -0.000 A 
ATOM     27  C   UNL     1      -0.322  -0.686  24.123  0.00  0.00    -0.000 A 
ATOM     28  C   UNL     1      -0.718  -1.409  24.151  0.00  0.00    +0.029 A 
ATOM     29  C   UNL     1      -1.128  -1.628  24.833  0.00  0.00    +0.140 A 
ATOM     30  F   UNL     1      -1.524  -2.351  24.862  0.00  0.00    -0.204 F 
ATOM     31  C   UNL     1      -1.143  -1.123  25.486  0.00  0.00    +0.029 A 
ATOM     32  C   UNL     1      -0.747  -0.400  25.456  0.00  0.00    -0.000 A 
ENDBRANCH  25  26
ENDBRANCH  24  25
ENDBRANCH  20  22
ENDBRANCH   1  20
TORSDOF 6
ENDMDL
MODEL 10
REMARK VINA RESULT:     -10.2      3.387      5.091
REMARK  Name = 
REMARK  6 active torsions:
REMARK  status: ('A' for Active; 'I' for Inactive)
REMARK    1  A    between atoms: C_2  and  C_22
REMARK    2  A    between atoms: C_9  and  N_10
REMARK    3  A    between atoms: N_13  and  C_14
REMARK    4  A    between atoms: C_22  and  C_24
REMARK    5  A    between atoms: N_26  and  C_27
REMARK    6  A    between atoms: C_27  and  C_28
REMARK                            x       y       z     vdW  Elec       q    Type
REMARK                         _______ _______ _______ _____ _____    ______ ____
ROOT
ATOM      1  C   UNL     1      -0.073   0.817  23.960  0.00  0.00    +0.052 C 
ATOM      2  C   UNL     1       0.396   1.440  24.226  0.00  0.00    -0.001 C 
ATOM      3  C   UNL     1       0.046   2.150  24.457  0.00  0.00    -0.000 C 
ATOM      4  C   UNL     1      -0.774   2.237  24.422  0.00  0.00    -0.001 C 
ATOM      5  C   UNL     1      -0.304   2.861  24.688  0.00  0.00    -0.000 C 
ATOM      6  C   UNL     1      -1.124   2.948  24.653  0.00  0.00    +0.002 C 
ATOM      7  C   UNL     1      -1.943   3.035  24.617  0.00  0.00    +0.022 C 
ATOM      8  C   UNL     1      -2.414   2.411  24.350  0.00  0.00    +0.097 C 
ATOM     15  C   UNL     1      -2.063   1.701  24.119  0.00  0.00    +0.019 C 
ATOM     16  C   UNL     1      -2.533   1.078  23.853  0.00  0.00    +0.002 C 
ATOM     17  C   UNL     1      -1.243   1.614  24.155  0.00  0.00    +0.045 C 
ATOM     18  C   UNL     1      -0.894   0.904  23.924  0.00  0.00    +0.145 C 
ATOM     19  O   UNL     1      -1.363   0.280  23.657  0.00  0.00    -0.224 OA
ENDROOT
BRANCH   8   9
ATOM      9  N   UNL     1      -3.232   2.498  24.314  0.00  0.00    -0.189 NA
ATOM     10  C   UNL     1      -3.636   2.862  24.935  0.00  0.00    +0.339 C 
ATOM     11  O   UNL     1      -3.220   3.140  25.592  0.00  0.00    -0.249 OA
ATOM     12  N   UNL     1      -4.456   2.949  24.900  0.00  0.00    -0.187 NA
BRANCH  12  13
ATOM     13  C   UNL     1      -4.859   3.313  25.521  0.00  0.00    +0.117 C 
ATOM     14  C   UNL     1      -5.678   3.233  25.584  0.00  0.00    +0.025 C 
ENDBRANCH  12  13
ENDBRANCH   8   9
BRANCH   1  20
ATOM     20  C   UNL     1       0.276   0.106  23.729  0.00  0.00    +0.077 C 
ATOM     21  C   UNL     1       0.087  -0.593  24.123  0.00  0.00    +0.009 C 
BRANCH  20  22
ATOM     22  C   UNL     1       0.814   0.094  23.104  0.00  0.00    +0.241 C 
ATOM     23  O   UNL     1       0.542   0.068  22.325  0.00  0.00    -0.273 OA
ATOM     24  N   UNL     1       1.625   0.109  23.257  0.00  0.00    -0.201 NA
BRANCH  24  25
ATOM     25  C   UNL     1       2.163   0.097  22.632  0.00  0.00    +0.141 C 
BRANCH  25  26
ATOM     26  C   UNL     1       2.970   0.190  22.780  0.00  0.00    -0.000 A 
ATOM     27  C   UNL     1       3.404  -0.431  23.107  0.00  0.00    -0.000 A 
ATOM     28  C   UNL     1       4.210  -0.338  23.254  0.00  0.00    +0.029 A 
ATOM     29  C   UNL     1       4.583   0.376  23.075  0.00  0.00    +0.140 A 
ATOM     30  F   UNL     1       5.389   0.469  23.222  0.00  0.00    -0.204 F 
ATOM     31  C   UNL     1       4.149   0.997  22.748  0.00  0.00    +0.029 A 
ATOM     32  C   UNL     1       3.342   0.904  22.601  0.00  0.00    -0.000 A 
ENDBRANCH  25  26
ENDBRANCH  24  25
ENDBRANCH  20  22
ENDBRANCH   1  20
TORSDOF 6
ENDMDL
