MODEL 1
REMARK VINA RESULT:     -17.1      0.000      0.000
REMARK  Name = 
REMARK  4 active torsions:
REMARK  status: ('A' for Active; 'I' for Inactive)
REMARK    1  A    between atoms: C_2  and  C_32
REMARK    2  A    between atoms: N_3  and  C_4
REMARK    3  A    between atoms: C_14  and  C_16
REMARK    4  A    between atoms: C_19  and  C_22
REMARK                            x       y       z     vdW  Elec       q    Type
REMARK                         _______ _______ _______ _____ _____    ______ ____
ROOT
ATOM      4  C   UNL     1      -2.115   2.894  25.710  0.00  0.00    +0.130 A 
ATOM      5  C   UNL     1      -2.220   3.705  25.820  0.00  0.00    +0.023 A 
ATOM      6  C   UNL     1      -2.945   4.056  25.640  0.00  0.00    +0.014 A 
ATOM      7  C   UNL     1      -3.564   3.595  25.350  0.00  0.00    +0.041 A 
ATOM      8  C   UNL     1      -4.437   3.668  25.071  0.00  0.00    +0.058 C 
ATOM      9  C   UNL     1      -4.950   4.139  24.983  0.00  0.00    +0.011 C 
ATOM     10  C   UNL     1      -4.843   3.339  24.876  0.00  0.00    +0.043 C 
ATOM     11  C   UNL     1      -4.909   2.372  24.680  0.00  0.00    +0.096 C 
ATOM     12  N   UNL     1      -4.138   2.133  24.896  0.00  0.00    -0.276 N 
ATOM     13  C   UNL     1      -4.516   2.736  24.877  0.00  0.00    +0.099 C 
ATOM     14  C   UNL     1      -3.494   1.631  25.021  0.00  0.00    +0.249 C 
ATOM     15  O   UNL     1      -2.785   1.936  25.314  0.00  0.00    -0.270 OA
ATOM     28  C   UNL     1      -3.931   3.253  25.166  0.00  0.00    +0.110 C 
ATOM     29  N   UNL     1      -3.460   2.784  25.240  0.00  0.00    -0.298 N 
ATOM     30  C   UNL     1      -2.735   2.434  25.420  0.00  0.00    +0.276 A 
ATOM     31  O   UNL     1      -2.396   1.682  25.399  0.00  0.00    -0.266 OA
ENDROOT
BRANCH  14  16
ATOM     16  C   UNL     1      -3.561   0.827  24.855  0.00  0.00    +0.054 A 
ATOM     17  C   UNL     1      -3.319   0.535  24.122  0.00  0.00    +0.005 A 
ATOM     18  C   UNL     1      -3.386  -0.271  23.955  0.00  0.00    +0.000 A 
ATOM     19  C   UNL     1      -3.694  -0.784  24.523  0.00  0.00    +0.000 A 
ATOM     20  C   UNL     1      -3.935  -0.494  25.255  0.00  0.00    +0.000 A 
ATOM     21  C   UNL     1      -3.869   0.312  25.422  0.00  0.00    +0.005 A 
BRANCH  19  22
ATOM     22  C   UNL     1      -3.760  -1.590  24.356  0.00  0.00    +0.000 A 
ATOM     23  C   UNL     1      -4.321  -1.854  23.812  0.00  0.00    +0.000 A 
ATOM     24  C   UNL     1      -4.387  -2.659  23.645  0.00  0.00    +0.000 A 
ATOM     25  C   UNL     1      -3.892  -3.201  24.023  0.00  0.00    +0.000 A 
ATOM     26  C   UNL     1      -3.331  -2.937  24.567  0.00  0.00    +0.000 A 
ATOM     27  C   UNL     1      -3.265  -2.131  24.734  0.00  0.00    +0.000 A 
ENDBRANCH  19  22
ENDBRANCH  14  16
BRANCH   4   3
ATOM      1  O   UNL     1       0.034   2.519  25.779  0.00  0.00    -0.268 OA
ATOM      2  C   UNL     1      -0.691   2.870  25.599  0.00  0.00    +0.269 C 
ATOM      3  N   UNL     1      -1.391   2.544  25.890  0.00  0.00    -0.171 NA
BRANCH   2  32
ATOM     32  C   UNL     1      -0.716   3.546  25.126  0.00  0.00    +0.055 A 
ATOM     33  C   UNL     1      -0.703   3.474  24.304  0.00  0.00    +0.005 A 
ATOM     34  C   UNL     1      -0.728   4.150  23.831  0.00  0.00    +0.000 A 
ATOM     35  C   UNL     1      -0.766   4.896  24.181  0.00  0.00    +0.000 A 
ATOM     36  C   UNL     1      -0.779   4.967  25.004  0.00  0.00    +0.000 A 
ATOM     37  C   UNL     1      -0.754   4.291  25.476  0.00  0.00    +0.005 A 
ENDBRANCH   2  32
ENDBRANCH   4   3
TORSDOF 4
ENDMDL
MODEL 2
REMARK VINA RESULT:     -16.1      1.988      5.669
REMARK  Name = 
REMARK  4 active torsions:
REMARK  status: ('A' for Active; 'I' for Inactive)
REMARK    1  A    between atoms: C_2  and  C_32
REMARK    2  A    between atoms: N_3  and  C_4
REMARK    3  A    between atoms: C_14  and  C_16
REMARK    4  A    between atoms: C_19  and  C_22
REMARK                            x       y       z     vdW  Elec       q    Type
REMARK                         _______ _______ _______ _____ _____    ______ ____
ROOT
ATOM      4  C   UNL     1      -2.218  -0.786  25.457  0.00  0.00    +0.130 A 
ATOM      5  C   UNL     1      -2.017  -1.570  25.294  0.00  0.00    +0.023 A 
ATOM      6  C   UNL     1      -1.361  -1.738  24.824  0.00  0.00    +0.014 A 
ATOM      7  C   UNL     1      -0.906  -1.123  24.516  0.00  0.00    +0.041 A 
ATOM      8  C   UNL     1      -0.164  -0.977  23.993  0.00  0.00    +0.058 C 
ATOM      9  C   UNL     1       0.331  -1.319  23.632  0.00  0.00    +0.011 C 
ATOM     10  C   UNL     1       0.130  -0.546  23.795  0.00  0.00    +0.043 C 
ATOM     11  C   UNL     1       0.051   0.435  23.876  0.00  0.00    +0.096 C 
ATOM     12  N   UNL     1      -0.629   0.481  24.360  0.00  0.00    -0.276 N 
ATOM     13  C   UNL     1      -0.227  -0.026  24.062  0.00  0.00    +0.099 C 
ATOM     14  C   UNL     1      -1.238   0.821  24.802  0.00  0.00    +0.249 C 
ATOM     15  O   UNL     1      -1.790   0.339  25.182  0.00  0.00    -0.270 OA
ATOM     28  C   UNL     1      -0.646  -0.690  24.342  0.00  0.00    +0.110 C 
ATOM     29  N   UNL     1      -1.106  -0.340  24.679  0.00  0.00    -0.298 N 
ATOM     30  C   UNL     1      -1.763  -0.171  25.149  0.00  0.00    +0.276 A 
ATOM     31  O   UNL     1      -2.152   0.494  25.443  0.00  0.00    -0.266 OA
ENDROOT
BRANCH  14  16
ATOM     16  C   UNL     1      -1.295   1.641  24.863  0.00  0.00    +0.054 A 
ATOM     17  C   UNL     1      -1.718   2.069  24.299  0.00  0.00    +0.005 A 
ATOM     18  C   UNL     1      -1.775   2.890  24.361  0.00  0.00    +0.000 A 
ATOM     19  C   UNL     1      -1.407   3.283  24.986  0.00  0.00    +0.000 A 
ATOM     20  C   UNL     1      -0.984   2.856  25.550  0.00  0.00    +0.000 A 
ATOM     21  C   UNL     1      -0.927   2.034  25.489  0.00  0.00    +0.005 A 
BRANCH  19  22
ATOM     22  C   UNL     1      -1.464   4.104  25.048  0.00  0.00    +0.000 A 
ATOM     23  C   UNL     1      -0.853   4.582  24.768  0.00  0.00    +0.000 A 
ATOM     24  C   UNL     1      -0.910   5.402  24.829  0.00  0.00    +0.000 A 
ATOM     25  C   UNL     1      -1.578   5.745  25.171  0.00  0.00    +0.000 A 
ATOM     26  C   UNL     1      -2.189   5.267  25.451  0.00  0.00    +0.000 A 
ATOM     27  C   UNL     1      -2.132   4.446  25.389  0.00  0.00    +0.000 A 
ENDBRANCH  19  22
ENDBRANCH  14  16
BRANCH   4   3
ATOM      1  O   UNL     1      -4.262  -0.787  26.223  0.00  0.00    -0.268 OA
ATOM      2  C   UNL     1      -3.606  -0.956  25.751  0.00  0.00    +0.269 C 
ATOM      3  N   UNL     1      -2.874  -0.618  25.928  0.00  0.00    -0.171 NA
BRANCH   2  32
ATOM     32  C   UNL     1      -3.681  -1.461  25.104  0.00  0.00    +0.055 A 
ATOM     33  C   UNL     1      -3.943  -1.166  24.379  0.00  0.00    +0.005 A 
ATOM     34  C   UNL     1      -4.019  -1.672  23.731  0.00  0.00    +0.000 A 
ATOM     35  C   UNL     1      -3.833  -2.471  23.809  0.00  0.00    +0.000 A 
ATOM     36  C   UNL     1      -3.571  -2.767  24.534  0.00  0.00    +0.000 A 
ATOM     37  C   UNL     1      -3.496  -2.261  25.182  0.00  0.00    +0.005 A 
ENDBRANCH   2  32
ENDBRANCH   4   3
TORSDOF 4
ENDMDL
MODEL 3
REMARK VINA RESULT:     -14.2      1.137      2.691
REMARK  Name = 
REMARK  4 active torsions:
REMARK  status: ('A' for Active; 'I' for Inactive)
REMARK    1  A    between atoms: C_2  and  C_32
REMARK    2  A    between atoms: N_3  and  C_4
REMARK    3  A    between atoms: C_14  and  C_16
REMARK    4  A    between atoms: C_19  and  C_22
REMARK                            x       y       z     vdW  Elec       q    Type
REMARK                         _______ _______ _______ _____ _____    ______ ____
ROOT
ATOM      4  C   UNL     1      -2.267   3.013  24.476  0.00  0.00    +0.130 A 
ATOM      5  C   UNL     1      -1.795   3.651  24.703  0.00  0.00    +0.023 A 
ATOM      6  C   UNL     1      -1.126   3.524  25.167  0.00  0.00    +0.014 A 
ATOM      7  C   UNL     1      -0.928   2.759  25.405  0.00  0.00    +0.041 A 
ATOM      8  C   UNL     1      -0.294   2.305  25.891  0.00  0.00    +0.058 C 
ATOM      9  C   UNL     1       0.290   2.407  26.266  0.00  0.00    +0.011 C 
ATOM     10  C   UNL     1      -0.178   1.780  26.040  0.00  0.00    +0.043 C 
ATOM     11  C   UNL     1      -0.609   0.907  25.873  0.00  0.00    +0.096 C 
ATOM     12  N   UNL     1      -1.256   1.158  25.407  0.00  0.00    -0.276 N 
ATOM     13  C   UNL     1      -0.699   1.453  25.738  0.00  0.00    +0.099 C 
ATOM     14  C   UNL     1      -1.945   1.106  24.955  0.00  0.00    +0.249 C 
ATOM     15  O   UNL     1      -2.281   1.789  24.636  0.00  0.00    -0.270 OA
ATOM     28  C   UNL     1      -0.845   2.247  25.531  0.00  0.00    +0.110 C 
ATOM     29  N   UNL     1      -1.400   2.122  25.178  0.00  0.00    -0.298 N 
ATOM     30  C   UNL     1      -2.070   2.249  24.714  0.00  0.00    +0.276 A 
ATOM     31  O   UNL     1      -2.673   1.801  24.373  0.00  0.00    -0.266 OA
ENDROOT
BRANCH  14  16
ATOM     16  C   UNL     1      -2.296   0.372  24.822  0.00  0.00    +0.054 A 
ATOM     17  C   UNL     1      -2.033  -0.105  24.203  0.00  0.00    +0.005 A 
ATOM     18  C   UNL     1      -2.385  -0.840  24.070  0.00  0.00    +0.000 A 
ATOM     19  C   UNL     1      -3.001  -1.096  24.556  0.00  0.00    +0.000 A 
ATOM     20  C   UNL     1      -3.264  -0.619  25.174  0.00  0.00    +0.000 A 
ATOM     21  C   UNL     1      -2.912   0.116  25.307  0.00  0.00    +0.005 A 
BRANCH  19  22
ATOM     22  C   UNL     1      -3.353  -1.831  24.422  0.00  0.00    +0.000 A 
ATOM     23  C   UNL     1      -4.034  -1.884  23.960  0.00  0.00    +0.000 A 
ATOM     24  C   UNL     1      -4.386  -2.618  23.827  0.00  0.00    +0.000 A 
ATOM     25  C   UNL     1      -4.056  -3.300  24.156  0.00  0.00    +0.000 A 
ATOM     26  C   UNL     1      -3.375  -3.246  24.618  0.00  0.00    +0.000 A 
ATOM     27  C   UNL     1      -3.023  -2.511  24.751  0.00  0.00    +0.000 A 
ENDBRANCH  19  22
ENDBRANCH  14  16
BRANCH   4   3
ATOM      1  O   UNL     1      -4.210   3.761  23.819  0.00  0.00    -0.268 OA
ATOM      2  C   UNL     1      -3.540   3.633  24.284  0.00  0.00    +0.269 C 
ATOM      3  N   UNL     1      -2.937   3.141  24.012  0.00  0.00    -0.171 NA
BRANCH   2  32
ATOM     32  C   UNL     1      -3.474   3.999  25.021  0.00  0.00    +0.055 A 
ATOM     33  C   UNL     1      -3.856   3.675  25.677  0.00  0.00    +0.005 A 
ATOM     34  C   UNL     1      -3.790   4.040  26.414  0.00  0.00    +0.000 A 
ATOM     35  C   UNL     1      -3.342   4.728  26.494  0.00  0.00    +0.000 A 
ATOM     36  C   UNL     1      -2.960   5.051  25.838  0.00  0.00    +0.000 A 
ATOM     37  C   UNL     1      -3.026   4.686  25.101  0.00  0.00    +0.005 A 
ENDBRANCH   2  32
ENDBRANCH   4   3
TORSDOF 4
ENDMDL
MODEL 4
REMARK VINA RESULT:     -13.9      1.260      4.990
REMARK  Name = 
REMARK  4 active torsions:
REMARK  status: ('A' for Active; 'I' for Inactive)
REMARK    1  A    between atoms: C_2  and  C_32
REMARK    2  A    between atoms: N_3  and  C_4
REMARK    3  A    between atoms: C_14  and  C_16
REMARK    4  A    between atoms: C_19  and  C_22
REMARK                            x       y       z     vdW  Elec       q    Type
REMARK                         _______ _______ _______ _____ _____    ______ ____
ROOT
ATOM      4  C   UNL     1      -3.337  -0.002  24.239  0.00  0.00    +0.130 A 
ATOM      5  C   UNL     1      -3.952  -0.552  24.267  0.00  0.00    +0.023 A 
ATOM      6  C   UNL     1      -4.703  -0.320  24.517  0.00  0.00    +0.014 A 
ATOM      7  C   UNL     1      -4.839   0.463  24.739  0.00  0.00    +0.041 A 
ATOM      8  C   UNL     1      -5.511   1.011  25.045  0.00  0.00    +0.058 C 
ATOM      9  C   UNL     1      -6.190   1.004  25.219  0.00  0.00    +0.011 C 
ATOM     10  C   UNL     1      -5.582   1.544  25.191  0.00  0.00    +0.043 C 
ATOM     11  C   UNL     1      -4.986   2.332  25.225  0.00  0.00    +0.096 C 
ATOM     12  N   UNL     1      -4.276   1.982  24.957  0.00  0.00    -0.276 N 
ATOM     13  C   UNL     1      -4.948   1.781  25.083  0.00  0.00    +0.099 C 
ATOM     14  C   UNL     1      -3.483   1.922  24.737  0.00  0.00    +0.249 C 
ATOM     15  O   UNL     1      -3.178   1.197  24.485  0.00  0.00    -0.270 OA
ATOM     28  C   UNL     1      -4.874   0.979  24.872  0.00  0.00    +0.110 C 
ATOM     29  N   UNL     1      -4.225   1.013  24.712  0.00  0.00    -0.298 N 
ATOM     30  C   UNL     1      -3.474   0.781  24.461  0.00  0.00    +0.276 A 
ATOM     31  O   UNL     1      -2.732   1.123  24.351  0.00  0.00    -0.266 OA
ENDROOT
BRANCH  14  16
ATOM     16  C   UNL     1      -2.995   2.586  24.769  0.00  0.00    +0.054 A 
ATOM     17  C   UNL     1      -2.565   2.750  25.453  0.00  0.00    +0.005 A 
ATOM     18  C   UNL     1      -2.076   3.414  25.486  0.00  0.00    +0.000 A 
ATOM     19  C   UNL     1      -2.018   3.915  24.832  0.00  0.00    +0.000 A 
ATOM     20  C   UNL     1      -2.447   3.752  24.148  0.00  0.00    +0.000 A 
ATOM     21  C   UNL     1      -2.936   3.087  24.116  0.00  0.00    +0.005 A 
BRANCH  19  22
ATOM     22  C   UNL     1      -1.529   4.579  24.865  0.00  0.00    +0.000 A 
ATOM     23  C   UNL     1      -0.722   4.506  24.712  0.00  0.00    +0.000 A 
ATOM     24  C   UNL     1      -0.234   5.170  24.744  0.00  0.00    +0.000 A 
ATOM     25  C   UNL     1      -0.553   5.908  24.929  0.00  0.00    +0.000 A 
ATOM     26  C   UNL     1      -1.360   5.981  25.082  0.00  0.00    +0.000 A 
ATOM     27  C   UNL     1      -1.849   5.317  25.050  0.00  0.00    +0.000 A 
ENDBRANCH  19  22
ENDBRANCH  14  16
BRANCH   4   3
ATOM      1  O   UNL     1      -1.484  -1.141  24.059  0.00  0.00    -0.268 OA
ATOM      2  C   UNL     1      -2.235  -0.908  24.310  0.00  0.00    +0.269 C 
ATOM      3  N   UNL     1      -2.587  -0.235  23.989  0.00  0.00    -0.171 NA
BRANCH   2  32
ATOM     32  C   UNL     1      -2.634  -1.349  24.882  0.00  0.00    +0.055 A 
ATOM     33  C   UNL     1      -3.123  -1.974  24.654  0.00  0.00    +0.005 A 
ATOM     34  C   UNL     1      -3.521  -2.415  25.227  0.00  0.00    +0.000 A 
ATOM     35  C   UNL     1      -3.432  -2.230  26.025  0.00  0.00    +0.000 A 
ATOM     36  C   UNL     1      -2.943  -1.605  26.253  0.00  0.00    +0.000 A 
ATOM     37  C   UNL     1      -2.544  -1.164  25.681  0.00  0.00    +0.005 A 
ENDBRANCH   2  32
ENDBRANCH   4   3
TORSDOF 4
ENDMDL
MODEL 5
REMARK VINA RESULT:     -13.3      2.425      4.448
REMARK  Name = 
REMARK  4 active torsions:
REMARK  status: ('A' for Active; 'I' for Inactive)
REMARK    1  A    between atoms: C_2  and  C_32
REMARK    2  A    between atoms: N_3  and  C_4
REMARK    3  A    between atoms: C_14  and  C_16
REMARK    4  A    between atoms: C_19  and  C_22
REMARK                            x       y       z     vdW  Elec       q    Type
REMARK                         _______ _______ _______ _____ _____    ______ ____
ROOT
ATOM      4  C   UNL     1      -3.529   1.168  24.031  0.00  0.00    +0.130 A 
ATOM      5  C   UNL     1      -4.239   0.989  24.411  0.00  0.00    +0.023 A 
ATOM      6  C   UNL     1      -4.270   0.376  24.962  0.00  0.00    +0.014 A 
ATOM      7  C   UNL     1      -3.590  -0.059  25.133  0.00  0.00    +0.041 A 
ATOM      8  C   UNL     1      -3.302  -0.756  25.658  0.00  0.00    +0.058 C 
ATOM      9  C   UNL     1      -3.531  -1.216  26.136  0.00  0.00    +0.011 C 
ATOM     10  C   UNL     1      -2.832  -1.037  25.759  0.00  0.00    +0.043 C 
ATOM     11  C   UNL     1      -1.907  -0.975  25.415  0.00  0.00    +0.096 C 
ATOM     12  N   UNL     1      -1.999  -0.338  24.882  0.00  0.00    -0.276 N 
ATOM     13  C   UNL     1      -2.405  -0.708  25.336  0.00  0.00    +0.099 C 
ATOM     14  C   UNL     1      -1.795   0.228  24.318  0.00  0.00    +0.249 C 
ATOM     15  O   UNL     1      -2.366   0.753  24.034  0.00  0.00    -0.270 OA
ATOM     28  C   UNL     1      -3.123  -0.308  25.207  0.00  0.00    +0.110 C 
ATOM     29  N   UNL     1      -2.880   0.120  24.753  0.00  0.00    -0.298 N 
ATOM     30  C   UNL     1      -2.849   0.733  24.202  0.00  0.00    +0.276 A 
ATOM     31  O   UNL     1      -2.289   1.090  23.713  0.00  0.00    -0.266 OA
ENDROOT
BRANCH  14  16
ATOM     16  C   UNL     1      -1.020   0.271  24.038  0.00  0.00    +0.054 A 
ATOM     17  C   UNL     1      -0.510   0.854  24.322  0.00  0.00    +0.005 A 
ATOM     18  C   UNL     1       0.265   0.896  24.042  0.00  0.00    +0.000 A 
ATOM     19  C   UNL     1       0.529   0.356  23.477  0.00  0.00    +0.000 A 
ATOM     20  C   UNL     1       0.020  -0.226  23.193  0.00  0.00    +0.000 A 
ATOM     21  C   UNL     1      -0.756  -0.269  23.473  0.00  0.00    +0.005 A 
BRANCH  19  22
ATOM     22  C   UNL     1       1.304   0.399  23.197  0.00  0.00    +0.000 A 
ATOM     23  C   UNL     1       1.572  -0.144  22.637  0.00  0.00    +0.000 A 
ATOM     24  C   UNL     1       2.346  -0.102  22.357  0.00  0.00    +0.000 A 
ATOM     25  C   UNL     1       2.854   0.485  22.637  0.00  0.00    +0.000 A 
ATOM     26  C   UNL     1       2.587   1.029  23.197  0.00  0.00    +0.000 A 
ATOM     27  C   UNL     1       1.812   0.986  23.477  0.00  0.00    +0.000 A 
ENDBRANCH  19  22
ENDBRANCH  14  16
BRANCH   4   3
ATOM      1  O   UNL     1      -3.806   3.126  23.107  0.00  0.00    -0.268 OA
ATOM      2  C   UNL     1      -3.836   2.512  23.659  0.00  0.00    +0.269 C 
ATOM      3  N   UNL     1      -3.499   1.781  23.481  0.00  0.00    -0.171 NA
BRANCH   2  32
ATOM     32  C   UNL     1      -4.203   2.631  24.388  0.00  0.00    +0.055 A 
ATOM     33  C   UNL     1      -3.775   2.948  25.019  0.00  0.00    +0.005 A 
ATOM     34  C   UNL     1      -4.143   3.067  25.748  0.00  0.00    +0.000 A 
ATOM     35  C   UNL     1      -4.937   2.868  25.846  0.00  0.00    +0.000 A 
ATOM     36  C   UNL     1      -5.365   2.551  25.215  0.00  0.00    +0.000 A 
ATOM     37  C   UNL     1      -4.998   2.432  24.486  0.00  0.00    +0.005 A 
ENDBRANCH   2  32
ENDBRANCH   4   3
TORSDOF 4
ENDMDL
