MODEL 1
REMARK VINA RESULT:     -10.9      0.000      0.000
REMARK  Name = 
REMARK  7 active torsions:
REMARK  status: ('A' for Active; 'I' for Inactive)
REMARK    1  A    between atoms: C_3  and  C_4
REMARK    2  A    between atoms: C_4  and  N_5
REMARK    3  A    between atoms: N_5  and  S_6
REMARK    4  A    between atoms: S_6  and  C_9
REMARK    5  A    between atoms: C_17  and  N_18
REMARK    6  A    between atoms: N_18  and  C_19
REMARK    7  A    between atoms: C_19  and  C_20
REMARK                            x       y       z     vdW  Elec       q    Type
REMARK                         _______ _______ _______ _____ _____    ______ ____
ROOT
ATOM      1  O   UNL     1      -2.979   1.085  23.755  0.00  0.00    -0.219 OA
ATOM      2  C   UNL     1      -3.578   1.217  24.307  0.00  0.00    +0.199 C 
ATOM      3  C   UNL     1      -3.742   1.932  24.684  0.00  0.00    +0.166 C 
ATOM     15  O   UNL     1      -4.384   1.813  25.188  0.00  0.00    -0.350 OA
ATOM     16  C   UNL     1      -4.617   1.025  25.122  0.00  0.00    +0.162 C 
ATOM     17  C   UNL     1      -4.120   0.656  24.578  0.00  0.00    +0.135 C 
ENDROOT
BRANCH   3   4
ATOM      4  C   UNL     1      -3.334   2.641  24.576  0.00  0.00    +0.148 C 
BRANCH   4   5
ATOM      5  N   UNL     1      -3.126   3.101  25.228  0.00  0.00    -0.075 NA
BRANCH   5   6
ATOM      6  S   UNL     1      -2.535   3.673  25.158  0.00  0.00    +0.077 S 
ATOM      7  O   UNL     1      -2.090   3.284  25.734  0.00  0.00    -0.152 OA
ATOM      8  O   UNL     1      -2.981   4.063  24.583  0.00  0.00    -0.152 OA
BRANCH   6   9
ATOM      9  C   UNL     1      -1.945   4.245  25.089  0.00  0.00    +0.124 A 
ATOM     10  C   UNL     1      -1.169   4.019  24.926  0.00  0.00    +0.020 A 
ATOM     11  C   UNL     1      -0.579   4.591  24.856  0.00  0.00    +0.001 A 
ATOM     12  C   UNL     1      -0.764   5.390  24.949  0.00  0.00    +0.000 A 
ATOM     13  C   UNL     1      -1.541   5.615  25.112  0.00  0.00    +0.001 A 
ATOM     14  C   UNL     1      -2.132   5.043  25.182  0.00  0.00    +0.020 A 
ENDBRANCH   6   9
ENDBRANCH   5   6
ENDBRANCH   4   5
ENDBRANCH   3   4
BRANCH  17  18
ATOM     18  N   UNL     1      -4.157  -0.134  24.345  0.00  0.00    -0.209 NA
BRANCH  18  19
ATOM     19  C   UNL     1      -4.041  -0.733  24.901  0.00  0.00    +0.118 C 
BRANCH  19  20
ATOM     20  C   UNL     1      -3.943  -1.514  24.651  0.00  0.00    +0.034 A 
ATOM     21  C   UNL     1      -3.554  -2.056  25.136  0.00  0.00    +0.193 A 
ATOM     22  O   UNL     1      -3.262  -1.818  25.870  0.00  0.00    -0.287 OA
ATOM     23  C   UNL     1      -3.456  -2.837  24.886  0.00  0.00    +0.042 A 
ATOM     24  C   UNL     1      -3.748  -3.074  24.152  0.00  0.00    +0.003 A 
ATOM     25  C   UNL     1      -4.137  -2.532  23.668  0.00  0.00    -0.000 A 
ATOM     26  C   UNL     1      -4.235  -1.752  23.917  0.00  0.00    +0.000 A 
ENDBRANCH  19  20
ENDBRANCH  18  19
ENDBRANCH  17  18
TORSDOF 7
ENDMDL
MODEL 2
REMARK VINA RESULT:     -10.5      1.752      6.031
REMARK  Name = 
REMARK  7 active torsions:
REMARK  status: ('A' for Active; 'I' for Inactive)
REMARK    1  A    between atoms: C_3  and  C_4
REMARK    2  A    between atoms: C_4  and  N_5
REMARK    3  A    between atoms: N_5  and  S_6
REMARK    4  A    between atoms: S_6  and  C_9
REMARK    5  A    between atoms: C_17  and  N_18
REMARK    6  A    between atoms: N_18  and  C_19
REMARK    7  A    between atoms: C_19  and  C_20
REMARK                            x       y       z     vdW  Elec       q    Type
REMARK                         _______ _______ _______ _____ _____    ______ ____
ROOT
ATOM      1  O   UNL     1      -1.897   1.504  23.900  0.00  0.00    -0.219 OA
ATOM      2  C   UNL     1      -1.516   1.334  24.612  0.00  0.00    +0.199 C 
ATOM      3  C   UNL     1      -1.471   0.594  24.973  0.00  0.00    +0.166 C 
ATOM     15  O   UNL     1      -1.041   0.677  25.671  0.00  0.00    -0.350 OA
ATOM     16  C   UNL     1      -0.821   1.469  25.743  0.00  0.00    +0.162 C 
ATOM     17  C   UNL     1      -1.114   1.875  25.088  0.00  0.00    +0.135 C 
ENDROOT
BRANCH   3   4
ATOM      4  C   UNL     1      -1.798  -0.107  24.684  0.00  0.00    +0.148 C 
BRANCH   4   5
ATOM      5  N   UNL     1      -2.172  -0.630  25.201  0.00  0.00    -0.075 NA
BRANCH   5   6
ATOM      6  S   UNL     1      -2.670  -1.217  24.904  0.00  0.00    +0.077 S 
ATOM      7  O   UNL     1      -3.293  -0.917  25.356  0.00  0.00    -0.152 OA
ATOM      8  O   UNL     1      -2.048  -1.517  24.452  0.00  0.00    -0.152 OA
BRANCH   6   9
ATOM      9  C   UNL     1      -3.169  -1.803  24.608  0.00  0.00    +0.124 A 
ATOM     10  C   UNL     1      -3.044  -2.593  24.811  0.00  0.00    +0.020 A 
ATOM     11  C   UNL     1      -3.542  -3.180  24.515  0.00  0.00    +0.001 A 
ATOM     12  C   UNL     1      -4.167  -2.977  24.014  0.00  0.00    +0.000 A 
ATOM     13  C   UNL     1      -4.292  -2.187  23.811  0.00  0.00    +0.001 A 
ATOM     14  C   UNL     1      -3.793  -1.600  24.108  0.00  0.00    +0.020 A 
ENDBRANCH   6   9
ENDBRANCH   5   6
ENDBRANCH   4   5
ENDBRANCH   3   4
BRANCH  17  18
ATOM     18  N   UNL     1      -1.022   2.680  24.936  0.00  0.00    -0.209 NA
BRANCH  18  19
ATOM     19  C   UNL     1      -1.303   3.237  25.477  0.00  0.00    +0.118 C 
BRANCH  19  20
ATOM     20  C   UNL     1      -1.286   4.040  25.289  0.00  0.00    +0.034 A 
ATOM     21  C   UNL     1      -1.908   4.531  25.518  0.00  0.00    +0.193 A 
ATOM     22  O   UNL     1      -2.547   4.218  25.936  0.00  0.00    -0.287 OA
ATOM     23  C   UNL     1      -1.891   5.334  25.330  0.00  0.00    +0.042 A 
ATOM     24  C   UNL     1      -1.252   5.646  24.912  0.00  0.00    +0.003 A 
ATOM     25  C   UNL     1      -0.629   5.155  24.683  0.00  0.00    -0.000 A 
ATOM     26  C   UNL     1      -0.647   4.352  24.871  0.00  0.00    +0.000 A 
ENDBRANCH  19  20
ENDBRANCH  18  19
ENDBRANCH  17  18
TORSDOF 7
ENDMDL
MODEL 3
REMARK VINA RESULT:      -9.7      1.569      1.846
REMARK  Name = 
REMARK  7 active torsions:
REMARK  status: ('A' for Active; 'I' for Inactive)
REMARK    1  A    between atoms: C_3  and  C_4
REMARK    2  A    between atoms: C_4  and  N_5
REMARK    3  A    between atoms: N_5  and  S_6
REMARK    4  A    between atoms: S_6  and  C_9
REMARK    5  A    between atoms: C_17  and  N_18
REMARK    6  A    between atoms: N_18  and  C_19
REMARK    7  A    between atoms: C_19  and  C_20
REMARK                            x       y       z     vdW  Elec       q    Type
REMARK                         _______ _______ _______ _____ _____    ______ ____
ROOT
ATOM      1  O   UNL     1      -1.792   0.723  23.868  0.00  0.00    -0.219 OA
ATOM      2  C   UNL     1      -1.598   0.528  24.646  0.00  0.00    +0.199 C 
ATOM      3  C   UNL     1      -1.220   1.019  25.190  0.00  0.00    +0.166 C 
ATOM     15  O   UNL     1      -1.136   0.602  25.895  0.00  0.00    -0.350 OA
ATOM     16  C   UNL     1      -1.462  -0.149  25.788  0.00  0.00    +0.162 C 
ATOM     17  C   UNL     1      -1.747  -0.195  25.016  0.00  0.00    +0.135 C 
ENDROOT
BRANCH   3   4
ATOM      4  C   UNL     1      -0.970   1.794  25.051  0.00  0.00    +0.148 C 
BRANCH   4   5
ATOM      5  N   UNL     1      -1.002   2.352  25.658  0.00  0.00    -0.075 NA
BRANCH   5   6
ATOM      6  S   UNL     1      -1.073   3.154  25.477  0.00  0.00    +0.077 S 
ATOM      7  O   UNL     1      -1.802   3.177  25.864  0.00  0.00    -0.152 OA
ATOM      8  O   UNL     1      -0.344   3.131  25.091  0.00  0.00    -0.152 OA
BRANCH   6   9
ATOM      9  C   UNL     1      -1.144   3.956  25.297  0.00  0.00    +0.124 A 
ATOM     10  C   UNL     1      -0.533   4.346  24.902  0.00  0.00    +0.020 A 
ATOM     11  C   UNL     1      -0.604   5.147  24.721  0.00  0.00    +0.001 A 
ATOM     12  C   UNL     1      -1.286   5.560  24.936  0.00  0.00    +0.000 A 
ATOM     13  C   UNL     1      -1.896   5.170  25.331  0.00  0.00    +0.001 A 
ATOM     14  C   UNL     1      -1.825   4.368  25.512  0.00  0.00    +0.020 A 
ENDBRANCH   6   9
ENDBRANCH   5   6
ENDBRANCH   4   5
ENDBRANCH   3   4
BRANCH  17  18
ATOM     18  N   UNL     1      -2.117  -0.848  24.673  0.00  0.00    -0.209 NA
BRANCH  18  19
ATOM     19  C   UNL     1      -2.884  -1.052  24.898  0.00  0.00    +0.118 C 
BRANCH  19  20
ATOM     20  C   UNL     1      -3.237  -1.730  24.588  0.00  0.00    +0.034 A 
ATOM     21  C   UNL     1      -4.003  -1.694  24.284  0.00  0.00    +0.193 A 
ATOM     22  O   UNL     1      -4.415  -0.979  24.289  0.00  0.00    -0.287 OA
ATOM     23  C   UNL     1      -4.357  -2.373  23.975  0.00  0.00    +0.042 A 
ATOM     24  C   UNL     1      -3.944  -3.087  23.970  0.00  0.00    +0.003 A 
ATOM     25  C   UNL     1      -3.178  -3.123  24.274  0.00  0.00    -0.000 A 
ATOM     26  C   UNL     1      -2.824  -2.444  24.584  0.00  0.00    +0.000 A 
ENDBRANCH  19  20
ENDBRANCH  18  19
ENDBRANCH  17  18
TORSDOF 7
ENDMDL
MODEL 4
REMARK VINA RESULT:      -8.2      3.724      5.162
REMARK  Name = 
REMARK  7 active torsions:
REMARK  status: ('A' for Active; 'I' for Inactive)
REMARK    1  A    between atoms: C_3  and  C_4
REMARK    2  A    between atoms: C_4  and  N_5
REMARK    3  A    between atoms: N_5  and  S_6
REMARK    4  A    between atoms: S_6  and  C_9
REMARK    5  A    between atoms: C_17  and  N_18
REMARK    6  A    between atoms: N_18  and  C_19
REMARK    7  A    between atoms: C_19  and  C_20
REMARK                            x       y       z     vdW  Elec       q    Type
REMARK                         _______ _______ _______ _____ _____    ______ ____
ROOT
ATOM      1  O   UNL     1      -0.439   1.864  23.891  0.00  0.00    -0.219 OA
ATOM      2  C   UNL     1      -0.545   1.048  23.952  0.00  0.00    +0.199 C 
ATOM      3  C   UNL     1      -1.239   0.666  24.183  0.00  0.00    +0.166 C 
ATOM     15  O   UNL     1      -1.099  -0.147  24.167  0.00  0.00    -0.350 OA
ATOM     16  C   UNL     1      -0.320  -0.267  23.925  0.00  0.00    +0.162 C 
ATOM     17  C   UNL     1       0.023   0.471  23.792  0.00  0.00    +0.135 C 
ENDROOT
BRANCH   3   4
ATOM      4  C   UNL     1      -1.947   1.032  24.395  0.00  0.00    +0.148 C 
BRANCH   4   5
ATOM      5  N   UNL     1      -2.661   0.625  24.319  0.00  0.00    -0.075 NA
BRANCH   5   6
ATOM      6  S   UNL     1      -3.374   1.009  24.478  0.00  0.00    +0.077 S 
ATOM      7  O   UNL     1      -3.589   0.939  23.684  0.00  0.00    -0.152 OA
ATOM      8  O   UNL     1      -3.159   1.079  25.271  0.00  0.00    -0.152 OA
BRANCH   6   9
ATOM      9  C   UNL     1      -4.086   1.393  24.636  0.00  0.00    +0.124 A 
ATOM     10  C   UNL     1      -4.158   2.203  24.500  0.00  0.00    +0.020 A 
ATOM     11  C   UNL     1      -4.871   2.587  24.659  0.00  0.00    +0.001 A 
ATOM     12  C   UNL     1      -5.513   2.160  24.954  0.00  0.00    +0.000 A 
ATOM     13  C   UNL     1      -5.441   1.349  25.089  0.00  0.00    +0.001 A 
ATOM     14  C   UNL     1      -4.728   0.966  24.931  0.00  0.00    +0.020 A 
ENDBRANCH   6   9
ENDBRANCH   5   6
ENDBRANCH   4   5
ENDBRANCH   3   4
BRANCH  17  18
ATOM     18  N   UNL     1       0.797   0.609  23.544  0.00  0.00    -0.209 NA
BRANCH  18  19
ATOM     19  C   UNL     1       1.156   0.094  23.008  0.00  0.00    +0.118 C 
BRANCH  19  20
ATOM     20  C   UNL     1       1.934   0.226  22.767  0.00  0.00    +0.034 A 
ATOM     21  C   UNL     1       2.191  -0.051  22.034  0.00  0.00    +0.193 A 
ATOM     22  O   UNL     1       1.670  -0.461  21.542  0.00  0.00    -0.287 OA
ATOM     23  C   UNL     1       2.969   0.081  21.793  0.00  0.00    +0.042 A 
ATOM     24  C   UNL     1       3.489   0.490  22.285  0.00  0.00    +0.003 A 
ATOM     25  C   UNL     1       3.232   0.768  23.018  0.00  0.00    -0.000 A 
ATOM     26  C   UNL     1       2.454   0.636  23.259  0.00  0.00    +0.000 A 
ENDBRANCH  19  20
ENDBRANCH  18  19
ENDBRANCH  17  18
TORSDOF 7
ENDMDL
MODEL 5
REMARK VINA RESULT:      -8.0      3.382      4.650
REMARK  Name = 
REMARK  7 active torsions:
REMARK  status: ('A' for Active; 'I' for Inactive)
REMARK    1  A    between atoms: C_3  and  C_4
REMARK    2  A    between atoms: C_4  and  N_5
REMARK    3  A    between atoms: N_5  and  S_6
REMARK    4  A    between atoms: S_6  and  C_9
REMARK    5  A    between atoms: C_17  and  N_18
REMARK    6  A    between atoms: N_18  and  C_19
REMARK    7  A    between atoms: C_19  and  C_20
REMARK                            x       y       z     vdW  Elec       q    Type
REMARK                         _______ _______ _______ _____ _____    ______ ____
ROOT
ATOM      1  O   UNL     1      -2.213   1.650  23.133  0.00  0.00    -0.219 OA
ATOM      2  C   UNL     1      -2.100   1.262  23.852  0.00  0.00    +0.199 C 
ATOM      3  C   UNL     1      -1.410   0.880  24.094  0.00  0.00    +0.166 C 
ATOM     15  O   UNL     1      -1.540   0.570  24.846  0.00  0.00    -0.350 OA
ATOM     16  C   UNL     1      -2.311   0.760  25.070  0.00  0.00    +0.162 C 
ATOM     17  C   UNL     1      -2.657   1.187  24.456  0.00  0.00    +0.135 C 
ENDROOT
BRANCH   3   4
ATOM      4  C   UNL     1      -0.711   0.820  23.658  0.00  0.00    +0.148 C 
BRANCH   4   5
ATOM      5  N   UNL     1      -0.079   0.378  23.952  0.00  0.00    -0.075 NA
BRANCH   5   6
ATOM      6  S   UNL     1       0.622   0.323  23.520  0.00  0.00    +0.077 S 
ATOM      7  O   UNL     1       0.830   1.085  23.761  0.00  0.00    -0.152 OA
ATOM      8  O   UNL     1       0.414  -0.438  23.278  0.00  0.00    -0.152 OA
BRANCH   6   9
ATOM      9  C   UNL     1       1.323   0.269  23.088  0.00  0.00    +0.124 A 
ATOM     10  C   UNL     1       1.349  -0.184  22.399  0.00  0.00    +0.020 A 
ATOM     11  C   UNL     1       2.050  -0.238  21.968  0.00  0.00    +0.001 A 
ATOM     12  C   UNL     1       2.725   0.161  22.225  0.00  0.00    +0.000 A 
ATOM     13  C   UNL     1       2.699   0.614  22.914  0.00  0.00    +0.001 A 
ATOM     14  C   UNL     1       1.997   0.668  23.346  0.00  0.00    +0.020 A 
ENDBRANCH   6   9
ENDBRANCH   5   6
ENDBRANCH   4   5
ENDBRANCH   3   4
BRANCH  17  18
ATOM     18  N   UNL     1      -3.425   1.487  24.447  0.00  0.00    -0.209 NA
BRANCH  18  19
ATOM     19  C   UNL     1      -3.659   2.038  25.014  0.00  0.00    +0.118 C 
BRANCH  19  20
ATOM     20  C   UNL     1      -4.460   2.212  25.115  0.00  0.00    +0.034 A 
ATOM     21  C   UNL     1      -4.688   2.948  25.411  0.00  0.00    +0.193 A 
ATOM     22  O   UNL     1      -4.115   3.509  25.607  0.00  0.00    -0.287 OA
ATOM     23  C   UNL     1      -5.488   3.122  25.511  0.00  0.00    +0.042 A 
ATOM     24  C   UNL     1      -6.060   2.561  25.315  0.00  0.00    +0.003 A 
ATOM     25  C   UNL     1      -5.832   1.825  25.019  0.00  0.00    -0.000 A 
ATOM     26  C   UNL     1      -5.031   1.651  24.919  0.00  0.00    +0.000 A 
ENDBRANCH  19  20
ENDBRANCH  18  19
ENDBRANCH  17  18
TORSDOF 7
ENDMDL
MODEL 6
REMARK VINA RESULT:      -7.2      4.512      5.175
REMARK  Name = 
REMARK  7 active torsions:
REMARK  status: ('A' for Active; 'I' for Inactive)
REMARK    1  A    between atoms: C_3  and  C_4
REMARK    2  A    between atoms: C_4  and  N_5
REMARK    3  A    between atoms: N_5  and  S_6
REMARK    4  A    between atoms: S_6  and  C_9
REMARK    5  A    between atoms: C_17  and  N_18
REMARK    6  A    between atoms: N_18  and  C_19
REMARK    7  A    between atoms: C_19  and  C_20
REMARK                            x       y       z     vdW  Elec       q    Type
REMARK                         _______ _______ _______ _____ _____    ______ ____
ROOT
ATOM      1  O   UNL     1      -0.090   1.412  24.177  0.00  0.00    -0.219 OA
ATOM      2  C   UNL     1      -0.102   0.623  23.937  0.00  0.00    +0.199 C 
ATOM      3  C   UNL     1       0.531   0.206  23.613  0.00  0.00    +0.166 C 
ATOM     15  O   UNL     1       0.275  -0.562  23.455  0.00  0.00    -0.350 OA
ATOM     16  C   UNL     1      -0.516  -0.619  23.681  0.00  0.00    +0.162 C 
ATOM     17  C   UNL     1      -0.749   0.113  23.979  0.00  0.00    +0.135 C 
ENDROOT
BRANCH   3   4
ATOM      4  C   UNL     1       1.287   0.504  23.471  0.00  0.00    +0.148 C 
BRANCH   4   5
ATOM      5  N   UNL     1       1.768   0.156  22.898  0.00  0.00    -0.075 NA
BRANCH   5   6
ATOM      6  S   UNL     1       2.589   0.220  22.953  0.00  0.00    +0.077 S 
ATOM      7  O   UNL     1       2.512   1.011  23.178  0.00  0.00    -0.152 OA
ATOM      8  O   UNL     1       2.666  -0.570  22.729  0.00  0.00    -0.152 OA
BRANCH   6   9
ATOM      9  C   UNL     1       3.409   0.285  23.008  0.00  0.00    +0.124 A 
ATOM     10  C   UNL     1       3.792   0.950  22.706  0.00  0.00    +0.020 A 
ATOM     11  C   UNL     1       4.612   1.015  22.761  0.00  0.00    +0.001 A 
ATOM     12  C   UNL     1       5.051   0.414  23.119  0.00  0.00    +0.000 A 
ATOM     13  C   UNL     1       4.668  -0.251  23.421  0.00  0.00    +0.001 A 
ATOM     14  C   UNL     1       3.847  -0.316  23.366  0.00  0.00    +0.020 A 
ENDBRANCH   6   9
ENDBRANCH   5   6
ENDBRANCH   4   5
ENDBRANCH   3   4
BRANCH  17  18
ATOM     18  N   UNL     1      -1.498   0.302  24.269  0.00  0.00    -0.209 NA
BRANCH  18  19
ATOM     19  C   UNL     1      -2.008  -0.297  24.517  0.00  0.00    +0.118 C 
BRANCH  19  20
ATOM     20  C   UNL     1      -2.799  -0.125  24.677  0.00  0.00    +0.034 A 
ATOM     21  C   UNL     1      -3.202  -0.545  25.261  0.00  0.00    +0.193 A 
ATOM     22  O   UNL     1      -2.814  -1.137  25.686  0.00  0.00    -0.287 OA
ATOM     23  C   UNL     1      -3.993  -0.374  25.421  0.00  0.00    +0.042 A 
ATOM     24  C   UNL     1      -4.381   0.218  24.997  0.00  0.00    +0.003 A 
ATOM     25  C   UNL     1      -3.978   0.638  24.412  0.00  0.00    -0.000 A 
ATOM     26  C   UNL     1      -3.186   0.466  24.252  0.00  0.00    +0.000 A 
ENDBRANCH  19  20
ENDBRANCH  18  19
ENDBRANCH  17  18
TORSDOF 7
ENDMDL
