MODEL 1
REMARK VINA RESULT:      -9.6      0.000      0.000
REMARK  Name = 
REMARK  8 active torsions:
REMARK  status: ('A' for Active; 'I' for Inactive)
REMARK    1  A    between atoms: O_2  and  C_3
REMARK    2  A    between atoms: C_3  and  C_4
REMARK    3  A    between atoms: C_4  and  N_5
REMARK    4  A    between atoms: N_5  and  C_6
REMARK    5  A    between atoms: C_8  and  C_12
REMARK    6  A    between atoms: C_15  and  C_17
REMARK    7  A    between atoms: N_21  and  C_22
REMARK    8  A    between atoms: C_22  and  C_23
REMARK                            x       y       z     vdW  Elec       q    Type
REMARK                         _______ _______ _______ _____ _____    ______ ____
ROOT
ATOM     12  C   UNL     1      -0.784   2.672  25.299  0.00  0.00    +0.203 A 
ATOM     13  N   UNL     1      -0.254   2.386  25.864  0.00  0.00    -0.056 NA
ATOM     14  O   UNL     1       0.058   1.675  25.584  0.00  0.00    -0.336 OA
ATOM     15  C   UNL     1      -0.279   1.521  24.847  0.00  0.00    +0.251 A 
ATOM     16  N   UNL     1      -0.799   2.137  24.671  0.00  0.00    -0.190 NA
ENDROOT
BRANCH  12   8
ATOM      6  C   UNL     1      -2.426   4.050  25.708  0.00  0.00    +0.148 A 
ATOM      7  C   UNL     1      -1.989   3.352  25.654  0.00  0.00    +0.039 A 
ATOM      8  C   UNL     1      -1.220   3.369  25.353  0.00  0.00    +0.043 A 
ATOM      9  C   UNL     1      -0.889   4.083  25.107  0.00  0.00    +0.024 A 
ATOM     10  C   UNL     1      -1.326   4.781  25.162  0.00  0.00    +0.100 A 
ATOM     11  N   UNL     1      -2.094   4.765  25.462  0.00  0.00    -0.228 NA
BRANCH   6   5
ATOM      5  N   UNL     1      -3.194   4.034  26.009  0.00  0.00    -0.218 NA
BRANCH   5   4
ATOM      4  C   UNL     1      -3.813   3.748  25.544  0.00  0.00    +0.146 C 
BRANCH   4   3
ATOM      3  C   UNL     1      -4.562   3.646  25.874  0.00  0.00    +0.166 C 
BRANCH   3   2
ATOM      1  C   UNL     1      -5.699   2.841  25.553  0.00  0.00    +0.174 C 
ATOM      2  O   UNL     1      -5.208   3.483  25.388  0.00  0.00    -0.349 OA
ENDBRANCH   3   2
ENDBRANCH   4   3
ENDBRANCH   5   4
ENDBRANCH   6   5
ENDBRANCH  12   8
BRANCH  15  17
ATOM     17  C   UNL     1      -0.124   0.867  24.370  0.00  0.00    +0.138 C 
ATOM     18  C   UNL     1       0.389   0.848  23.724  0.00  0.00    +0.027 C 
ATOM     19  C   UNL     1       0.376   0.085  23.409  0.00  0.00    +0.019 C 
ATOM     20  C   UNL     1      -0.146  -0.367  23.860  0.00  0.00    +0.073 C 
ATOM     21  N   UNL     1      -0.455   0.116  24.454  0.00  0.00    -0.261 NA
BRANCH  21  22
ATOM     22  C   UNL     1      -0.999  -0.113  25.030  0.00  0.00    +0.119 C 
BRANCH  22  23
ATOM     23  C   UNL     1      -1.450  -0.796  24.924  0.00  0.00    +0.075 A 
ATOM     24  N   UNL     1      -1.116  -1.537  25.068  0.00  0.00    -0.247 NA
ATOM     25  C   UNL     1      -1.566  -2.219  24.963  0.00  0.00    +0.098 A 
ATOM     26  C   UNL     1      -2.350  -2.162  24.714  0.00  0.00    +0.021 A 
ATOM     27  C   UNL     1      -2.685  -1.422  24.569  0.00  0.00    +0.003 A 
ATOM     28  C   UNL     1      -2.234  -0.738  24.675  0.00  0.00    +0.016 A 
ENDBRANCH  22  23
ENDBRANCH  21  22
ENDBRANCH  15  17
TORSDOF 8
ENDMDL
MODEL 2
REMARK VINA RESULT:      -9.6      1.190      4.701
REMARK  Name = 
REMARK  8 active torsions:
REMARK  status: ('A' for Active; 'I' for Inactive)
REMARK    1  A    between atoms: O_2  and  C_3
REMARK    2  A    between atoms: C_3  and  C_4
REMARK    3  A    between atoms: C_4  and  N_5
REMARK    4  A    between atoms: N_5  and  C_6
REMARK    5  A    between atoms: C_8  and  C_12
REMARK    6  A    between atoms: C_15  and  C_17
REMARK    7  A    between atoms: N_21  and  C_22
REMARK    8  A    between atoms: C_22  and  C_23
REMARK                            x       y       z     vdW  Elec       q    Type
REMARK                         _______ _______ _______ _____ _____    ______ ____
ROOT
ATOM     12  C   UNL     1      -0.477   1.537  25.021  0.00  0.00    +0.203 A 
ATOM     13  N   UNL     1      -0.225   1.730  25.783  0.00  0.00    -0.056 NA
ATOM     14  O   UNL     1      -0.504   2.486  25.960  0.00  0.00    -0.336 OA
ATOM     15  C   UNL     1      -0.928   2.761  25.308  0.00  0.00    +0.251 A 
ATOM     16  N   UNL     1      -0.911   2.174  24.728  0.00  0.00    -0.190 NA
ENDROOT
BRANCH  12   8
ATOM      6  C   UNL     1      -0.514  -0.578  24.482  0.00  0.00    +0.148 A 
ATOM      7  C   UNL     1      -0.669   0.128  24.880  0.00  0.00    +0.039 A 
ATOM      8  C   UNL     1      -0.322   0.831  24.623  0.00  0.00    +0.043 A 
ATOM      9  C   UNL     1       0.181   0.829  23.970  0.00  0.00    +0.024 A 
ATOM     10  C   UNL     1       0.336   0.123  23.572  0.00  0.00    +0.100 A 
ATOM     11  N   UNL     1      -0.011  -0.581  23.828  0.00  0.00    -0.228 NA
BRANCH   6   5
ATOM      5  N   UNL     1      -0.861  -1.281  24.738  0.00  0.00    -0.218 NA
BRANCH   5   4
ATOM      4  C   UNL     1      -1.567  -1.540  24.400  0.00  0.00    +0.146 C 
BRANCH   4   3
ATOM      3  C   UNL     1      -1.979  -2.170  24.738  0.00  0.00    +0.166 C 
BRANCH   3   2
ATOM      1  C   UNL     1      -3.318  -2.669  24.739  0.00  0.00    +0.174 C 
ATOM      2  O   UNL     1      -2.616  -2.508  24.337  0.00  0.00    -0.349 OA
ENDBRANCH   3   2
ENDBRANCH   4   3
ENDBRANCH   5   4
ENDBRANCH   6   5
ENDBRANCH  12   8
BRANCH  15  17
ATOM     17  C   UNL     1      -1.302   3.493  25.246  0.00  0.00    +0.138 C 
ATOM     18  C   UNL     1      -0.930   4.219  25.126  0.00  0.00    +0.027 C 
ATOM     19  C   UNL     1      -1.513   4.803  25.099  0.00  0.00    +0.019 C 
ATOM     20  C   UNL     1      -2.245   4.437  25.202  0.00  0.00    +0.073 C 
ATOM     21  N   UNL     1      -2.115   3.627  25.293  0.00  0.00    -0.261 NA
BRANCH  21  22
ATOM     22  C   UNL     1      -2.696   3.054  25.411  0.00  0.00    +0.119 C 
BRANCH  22  23
ATOM     23  C   UNL     1      -3.493   3.255  25.348  0.00  0.00    +0.075 A 
ATOM     24  N   UNL     1      -3.893   3.564  26.000  0.00  0.00    -0.247 NA
ATOM     25  C   UNL     1      -4.690   3.765  25.938  0.00  0.00    +0.098 A 
ATOM     26  C   UNL     1      -5.088   3.657  25.224  0.00  0.00    +0.021 A 
ATOM     27  C   UNL     1      -4.689   3.347  24.571  0.00  0.00    +0.003 A 
ATOM     28  C   UNL     1      -3.891   3.146  24.634  0.00  0.00    +0.016 A 
ENDBRANCH  22  23
ENDBRANCH  21  22
ENDBRANCH  15  17
TORSDOF 8
ENDMDL
MODEL 3
REMARK VINA RESULT:      -9.6      1.568      3.919
REMARK  Name = 
REMARK  8 active torsions:
REMARK  status: ('A' for Active; 'I' for Inactive)
REMARK    1  A    between atoms: O_2  and  C_3
REMARK    2  A    between atoms: C_3  and  C_4
REMARK    3  A    between atoms: C_4  and  N_5
REMARK    4  A    between atoms: N_5  and  C_6
REMARK    5  A    between atoms: C_8  and  C_12
REMARK    6  A    between atoms: C_15  and  C_17
REMARK    7  A    between atoms: N_21  and  C_22
REMARK    8  A    between atoms: C_22  and  C_23
REMARK                            x       y       z     vdW  Elec       q    Type
REMARK                         _______ _______ _______ _____ _____    ______ ____
ROOT
ATOM     12  C   UNL     1      -3.115   3.413  24.736  0.00  0.00    +0.203 A 
ATOM     13  N   UNL     1      -3.585   3.614  24.088  0.00  0.00    -0.056 NA
ATOM     14  O   UNL     1      -4.266   3.148  24.114  0.00  0.00    -0.336 OA
ATOM     15  C   UNL     1      -4.217   2.661  24.778  0.00  0.00    +0.251 A 
ATOM     16  N   UNL     1      -3.505   2.825  25.162  0.00  0.00    -0.190 NA
ENDROOT
BRANCH  12   8
ATOM      6  C   UNL     1      -0.983   3.594  25.166  0.00  0.00    +0.148 A 
ATOM      7  C   UNL     1      -1.715   3.263  24.978  0.00  0.00    +0.039 A 
ATOM      8  C   UNL     1      -2.383   3.744  24.925  0.00  0.00    +0.043 A 
ATOM      9  C   UNL     1      -2.320   4.555  25.060  0.00  0.00    +0.024 A 
ATOM     10  C   UNL     1      -1.588   4.886  25.249  0.00  0.00    +0.100 A 
ATOM     11  N   UNL     1      -0.919   4.406  25.302  0.00  0.00    -0.228 NA
BRANCH   6   5
ATOM      5  N   UNL     1      -0.314   3.114  25.220  0.00  0.00    -0.218 NA
BRANCH   5   4
ATOM      4  C   UNL     1      -0.069   2.673  24.567  0.00  0.00    +0.146 C 
BRANCH   4   3
ATOM      3  C   UNL     1       0.429   2.024  24.672  0.00  0.00    +0.166 C 
BRANCH   3   2
ATOM      1  C   UNL     1       0.976   1.064  23.765  0.00  0.00    +0.174 C 
ATOM      2  O   UNL     1       0.975   1.824  24.086  0.00  0.00    -0.349 OA
ENDBRANCH   3   2
ENDBRANCH   4   3
ENDBRANCH   5   4
ENDBRANCH   6   5
ENDBRANCH  12   8
BRANCH  15  17
ATOM     17  C   UNL     1      -4.779   2.106  25.016  0.00  0.00    +0.138 C 
ATOM     18  C   UNL     1      -5.491   2.272  25.399  0.00  0.00    +0.027 C 
ATOM     19  C   UNL     1      -5.881   1.557  25.532  0.00  0.00    +0.019 C 
ATOM     20  C   UNL     1      -5.411   0.950  25.231  0.00  0.00    +0.073 C 
ATOM     21  N   UNL     1      -4.730   1.289  24.912  0.00  0.00    -0.261 NA
BRANCH  21  22
ATOM     22  C   UNL     1      -4.109   0.883  24.552  0.00  0.00    +0.119 C 
BRANCH  22  23
ATOM     23  C   UNL     1      -4.037   0.068  24.651  0.00  0.00    +0.075 A 
ATOM     24  N   UNL     1      -3.710  -0.236  25.346  0.00  0.00    -0.247 NA
ATOM     25  C   UNL     1      -3.638  -1.052  25.445  0.00  0.00    +0.098 A 
ATOM     26  C   UNL     1      -3.893  -1.564  24.851  0.00  0.00    +0.021 A 
ATOM     27  C   UNL     1      -4.219  -1.261  24.156  0.00  0.00    +0.003 A 
ATOM     28  C   UNL     1      -4.291  -0.444  24.057  0.00  0.00    +0.016 A 
ENDBRANCH  22  23
ENDBRANCH  21  22
ENDBRANCH  15  17
TORSDOF 8
ENDMDL
MODEL 4
REMARK VINA RESULT:      -9.4      1.803      3.244
REMARK  Name = 
REMARK  8 active torsions:
REMARK  status: ('A' for Active; 'I' for Inactive)
REMARK    1  A    between atoms: O_2  and  C_3
REMARK    2  A    between atoms: C_3  and  C_4
REMARK    3  A    between atoms: C_4  and  N_5
REMARK    4  A    between atoms: N_5  and  C_6
REMARK    5  A    between atoms: C_8  and  C_12
REMARK    6  A    between atoms: C_15  and  C_17
REMARK    7  A    between atoms: N_21  and  C_22
REMARK    8  A    between atoms: C_22  and  C_23
REMARK                            x       y       z     vdW  Elec       q    Type
REMARK                         _______ _______ _______ _____ _____    ______ ____
ROOT
ATOM     12  C   UNL     1      -4.104   1.589  24.491  0.00  0.00    +0.203 A 
ATOM     13  N   UNL     1      -3.946   1.514  23.685  0.00  0.00    -0.056 NA
ATOM     14  O   UNL     1      -3.774   0.722  23.530  0.00  0.00    -0.336 OA
ATOM     15  C   UNL     1      -3.826   0.307  24.241  0.00  0.00    +0.251 A 
ATOM     16  N   UNL     1      -4.030   0.843  24.835  0.00  0.00    -0.190 NA
ENDROOT
BRANCH  12   8
ATOM      6  C   UNL     1      -3.904   3.485  25.552  0.00  0.00    +0.148 A 
ATOM      7  C   UNL     1      -3.706   2.787  25.159  0.00  0.00    +0.039 A 
ATOM      8  C   UNL     1      -4.302   2.286  24.885  0.00  0.00    +0.043 A 
ATOM      9  C   UNL     1      -5.093   2.483  25.003  0.00  0.00    +0.024 A 
ATOM     10  C   UNL     1      -5.291   3.181  25.396  0.00  0.00    +0.100 A 
ATOM     11  N   UNL     1      -4.697   3.682  25.671  0.00  0.00    -0.228 NA
BRANCH   6   5
ATOM      5  N   UNL     1      -3.309   3.987  25.827  0.00  0.00    -0.218 NA
BRANCH   5   4
ATOM      4  C   UNL     1      -2.727   4.259  25.310  0.00  0.00    +0.146 C 
BRANCH   4   3
ATOM      3  C   UNL     1      -2.037   4.600  25.609  0.00  0.00    +0.166 C 
BRANCH   3   2
ATOM      1  C   UNL     1      -0.851   5.049  24.950  0.00  0.00    +0.174 C 
ATOM      2  O   UNL     1      -1.637   5.172  25.170  0.00  0.00    -0.349 OA
ENDBRANCH   3   2
ENDBRANCH   4   3
ENDBRANCH   5   4
ENDBRANCH   6   5
ENDBRANCH  12   8
BRANCH  15  17
ATOM     17  C   UNL     1      -3.696  -0.501  24.341  0.00  0.00    +0.138 C 
ATOM     18  C   UNL     1      -4.232  -1.104  24.164  0.00  0.00    +0.027 C 
ATOM     19  C   UNL     1      -3.875  -1.825  24.350  0.00  0.00    +0.019 C 
ATOM     20  C   UNL     1      -3.120  -1.668  24.641  0.00  0.00    +0.073 C 
ATOM     21  N   UNL     1      -3.009  -0.850  24.636  0.00  0.00    -0.261 NA
BRANCH  21  22
ATOM     22  C   UNL     1      -2.331  -0.451  24.883  0.00  0.00    +0.119 C 
BRANCH  22  23
ATOM     23  C   UNL     1      -1.606  -0.845  24.905  0.00  0.00    +0.075 A 
ATOM     24  N   UNL     1      -1.123  -0.859  24.236  0.00  0.00    -0.247 NA
ATOM     25  C   UNL     1      -0.399  -1.252  24.259  0.00  0.00    +0.098 A 
ATOM     26  C   UNL     1      -0.157  -1.632  24.950  0.00  0.00    +0.021 A 
ATOM     27  C   UNL     1      -0.639  -1.618  25.619  0.00  0.00    +0.003 A 
ATOM     28  C   UNL     1      -1.364  -1.225  25.596  0.00  0.00    +0.016 A 
ENDBRANCH  22  23
ENDBRANCH  21  22
ENDBRANCH  15  17
TORSDOF 8
ENDMDL
MODEL 5
REMARK VINA RESULT:      -9.2      1.782      5.443
REMARK  Name = 
REMARK  8 active torsions:
REMARK  status: ('A' for Active; 'I' for Inactive)
REMARK    1  A    between atoms: O_2  and  C_3
REMARK    2  A    between atoms: C_3  and  C_4
REMARK    3  A    between atoms: C_4  and  N_5
REMARK    4  A    between atoms: N_5  and  C_6
REMARK    5  A    between atoms: C_8  and  C_12
REMARK    6  A    between atoms: C_15  and  C_17
REMARK    7  A    between atoms: N_21  and  C_22
REMARK    8  A    between atoms: C_22  and  C_23
REMARK                            x       y       z     vdW  Elec       q    Type
REMARK                         _______ _______ _______ _____ _____    ______ ____
ROOT
ATOM     12  C   UNL     1      -4.071   0.242  24.730  0.00  0.00    +0.203 A 
ATOM     13  N   UNL     1      -4.572   0.492  25.337  0.00  0.00    -0.056 NA
ATOM     14  O   UNL     1      -4.655   1.311  25.278  0.00  0.00    -0.336 OA
ATOM     15  C   UNL     1      -4.206   1.567  24.635  0.00  0.00    +0.251 A 
ATOM     16  N   UNL     1      -3.845   0.906  24.296  0.00  0.00    -0.190 NA
ENDROOT
BRANCH  12   8
ATOM      6  C   UNL     1      -2.858  -1.571  24.673  0.00  0.00    +0.148 A 
ATOM      7  C   UNL     1      -3.091  -0.794  24.820  0.00  0.00    +0.039 A 
ATOM      8  C   UNL     1      -3.838  -0.536  24.583  0.00  0.00    +0.043 A 
ATOM      9  C   UNL     1      -4.352  -1.054  24.199  0.00  0.00    +0.024 A 
ATOM     10  C   UNL     1      -4.119  -1.832  24.052  0.00  0.00    +0.100 A 
ATOM     11  N   UNL     1      -3.372  -2.091  24.289  0.00  0.00    -0.228 NA
BRANCH   6   5
ATOM      5  N   UNL     1      -2.112  -1.831  24.909  0.00  0.00    -0.218 NA
BRANCH   5   4
ATOM      4  C   UNL     1      -1.446  -1.639  24.461  0.00  0.00    +0.146 C 
BRANCH   4   3
ATOM      3  C   UNL     1      -0.725  -1.496  24.835  0.00  0.00    +0.166 C 
BRANCH   3   2
ATOM      1  C   UNL     1       0.208  -0.642  24.169  0.00  0.00    +0.174 C 
ATOM      2  O   UNL     1      -0.040  -1.399  24.385  0.00  0.00    -0.349 OA
ENDBRANCH   3   2
ENDBRANCH   4   3
ENDBRANCH   5   4
ENDBRANCH   6   5
ENDBRANCH  12   8
BRANCH  15  17
ATOM     17  C   UNL     1      -4.130   2.346  24.376  0.00  0.00    +0.138 C 
ATOM     18  C   UNL     1      -4.637   2.735  23.854  0.00  0.00    +0.027 C 
ATOM     19  C   UNL     1      -4.355   3.504  23.749  0.00  0.00    +0.019 C 
ATOM     20  C   UNL     1      -3.673   3.589  24.205  0.00  0.00    +0.073 C 
ATOM     21  N   UNL     1      -3.534   2.874  24.593  0.00  0.00    -0.261 NA
BRANCH  21  22
ATOM     22  C   UNL     1      -2.909   2.715  25.107  0.00  0.00    +0.119 C 
BRANCH  22  23
ATOM     23  C   UNL     1      -2.243   3.201  25.109  0.00  0.00    +0.075 A 
ATOM     24  N   UNL     1      -1.593   3.013  24.635  0.00  0.00    -0.247 NA
ATOM     25  C   UNL     1      -0.927   3.498  24.637  0.00  0.00    +0.098 A 
ATOM     26  C   UNL     1      -0.909   4.172  25.113  0.00  0.00    +0.021 A 
ATOM     27  C   UNL     1      -1.557   4.360  25.587  0.00  0.00    +0.003 A 
ATOM     28  C   UNL     1      -2.224   3.874  25.584  0.00  0.00    +0.016 A 
ENDBRANCH  22  23
ENDBRANCH  21  22
ENDBRANCH  15  17
TORSDOF 8
ENDMDL
MODEL 6
REMARK VINA RESULT:      -8.9      1.400      5.303
REMARK  Name = 
REMARK  8 active torsions:
REMARK  status: ('A' for Active; 'I' for Inactive)
REMARK    1  A    between atoms: O_2  and  C_3
REMARK    2  A    between atoms: C_3  and  C_4
REMARK    3  A    between atoms: C_4  and  N_5
REMARK    4  A    between atoms: N_5  and  C_6
REMARK    5  A    between atoms: C_8  and  C_12
REMARK    6  A    between atoms: C_15  and  C_17
REMARK    7  A    between atoms: N_21  and  C_22
REMARK    8  A    between atoms: C_22  and  C_23
REMARK                            x       y       z     vdW  Elec       q    Type
REMARK                         _______ _______ _______ _____ _____    ______ ____
ROOT
ATOM     12  C   UNL     1      -0.502   1.464  25.002  0.00  0.00    +0.203 A 
ATOM     13  N   UNL     1      -0.310   1.621  25.789  0.00  0.00    -0.056 NA
ATOM     14  O   UNL     1      -0.591   2.375  25.975  0.00  0.00    -0.336 OA
ATOM     15  C   UNL     1      -0.957   2.682  25.302  0.00  0.00    +0.251 A 
ATOM     16  N   UNL     1      -0.902   2.119  24.701  0.00  0.00    -0.190 NA
ENDROOT
BRANCH  12   8
ATOM      6  C   UNL     1       0.394   0.099  23.553  0.00  0.00    +0.148 A 
ATOM      7  C   UNL     1       0.217   0.791  23.967  0.00  0.00    +0.039 A 
ATOM      8  C   UNL     1      -0.325   0.772  24.589  0.00  0.00    +0.043 A 
ATOM      9  C   UNL     1      -0.690   0.063  24.798  0.00  0.00    +0.024 A 
ATOM     10  C   UNL     1      -0.513  -0.629  24.384  0.00  0.00    +0.100 A 
ATOM     11  N   UNL     1       0.029  -0.612  23.762  0.00  0.00    -0.228 NA
BRANCH   6   5
ATOM      5  N   UNL     1       0.935   0.116  22.931  0.00  0.00    -0.218 NA
BRANCH   5   4
ATOM      4  C   UNL     1       1.744   0.075  23.087  0.00  0.00    +0.146 C 
BRANCH   4   3
ATOM      3  C   UNL     1       2.287   0.163  22.472  0.00  0.00    +0.166 C 
BRANCH   3   2
ATOM      1  C   UNL     1       3.636   0.636  22.479  0.00  0.00    +0.174 C 
ATOM      2  O   UNL     1       3.090   0.031  22.608  0.00  0.00    -0.349 OA
ENDBRANCH   3   2
ENDBRANCH   4   3
ENDBRANCH   5   4
ENDBRANCH   6   5
ENDBRANCH  12   8
BRANCH  15  17
ATOM     17  C   UNL     1      -1.315   3.423  25.241  0.00  0.00    +0.138 C 
ATOM     18  C   UNL     1      -0.929   4.138  25.098  0.00  0.00    +0.027 C 
ATOM     19  C   UNL     1      -1.498   4.736  25.081  0.00  0.00    +0.019 C 
ATOM     20  C   UNL     1      -2.235   4.390  25.214  0.00  0.00    +0.073 C 
ATOM     21  N   UNL     1      -2.122   3.579  25.313  0.00  0.00    -0.261 NA
BRANCH  21  22
ATOM     22  C   UNL     1      -2.713   3.022  25.459  0.00  0.00    +0.119 C 
BRANCH  22  23
ATOM     23  C   UNL     1      -3.506   3.227  25.365  0.00  0.00    +0.075 A 
ATOM     24  N   UNL     1      -3.916   3.584  25.987  0.00  0.00    -0.247 NA
ATOM     25  C   UNL     1      -4.709   3.789  25.893  0.00  0.00    +0.098 A 
ATOM     26  C   UNL     1      -5.093   3.639  25.179  0.00  0.00    +0.021 A 
ATOM     27  C   UNL     1      -4.684   3.282  24.558  0.00  0.00    +0.003 A 
ATOM     28  C   UNL     1      -3.890   3.077  24.651  0.00  0.00    +0.016 A 
ENDBRANCH  22  23
ENDBRANCH  21  22
ENDBRANCH  15  17
TORSDOF 8
ENDMDL
