MODEL 1
REMARK VINA RESULT:     -14.9      0.000      0.000
REMARK  Name = 
REMARK  5 active torsions:
REMARK  status: ('A' for Active; 'I' for Inactive)
REMARK    1  A    between atoms: C_4  and  N_5
REMARK    2  A    between atoms: N_8  and  C_9
REMARK    3  A    between atoms: C_19  and  C_21
REMARK    4  A    between atoms: C_21  and  O_22
REMARK    5  A    between atoms: O_22  and  C_23
REMARK                            x       y       z     vdW  Elec       q    Type
REMARK                         _______ _______ _______ _____ _____    ______ ____
ROOT
ATOM      9  C   UNL     1      -3.786   1.293  24.875  0.00  0.00    +0.131 A 
ATOM     10  C   UNL     1      -4.582   1.130  25.016  0.00  0.00    +0.023 A 
ATOM     11  C   UNL     1      -5.098   1.740  25.224  0.00  0.00    +0.014 A 
ATOM     12  C   UNL     1      -4.817   2.513  25.290  0.00  0.00    +0.041 A 
ATOM     13  C   UNL     1      -5.105   3.362  25.488  0.00  0.00    +0.058 C 
ATOM     14  C   UNL     1      -5.681   3.720  25.667  0.00  0.00    +0.011 C 
ATOM     15  C   UNL     1      -4.894   3.877  25.527  0.00  0.00    +0.043 C 
ATOM     16  C   UNL     1      -3.993   4.262  25.401  0.00  0.00    +0.095 C 
ATOM     17  N   UNL     1      -3.572   3.569  25.200  0.00  0.00    -0.276 N 
ATOM     18  C   UNL     1      -4.240   3.750  25.369  0.00  0.00    +0.099 C 
ATOM     19  C   UNL     1      -2.934   3.091  24.988  0.00  0.00    +0.270 C 
ATOM     20  O   UNL     1      -2.186   3.423  24.885  0.00  0.00    -0.271 OA
ATOM     29  C   UNL     1      -4.584   2.993  25.319  0.00  0.00    +0.110 C 
ATOM     30  N   UNL     1      -4.020   2.675  25.149  0.00  0.00    -0.298 N 
ATOM     31  C   UNL     1      -3.505   2.065  24.942  0.00  0.00    +0.276 A 
ATOM     32  O   UNL     1      -2.781   1.728  24.735  0.00  0.00    -0.266 OA
ENDROOT
BRANCH   9   8
ATOM      5  N   UNL     1      -3.017  -0.710  24.471  0.00  0.00    -0.161 NA
ATOM      6  C   UNL     1      -3.533  -0.099  24.679  0.00  0.00    +0.348 C 
ATOM      7  O   UNL     1      -4.310  -0.272  24.896  0.00  0.00    -0.248 OA
ATOM      8  N   UNL     1      -3.271   0.683  24.668  0.00  0.00    -0.156 NA
BRANCH   5   4
ATOM      1  F   UNL     1      -4.560  -2.819  23.313  0.00  0.00    -0.204 F 
ATOM      2  C   UNL     1      -4.051  -2.546  23.902  0.00  0.00    +0.141 A 
ATOM      3  C   UNL     1      -3.789  -1.764  23.892  0.00  0.00    +0.046 A 
ATOM      4  C   UNL     1      -3.279  -1.492  24.481  0.00  0.00    +0.077 A 
ATOM     33  C   UNL     1      -3.031  -2.002  25.080  0.00  0.00    +0.017 A 
ATOM     34  C   UNL     1      -3.293  -2.784  25.091  0.00  0.00    +0.004 A 
ATOM     35  C   UNL     1      -3.803  -3.056  24.502  0.00  0.00    +0.030 A 
ENDBRANCH   5   4
ENDBRANCH   9   8
BRANCH  19  21
ATOM     21  C   UNL     1      -3.044   2.280  24.880  0.00  0.00    +0.290 C 
BRANCH  21  22
ATOM     22  O   UNL     1      -2.432   1.818  24.577  0.00  0.00    -0.466 OA
BRANCH  22  23
ATOM     23  C   UNL     1      -1.649   1.989  24.773  0.00  0.00    +0.139 A 
ATOM     24  C   UNL     1      -1.141   2.300  24.202  0.00  0.00    +0.037 A 
ATOM     25  C   UNL     1      -0.357   2.472  24.397  0.00  0.00    +0.003 A 
ATOM     26  C   UNL     1      -0.083   2.332  25.162  0.00  0.00    +0.000 A 
ATOM     27  C   UNL     1      -0.592   2.020  25.733  0.00  0.00    +0.003 A 
ATOM     28  C   UNL     1      -1.374   1.849  25.537  0.00  0.00    +0.037 A 
ENDBRANCH  22  23
ENDBRANCH  21  22
ENDBRANCH  19  21
TORSDOF 5
ENDMDL
MODEL 2
REMARK VINA RESULT:     -14.4      1.049      2.896
REMARK  Name = 
REMARK  5 active torsions:
REMARK  status: ('A' for Active; 'I' for Inactive)
REMARK    1  A    between atoms: C_4  and  N_5
REMARK    2  A    between atoms: N_8  and  C_9
REMARK    3  A    between atoms: C_19  and  C_21
REMARK    4  A    between atoms: C_21  and  O_22
REMARK    5  A    between atoms: O_22  and  C_23
REMARK                            x       y       z     vdW  Elec       q    Type
REMARK                         _______ _______ _______ _____ _____    ______ ____
ROOT
ATOM      9  C   UNL     1      -2.362   1.168  25.076  0.00  0.00    +0.131 A 
ATOM     10  C   UNL     1      -1.686   0.721  25.232  0.00  0.00    +0.023 A 
ATOM     11  C   UNL     1      -0.975   1.098  25.413  0.00  0.00    +0.014 A 
ATOM     12  C   UNL     1      -0.939   1.921  25.437  0.00  0.00    +0.041 A 
ATOM     13  C   UNL     1      -0.347   2.606  25.594  0.00  0.00    +0.058 C 
ATOM     14  C   UNL     1       0.325   2.725  25.760  0.00  0.00    +0.011 C 
ATOM     15  C   UNL     1      -0.344   3.163  25.605  0.00  0.00    +0.043 C 
ATOM     16  C   UNL     1      -1.032   3.856  25.450  0.00  0.00    +0.095 C 
ATOM     17  N   UNL     1      -1.688   3.367  25.281  0.00  0.00    -0.276 N 
ATOM     18  C   UNL     1      -1.000   3.287  25.448  0.00  0.00    +0.099 C 
ATOM     19  C   UNL     1      -2.463   3.158  25.088  0.00  0.00    +0.270 C 
ATOM     20  O   UNL     1      -3.028   3.744  24.961  0.00  0.00    -0.271 OA
ATOM     29  C   UNL     1      -0.971   2.455  25.439  0.00  0.00    +0.110 C 
ATOM     30  N   UNL     1      -1.615   2.368  25.280  0.00  0.00    -0.298 N 
ATOM     31  C   UNL     1      -2.326   1.991  25.100  0.00  0.00    +0.276 A 
ATOM     32  O   UNL     1      -3.126   1.945  24.904  0.00  0.00    -0.266 OA
ENDROOT
BRANCH   9   8
ATOM      5  N   UNL     1      -3.802  -0.405  24.609  0.00  0.00    -0.161 NA
ATOM      6  C   UNL     1      -3.090  -0.028  24.790  0.00  0.00    +0.348 C 
ATOM      7  O   UNL     1      -2.397  -0.468  24.865  0.00  0.00    -0.248 OA
ATOM      8  N   UNL     1      -3.072   0.790  24.895  0.00  0.00    -0.156 NA
BRANCH   5   4
ATOM      1  F   UNL     1      -3.475  -3.043  25.657  0.00  0.00    -0.204 F 
ATOM      2  C   UNL     1      -3.656  -2.542  25.028  0.00  0.00    +0.141 A 
ATOM      3  C   UNL     1      -3.639  -1.724  25.133  0.00  0.00    +0.046 A 
ATOM      4  C   UNL     1      -3.820  -1.223  24.504  0.00  0.00    +0.077 A 
ATOM     33  C   UNL     1      -4.020  -1.539  23.768  0.00  0.00    +0.017 A 
ATOM     34  C   UNL     1      -4.038  -2.357  23.663  0.00  0.00    +0.004 A 
ATOM     35  C   UNL     1      -3.856  -2.858  24.292  0.00  0.00    +0.030 A 
ENDBRANCH   5   4
ENDBRANCH   9   8
BRANCH  19  21
ATOM     21  C   UNL     1      -2.671   2.362  25.023  0.00  0.00    +0.290 C 
BRANCH  21  22
ATOM     22  O   UNL     1      -3.421   2.154  24.752  0.00  0.00    -0.466 OA
BRANCH  22  23
ATOM     23  C   UNL     1      -4.078   2.605  24.964  0.00  0.00    +0.139 A 
ATOM     24  C   UNL     1      -4.417   3.122  24.418  0.00  0.00    +0.037 A 
ATOM     25  C   UNL     1      -5.074   3.574  24.630  0.00  0.00    +0.003 A 
ATOM     26  C   UNL     1      -5.391   3.509  25.389  0.00  0.00    +0.000 A 
ATOM     27  C   UNL     1      -5.052   2.992  25.935  0.00  0.00    +0.003 A 
ATOM     28  C   UNL     1      -4.396   2.540  25.723  0.00  0.00    +0.037 A 
ENDBRANCH  22  23
ENDBRANCH  21  22
ENDBRANCH  19  21
TORSDOF 5
ENDMDL
MODEL 3
REMARK VINA RESULT:     -13.9      1.285      1.500
REMARK  Name = 
REMARK  5 active torsions:
REMARK  status: ('A' for Active; 'I' for Inactive)
REMARK    1  A    between atoms: C_4  and  N_5
REMARK    2  A    between atoms: N_8  and  C_9
REMARK    3  A    between atoms: C_19  and  C_21
REMARK    4  A    between atoms: C_21  and  O_22
REMARK    5  A    between atoms: O_22  and  C_23
REMARK                            x       y       z     vdW  Elec       q    Type
REMARK                         _______ _______ _______ _____ _____    ______ ____
ROOT
ATOM      9  C   UNL     1      -3.389   1.165  24.842  0.00  0.00    +0.131 A 
ATOM     10  C   UNL     1      -3.987   0.606  24.943  0.00  0.00    +0.023 A 
ATOM     11  C   UNL     1      -4.755   0.850  25.120  0.00  0.00    +0.014 A 
ATOM     12  C   UNL     1      -4.924   1.653  25.197  0.00  0.00    +0.041 A 
ATOM     13  C   UNL     1      -5.625   2.221  25.375  0.00  0.00    +0.058 C 
ATOM     14  C   UNL     1      -6.311   2.219  25.523  0.00  0.00    +0.011 C 
ATOM     15  C   UNL     1      -5.718   2.768  25.423  0.00  0.00    +0.043 C 
ATOM     16  C   UNL     1      -5.149   3.572  25.340  0.00  0.00    +0.095 C 
ATOM     17  N   UNL     1      -4.418   3.208  25.164  0.00  0.00    -0.276 N 
ATOM     18  C   UNL     1      -5.088   3.007  25.299  0.00  0.00    +0.099 C 
ATOM     19  C   UNL     1      -3.614   3.140  24.988  0.00  0.00    +0.270 C 
ATOM     20  O   UNL     1      -3.148   3.817  24.921  0.00  0.00    -0.271 OA
ATOM     29  C   UNL     1      -4.981   2.183  25.235  0.00  0.00    +0.110 C 
ATOM     30  N   UNL     1      -4.327   2.213  25.096  0.00  0.00    -0.298 N 
ATOM     31  C   UNL     1      -3.559   1.969  24.918  0.00  0.00    +0.276 A 
ATOM     32  O   UNL     1      -2.757   2.066  24.751  0.00  0.00    -0.266 OA
ENDROOT
BRANCH   9   8
ATOM      5  N   UNL     1      -1.631  -0.108  24.612  0.00  0.00    -0.161 NA
ATOM      6  C   UNL     1      -2.399   0.136  24.790  0.00  0.00    +0.348 C 
ATOM      7  O   UNL     1      -2.945  -0.404  25.092  0.00  0.00    -0.248 OA
ATOM      8  N   UNL     1      -2.622   0.921  24.665  0.00  0.00    -0.156 NA
BRANCH   5   4
ATOM      1  F   UNL     1      -1.769  -2.867  23.878  0.00  0.00    -0.204 F 
ATOM      2  C   UNL     1      -1.477  -2.272  24.370  0.00  0.00    +0.141 A 
ATOM      3  C   UNL     1      -1.700  -1.488  24.245  0.00  0.00    +0.046 A 
ATOM      4  C   UNL     1      -1.408  -0.893  24.737  0.00  0.00    +0.077 A 
ATOM     33  C   UNL     1      -0.894  -1.082  25.354  0.00  0.00    +0.017 A 
ATOM     34  C   UNL     1      -0.672  -1.866  25.478  0.00  0.00    +0.004 A 
ATOM     35  C   UNL     1      -0.963  -2.461  24.987  0.00  0.00    +0.030 A 
ENDBRANCH   5   4
ENDBRANCH   9   8
BRANCH  19  21
ATOM     21  C   UNL     1      -3.277   2.394  24.879  0.00  0.00    +0.290 C 
BRANCH  21  22
ATOM     22  O   UNL     1      -2.506   2.329  24.595  0.00  0.00    -0.466 OA
BRANCH  22  23
ATOM     23  C   UNL     1      -1.930   2.868  24.835  0.00  0.00    +0.139 A 
ATOM     24  C   UNL     1      -1.620   3.408  24.293  0.00  0.00    +0.037 A 
ATOM     25  C   UNL     1      -1.043   3.948  24.532  0.00  0.00    +0.003 A 
ATOM     26  C   UNL     1      -0.777   3.948  25.313  0.00  0.00    +0.000 A 
ATOM     27  C   UNL     1      -1.087   3.407  25.855  0.00  0.00    +0.003 A 
ATOM     28  C   UNL     1      -1.663   2.868  25.615  0.00  0.00    +0.037 A 
ENDBRANCH  22  23
ENDBRANCH  21  22
ENDBRANCH  19  21
TORSDOF 5
ENDMDL
MODEL 4
REMARK VINA RESULT:     -13.3      1.630      4.426
REMARK  Name = 
REMARK  5 active torsions:
REMARK  status: ('A' for Active; 'I' for Inactive)
REMARK    1  A    between atoms: C_4  and  N_5
REMARK    2  A    between atoms: N_8  and  C_9
REMARK    3  A    between atoms: C_19  and  C_21
REMARK    4  A    between atoms: C_21  and  O_22
REMARK    5  A    between atoms: O_22  and  C_23
REMARK                            x       y       z     vdW  Elec       q    Type
REMARK                         _______ _______ _______ _____ _____    ______ ____
ROOT
ATOM      9  C   UNL     1      -3.331   0.130  24.713  0.00  0.00    +0.131 A 
ATOM     10  C   UNL     1      -4.104  -0.138  24.604  0.00  0.00    +0.023 A 
ATOM     11  C   UNL     1      -4.250  -0.941  24.482  0.00  0.00    +0.014 A 
ATOM     12  C   UNL     1      -3.622  -1.476  24.470  0.00  0.00    +0.041 A 
ATOM     13  C   UNL     1      -3.451  -2.373  24.366  0.00  0.00    +0.058 C 
ATOM     14  C   UNL     1      -3.775  -2.985  24.253  0.00  0.00    +0.011 C 
ATOM     15  C   UNL     1      -3.013  -2.717  24.361  0.00  0.00    +0.043 C 
ATOM     16  C   UNL     1      -2.039  -2.591  24.470  0.00  0.00    +0.095 C 
ATOM     17  N   UNL     1      -2.017  -1.764  24.583  0.00  0.00    -0.276 N 
ATOM     18  C   UNL     1      -2.508  -2.267  24.469  0.00  0.00    +0.099 C 
ATOM     19  C   UNL     1      -1.699  -1.013  24.714  0.00  0.00    +0.270 C 
ATOM     20  O   UNL     1      -0.885  -0.920  24.804  0.00  0.00    -0.271 OA
ATOM     29  C   UNL     1      -3.182  -1.779  24.471  0.00  0.00    +0.110 C 
ATOM     30  N   UNL     1      -2.849  -1.208  24.579  0.00  0.00    -0.298 N 
ATOM     31  C   UNL     1      -2.704  -0.405  24.701  0.00  0.00    +0.276 A 
ATOM     32  O   UNL     1      -2.243   0.265  24.834  0.00  0.00    -0.266 OA
ENDROOT
BRANCH   9   8
ATOM      5  N   UNL     1      -3.672   2.259  25.057  0.00  0.00    -0.161 NA
ATOM      6  C   UNL     1      -3.817   1.455  24.936  0.00  0.00    +0.348 C 
ATOM      7  O   UNL     1      -4.593   1.174  24.916  0.00  0.00    -0.248 OA
ATOM      8  N   UNL     1      -3.187   0.933  24.834  0.00  0.00    -0.156 NA
BRANCH   5   4
ATOM      1  F   UNL     1      -6.004   3.073  26.494  0.00  0.00    -0.204 F 
ATOM      2  C   UNL     1      -5.469   3.188  25.877  0.00  0.00    +0.141 A 
ATOM      3  C   UNL     1      -4.838   2.666  25.776  0.00  0.00    +0.046 A 
ATOM      4  C   UNL     1      -4.303   2.781  25.159  0.00  0.00    +0.077 A 
ATOM     33  C   UNL     1      -4.397   3.418  24.643  0.00  0.00    +0.017 A 
ATOM     34  C   UNL     1      -5.028   3.940  24.745  0.00  0.00    +0.004 A 
ATOM     35  C   UNL     1      -5.563   3.825  25.362  0.00  0.00    +0.030 A 
ENDBRANCH   5   4
ENDBRANCH   9   8
BRANCH  19  21
ATOM     21  C   UNL     1      -2.198  -0.356  24.755  0.00  0.00    +0.290 C 
BRANCH  21  22
ATOM     22  O   UNL     1      -1.893   0.379  24.973  0.00  0.00    -0.466 OA
BRANCH  22  23
ATOM     23  C   UNL     1      -1.182   0.643  24.650  0.00  0.00    +0.139 A 
ATOM     24  C   UNL     1      -0.536   0.792  25.142  0.00  0.00    +0.037 A 
ATOM     25  C   UNL     1       0.176   1.057  24.820  0.00  0.00    +0.003 A 
ATOM     26  C   UNL     1       0.242   1.173  24.006  0.00  0.00    +0.000 A 
ATOM     27  C   UNL     1      -0.404   1.025  23.514  0.00  0.00    +0.003 A 
ATOM     28  C   UNL     1      -1.115   0.760  23.836  0.00  0.00    +0.037 A 
ENDBRANCH  22  23
ENDBRANCH  21  22
ENDBRANCH  19  21
TORSDOF 5
ENDMDL
MODEL 5
REMARK VINA RESULT:     -13.3      1.927      3.782
REMARK  Name = 
REMARK  5 active torsions:
REMARK  status: ('A' for Active; 'I' for Inactive)
REMARK    1  A    between atoms: C_4  and  N_5
REMARK    2  A    between atoms: N_8  and  C_9
REMARK    3  A    between atoms: C_19  and  C_21
REMARK    4  A    between atoms: C_21  and  O_22
REMARK    5  A    between atoms: O_22  and  C_23
REMARK                            x       y       z     vdW  Elec       q    Type
REMARK                         _______ _______ _______ _____ _____    ______ ____
ROOT
ATOM      9  C   UNL     1      -2.362   1.021  24.262  0.00  0.00    +0.131 A 
ATOM     10  C   UNL     1      -2.214   1.771  23.951  0.00  0.00    +0.023 A 
ATOM     11  C   UNL     1      -2.809   2.342  23.948  0.00  0.00    +0.014 A 
ATOM     12  C   UNL     1      -3.553   2.164  24.257  0.00  0.00    +0.041 A 
ATOM     13  C   UNL     1      -4.377   2.545  24.396  0.00  0.00    +0.058 C 
ATOM     14  C   UNL     1      -4.730   3.144  24.303  0.00  0.00    +0.011 C 
ATOM     15  C   UNL     1      -4.873   2.403  24.610  0.00  0.00    +0.043 C 
ATOM     16  C   UNL     1      -5.235   1.579  25.017  0.00  0.00    +0.095 C 
ATOM     17  N   UNL     1      -4.561   1.089  24.966  0.00  0.00    -0.276 N 
ATOM     18  C   UNL     1      -4.742   1.756  24.793  0.00  0.00    +0.099 C 
ATOM     19  C   UNL     1      -4.091   0.415  25.046  0.00  0.00    +0.270 C 
ATOM     20  O   UNL     1      -4.404  -0.267  25.388  0.00  0.00    -0.271 OA
ATOM     29  C   UNL     1      -4.015   1.997  24.468  0.00  0.00    +0.110 C 
ATOM     30  N   UNL     1      -3.701   1.414  24.568  0.00  0.00    -0.298 N 
ATOM     31  C   UNL     1      -3.106   0.843  24.570  0.00  0.00    +0.276 A 
ATOM     32  O   UNL     1      -2.772   0.104  24.718  0.00  0.00    -0.266 OA
ENDROOT
BRANCH   9   8
ATOM      5  N   UNL     1      -0.437   0.047  23.930  0.00  0.00    -0.161 NA
ATOM      6  C   UNL     1      -1.033   0.619  23.927  0.00  0.00    +0.348 C 
ATOM      7  O   UNL     1      -0.895   1.358  23.587  0.00  0.00    -0.248 OA
ATOM      8  N   UNL     1      -1.767   0.451  24.264  0.00  0.00    -0.156 NA
BRANCH   5   4
ATOM      1  F   UNL     1       1.472  -0.340  21.839  0.00  0.00    -0.204 F 
ATOM      2  C   UNL     1       1.251   0.022  22.547  0.00  0.00    +0.141 A 
ATOM      3  C   UNL     1       0.518  -0.146  22.884  0.00  0.00    +0.046 A 
ATOM      4  C   UNL     1       0.297   0.215  23.592  0.00  0.00    +0.077 A 
ATOM     33  C   UNL     1       0.809   0.744  23.963  0.00  0.00    +0.017 A 
ATOM     34  C   UNL     1       1.543   0.912  23.626  0.00  0.00    +0.004 A 
ATOM     35  C   UNL     1       1.764   0.551  22.918  0.00  0.00    +0.030 A 
ENDBRANCH   5   4
ENDBRANCH   9   8
BRANCH  19  21
ATOM     21  C   UNL     1      -3.309   0.424  24.784  0.00  0.00    +0.290 C 
BRANCH  21  22
ATOM     22  O   UNL     1      -2.818  -0.222  24.930  0.00  0.00    -0.466 OA
BRANCH  22  23
ATOM     23  C   UNL     1      -3.120  -0.988  24.888  0.00  0.00    +0.139 A 
ATOM     24  C   UNL     1      -3.155  -1.455  25.568  0.00  0.00    +0.037 A 
ATOM     25  C   UNL     1      -3.457  -2.223  25.527  0.00  0.00    +0.003 A 
ATOM     26  C   UNL     1      -3.724  -2.522  24.806  0.00  0.00    +0.000 A 
ATOM     27  C   UNL     1      -3.688  -2.055  24.126  0.00  0.00    +0.003 A 
ATOM     28  C   UNL     1      -3.386  -1.289  24.168  0.00  0.00    +0.037 A 
ENDBRANCH  22  23
ENDBRANCH  21  22
ENDBRANCH  19  21
TORSDOF 5
ENDMDL
MODEL 6
REMARK VINA RESULT:     -13.0      2.020      4.868
REMARK  Name = 
REMARK  5 active torsions:
REMARK  status: ('A' for Active; 'I' for Inactive)
REMARK    1  A    between atoms: C_4  and  N_5
REMARK    2  A    between atoms: N_8  and  C_9
REMARK    3  A    between atoms: C_19  and  C_21
REMARK    4  A    between atoms: C_21  and  O_22
REMARK    5  A    between atoms: O_22  and  C_23
REMARK                            x       y       z     vdW  Elec       q    Type
REMARK                         _______ _______ _______ _____ _____    ______ ____
ROOT
ATOM      9  C   UNL     1      -2.342   0.715  24.581  0.00  0.00    +0.131 A 
ATOM     10  C   UNL     1      -2.024   1.432  24.323  0.00  0.00    +0.023 A 
ATOM     11  C   UNL     1      -1.254   1.458  24.027  0.00  0.00    +0.014 A 
ATOM     12  C   UNL     1      -0.803   0.769  23.989  0.00  0.00    +0.041 A 
ATOM     13  C   UNL     1       0.029   0.474  23.732  0.00  0.00    +0.058 C 
ATOM     14  C   UNL     1       0.634   0.702  23.459  0.00  0.00    +0.011 C 
ATOM     15  C   UNL     1       0.317  -0.004  23.716  0.00  0.00    +0.043 C 
ATOM     16  C   UNL     1       0.115  -0.936  23.972  0.00  0.00    +0.095 C 
ATOM     17  N   UNL     1      -0.667  -0.840  24.249  0.00  0.00    -0.276 N 
ATOM     18  C   UNL     1      -0.151  -0.432  23.975  0.00  0.00    +0.099 C 
ATOM     19  C   UNL     1      -1.402  -1.042  24.566  0.00  0.00    +0.270 C 
ATOM     20  O   UNL     1      -1.559  -1.823  24.777  0.00  0.00    -0.271 OA
ATOM     29  C   UNL     1      -0.554   0.296  23.987  0.00  0.00    +0.110 C 
ATOM     30  N   UNL     1      -1.121   0.053  24.248  0.00  0.00    -0.298 N 
ATOM     31  C   UNL     1      -1.890   0.026  24.544  0.00  0.00    +0.276 A 
ATOM     32  O   UNL     1      -2.562  -0.328  24.866  0.00  0.00    -0.266 OA
ENDROOT
BRANCH   9   8
ATOM      5  N   UNL     1      -4.329   1.354  25.220  0.00  0.00    -0.161 NA
ATOM      6  C   UNL     1      -3.559   1.381  24.924  0.00  0.00    +0.348 C 
ATOM      7  O   UNL     1      -3.237   2.099  24.675  0.00  0.00    -0.248 OA
ATOM      8  N   UNL     1      -3.111   0.690  24.877  0.00  0.00    -0.156 NA
BRANCH   5   4
ATOM      1  F   UNL     1      -4.702   3.996  26.243  0.00  0.00    -0.204 F 
ATOM      2  C   UNL     1      -4.963   3.366  25.779  0.00  0.00    +0.141 A 
ATOM      3  C   UNL     1      -4.516   2.675  25.732  0.00  0.00    +0.046 A 
ATOM      4  C   UNL     1      -4.777   2.045  25.267  0.00  0.00    +0.077 A 
ATOM     33  C   UNL     1      -5.486   2.106  24.850  0.00  0.00    +0.017 A 
ATOM     34  C   UNL     1      -5.934   2.797  24.897  0.00  0.00    +0.004 A 
ATOM     35  C   UNL     1      -5.672   3.427  25.362  0.00  0.00    +0.030 A 
ENDBRANCH   5   4
ENDBRANCH   9   8
BRANCH  19  21
ATOM     21  C   UNL     1      -1.979  -0.461  24.672  0.00  0.00    +0.290 C 
BRANCH  21  22
ATOM     22  O   UNL     1      -2.696  -0.654  25.031  0.00  0.00    -0.466 OA
BRANCH  22  23
ATOM     23  C   UNL     1      -3.069  -1.368  24.854  0.00  0.00    +0.139 A 
ATOM     24  C   UNL     1      -3.061  -1.984  25.403  0.00  0.00    +0.037 A 
ATOM     25  C   UNL     1      -3.434  -2.699  25.226  0.00  0.00    +0.003 A 
ATOM     26  C   UNL     1      -3.814  -2.797  24.501  0.00  0.00    +0.000 A 
ATOM     27  C   UNL     1      -3.821  -2.181  23.952  0.00  0.00    +0.003 A 
ATOM     28  C   UNL     1      -3.449  -1.467  24.129  0.00  0.00    +0.037 A 
ENDBRANCH  22  23
ENDBRANCH  21  22
ENDBRANCH  19  21
TORSDOF 5
ENDMDL
