REMARK  Name = 
REMARK  4 active torsions:
REMARK  status: ('A' for Active; 'I' for Inactive)
REMARK    1  A    between atoms: N_2  and  C_4
REMARK    2  A    between atoms: C_7  and  C_8
REMARK    3  A    between atoms: C_8  and  N_9
REMARK    4  A    between atoms: C_10  and  C_12
REMARK                            x       y       z     vdW  Elec       q    Type
REMARK                         _______ _______ _______ _____ _____    ______ ____
ROOT
ATOM      4  C   UNL     1       3.595  -1.611   0.000  0.00  0.00    +0.121 C 
ATOM      5  C   UNL     1       4.262  -2.096   0.000  0.00  0.00    +0.161 C 
ATOM      6  O   UNL     1       4.007  -2.881   0.000  0.00  0.00    -0.350 OA
ATOM      7  C   UNL     1       3.182  -2.881   0.000  0.00  0.00    +0.168 C 
ATOM     17  C   UNL     1       2.928  -2.096   0.000  0.00  0.00    +0.198 C 
ATOM     18  O   UNL     1       2.143  -1.841   0.000  0.00  0.00    -0.219 OA
ENDROOT
BRANCH   4   2
ATOM      1  C   UNL     1       4.309  -0.374   0.000  0.00  0.00    +0.090 C 
ATOM      2  N   UNL     1       3.595  -0.786   0.000  0.00  0.00    -0.267 NA
ATOM      3  C   UNL     1       2.880  -0.374   0.000  0.00  0.00    +0.090 C 
ENDBRANCH   4   2
BRANCH   7   8
ATOM      8  C   UNL     1       2.697  -3.548   0.000  0.00  0.00    +0.148 C 
BRANCH   8   9
ATOM      9  N   UNL     1       1.877  -3.462   0.000  0.00  0.00    -0.199 NA
ATOM     10  C   UNL     1       1.392  -4.130   0.000  0.00  0.00    +0.271 C 
ATOM     11  O   UNL     1       1.728  -4.883   0.000  0.00  0.00    -0.268 OA
BRANCH  10  12
ATOM     12  C   UNL     1       0.572  -4.043   0.000  0.00  0.00    +0.084 A 
ATOM     13  C   UNL     1       0.020  -4.656   0.000  0.00  0.00    +0.012 A 
ATOM     14  C   UNL     1      -0.734  -4.321   0.000  0.00  0.00    +0.008 A 
ATOM     15  C   UNL     1      -0.648  -3.500   0.000  0.00  0.00    +0.036 A 
ATOM     16  S   UNL     1       0.159  -3.329   0.000  0.00  0.00    -0.082 S 
ENDBRANCH  10  12
ENDBRANCH   8   9
ENDBRANCH   7   8
TORSDOF 4
