MODEL 1
REMARK VINA RESULT:     -16.1      0.000      0.000
REMARK  Name = 
REMARK  4 active torsions:
REMARK  status: ('A' for Active; 'I' for Inactive)
REMARK    1  A    between atoms: C_3  and  C_4
REMARK    2  A    between atoms: C_4  and  N_5
REMARK    3  A    between atoms: C_14  and  C_15
REMARK    4  A    between atoms: C_16  and  C_17
REMARK                            x       y       z     vdW  Elec       q    Type
REMARK                         _______ _______ _______ _____ _____    ______ ____
ROOT
ATOM      5  N   UNL     1      -3.189   3.168  25.042  0.00  0.00    -0.268 NA
ATOM      6  C   UNL     1      -3.362   3.976  25.167  0.00  0.00    +0.074 C 
ATOM      7  C   UNL     1      -4.344   3.922  25.260  0.00  0.00    +0.039 C 
ATOM      8  C   UNL     1      -5.143   4.047  25.358  0.00  0.00    +0.011 C 
ATOM      9  C   UNL     1      -4.713   3.504  25.242  0.00  0.00    +0.054 C 
ATOM     10  C   UNL     1      -3.764   3.572  25.154  0.00  0.00    +0.078 C 
ATOM     11  C   UNL     1      -4.718   2.593  25.120  0.00  0.00    +0.041 A 
ATOM     12  C   UNL     1      -5.238   1.954  25.088  0.00  0.00    +0.013 A 
ATOM     13  C   UNL     1      -4.949   1.193  24.957  0.00  0.00    +0.006 A 
ATOM     14  C   UNL     1      -4.139   1.071  24.858  0.00  0.00    +0.056 A 
ATOM     24  C   UNL     1      -3.618   1.710  24.891  0.00  0.00    +0.261 A 
ATOM     25  O   UNL     1      -2.808   1.588  24.792  0.00  0.00    -0.267 OA
ATOM     26  N   UNL     1      -3.908   2.471  25.022  0.00  0.00    -0.299 N 
ATOM     27  C   UNL     1      -4.339   2.971  25.132  0.00  0.00    +0.110 C 
ENDROOT
BRANCH  14  15
ATOM     15  C   UNL     1      -3.850   0.310  24.727  0.00  0.00    +0.005 C 
ATOM     16  C   UNL     1      -4.334  -0.344  24.866  0.00  0.00    +0.000 C 
BRANCH  16  17
ATOM     17  C   UNL     1      -4.046  -1.106  24.736  0.00  0.00    +0.000 A 
ATOM     18  C   UNL     1      -4.223  -1.499  24.032  0.00  0.00    +0.001 A 
ATOM     19  C   UNL     1      -3.935  -2.261  23.901  0.00  0.00    +0.011 A 
ATOM     20  C   UNL     1      -3.470  -2.629  24.475  0.00  0.00    +0.058 A 
ATOM     21 CL   UNL     1      -3.181  -3.392  24.344  0.00  0.00    -0.082 Cl
ATOM     22  C   UNL     1      -3.292  -2.237  25.178  0.00  0.00    +0.011 A 
ATOM     23  C   UNL     1      -3.581  -1.475  25.308  0.00  0.00    +0.001 A 
ENDBRANCH  16  17
ENDBRANCH  14  15
BRANCH   5   4
ATOM      4  C   UNL     1      -2.740   2.489  24.906  0.00  0.00    +0.102 C 
BRANCH   4   3
ATOM      1  O   UNL     1      -1.780   2.555  23.565  0.00  0.00    -0.287 OA
ATOM      2  C   UNL     1      -1.439   2.547  24.317  0.00  0.00    +0.193 A 
ATOM      3  C   UNL     1      -1.919   2.515  24.987  0.00  0.00    +0.033 A 
ATOM     28  C   UNL     1      -1.579   2.507  25.738  0.00  0.00    +0.000 A 
ATOM     29  C   UNL     1      -0.758   2.533  25.820  0.00  0.00    -0.000 A 
ATOM     30  C   UNL     1      -0.278   2.565  25.149  0.00  0.00    +0.003 A 
ATOM     31  C   UNL     1      -0.618   2.573  24.398  0.00  0.00    +0.042 A 
ENDBRANCH   4   3
ENDBRANCH   5   4
TORSDOF 4
ENDMDL
MODEL 2
REMARK VINA RESULT:     -14.3      1.137      2.755
REMARK  Name = 
REMARK  4 active torsions:
REMARK  status: ('A' for Active; 'I' for Inactive)
REMARK    1  A    between atoms: C_3  and  C_4
REMARK    2  A    between atoms: C_4  and  N_5
REMARK    3  A    between atoms: C_14  and  C_15
REMARK    4  A    between atoms: C_16  and  C_17
REMARK                            x       y       z     vdW  Elec       q    Type
REMARK                         _______ _______ _______ _____ _____    ______ ____
ROOT
ATOM      5  N   UNL     1      -2.481   3.365  25.126  0.00  0.00    -0.268 NA
ATOM      6  C   UNL     1      -2.189   4.142  25.221  0.00  0.00    +0.074 C 
ATOM      7  C   UNL     1      -1.226   3.945  25.325  0.00  0.00    +0.039 C 
ATOM      8  C   UNL     1      -0.418   3.952  25.425  0.00  0.00    +0.011 C 
ATOM      9  C   UNL     1      -0.924   3.476  25.326  0.00  0.00    +0.054 C 
ATOM     10  C   UNL     1      -1.852   3.683  25.228  0.00  0.00    +0.078 C 
ATOM     11  C   UNL     1      -1.056   2.571  25.241  0.00  0.00    +0.041 A 
ATOM     12  C   UNL     1      -0.638   1.860  25.238  0.00  0.00    +0.013 A 
ATOM     13  C   UNL     1      -1.038   1.147  25.134  0.00  0.00    +0.006 A 
ATOM     14  C   UNL     1      -1.857   1.144  25.033  0.00  0.00    +0.056 A 
ATOM     24  C   UNL     1      -2.276   1.854  25.036  0.00  0.00    +0.261 A 
ATOM     25  O   UNL     1      -3.094   1.851  24.934  0.00  0.00    -0.267 OA
ATOM     26  N   UNL     1      -1.875   2.568  25.140  0.00  0.00    -0.299 N 
ATOM     27  C   UNL     1      -1.374   3.001  25.235  0.00  0.00    +0.110 C 
ENDROOT
BRANCH  14  15
ATOM     15  C   UNL     1      -2.257   0.430  24.929  0.00  0.00    +0.005 C 
ATOM     16  C   UNL     1      -1.945  -0.266  25.245  0.00  0.00    +0.000 C 
BRANCH  16  17
ATOM     17  C   UNL     1      -2.344  -0.981  25.141  0.00  0.00    +0.000 A 
ATOM     18  C   UNL     1      -3.053  -1.120  25.541  0.00  0.00    +0.001 A 
ATOM     19  C   UNL     1      -3.452  -1.834  25.437  0.00  0.00    +0.011 A 
ATOM     20  C   UNL     1      -3.141  -2.410  24.934  0.00  0.00    +0.058 A 
ATOM     21 CL   UNL     1      -3.540  -3.126  24.830  0.00  0.00    -0.082 Cl
ATOM     22  C   UNL     1      -2.434  -2.272  24.535  0.00  0.00    +0.011 A 
ATOM     23  C   UNL     1      -2.035  -1.557  24.638  0.00  0.00    +0.001 A 
ENDBRANCH  16  17
ENDBRANCH  14  15
BRANCH   5   4
ATOM      4  C   UNL     1      -3.027   2.757  25.012  0.00  0.00    +0.102 C 
BRANCH   4   3
ATOM      1  O   UNL     1      -3.982   2.903  23.674  0.00  0.00    -0.287 OA
ATOM      2  C   UNL     1      -4.312   2.979  24.427  0.00  0.00    +0.193 A 
ATOM      3  C   UNL     1      -3.834   2.905  25.096  0.00  0.00    +0.033 A 
ATOM     28  C   UNL     1      -4.163   2.981  25.848  0.00  0.00    +0.000 A 
ATOM     29  C   UNL     1      -4.971   3.130  25.932  0.00  0.00    -0.000 A 
ATOM     30  C   UNL     1      -5.448   3.203  25.263  0.00  0.00    +0.003 A 
ATOM     31  C   UNL     1      -5.119   3.128  24.511  0.00  0.00    +0.042 A 
ENDBRANCH   4   3
ENDBRANCH   5   4
TORSDOF 4
ENDMDL
MODEL 3
REMARK VINA RESULT:     -14.2      2.162      4.264
REMARK  Name = 
REMARK  4 active torsions:
REMARK  status: ('A' for Active; 'I' for Inactive)
REMARK    1  A    between atoms: C_3  and  C_4
REMARK    2  A    between atoms: C_4  and  N_5
REMARK    3  A    between atoms: C_14  and  C_15
REMARK    4  A    between atoms: C_16  and  C_17
REMARK                            x       y       z     vdW  Elec       q    Type
REMARK                         _______ _______ _______ _____ _____    ______ ____
ROOT
ATOM      5  N   UNL     1      -1.644  -0.954  24.640  0.00  0.00    -0.268 NA
ATOM      6  C   UNL     1      -1.268  -1.690  24.515  0.00  0.00    +0.074 C 
ATOM      7  C   UNL     1      -2.062  -2.279  24.490  0.00  0.00    +0.039 C 
ATOM      8  C   UNL     1      -2.601  -2.887  24.446  0.00  0.00    +0.011 C 
ATOM      9  C   UNL     1      -2.610  -2.192  24.540  0.00  0.00    +0.054 C 
ATOM     10  C   UNL     1      -1.834  -1.636  24.561  0.00  0.00    +0.078 C 
ATOM     11  C   UNL     1      -3.188  -1.490  24.674  0.00  0.00    +0.041 A 
ATOM     12  C   UNL     1      -3.994  -1.329  24.751  0.00  0.00    +0.013 A 
ATOM     13  C   UNL     1      -4.250  -0.555  24.873  0.00  0.00    +0.006 A 
ATOM     14  C   UNL     1      -3.700   0.059  24.918  0.00  0.00    +0.056 A 
ATOM     24  C   UNL     1      -2.895  -0.101  24.841  0.00  0.00    +0.261 A 
ATOM     25  O   UNL     1      -2.346   0.513  24.885  0.00  0.00    -0.267 OA
ATOM     26  N   UNL     1      -2.639  -0.876  24.719  0.00  0.00    -0.299 N 
ATOM     27  C   UNL     1      -2.658  -1.539  24.631  0.00  0.00    +0.110 C 
ENDROOT
BRANCH  14  15
ATOM     15  C   UNL     1      -3.957   0.834  25.040  0.00  0.00    +0.005 C 
ATOM     16  C   UNL     1      -4.764   1.005  25.041  0.00  0.00    +0.000 C 
BRANCH  16  17
ATOM     17  C   UNL     1      -5.022   1.779  25.162  0.00  0.00    +0.000 A 
ATOM     18  C   UNL     1      -4.699   2.396  24.719  0.00  0.00    +0.001 A 
ATOM     19  C   UNL     1      -4.957   3.170  24.841  0.00  0.00    +0.011 A 
ATOM     20  C   UNL     1      -5.537   3.326  25.406  0.00  0.00    +0.058 A 
ATOM     21 CL   UNL     1      -5.796   4.101  25.528  0.00  0.00    -0.082 Cl
ATOM     22  C   UNL     1      -5.860   2.711  25.849  0.00  0.00    +0.011 A 
ATOM     23  C   UNL     1      -5.602   1.936  25.727  0.00  0.00    +0.001 A 
ENDBRANCH  16  17
ENDBRANCH  14  15
BRANCH   5   4
ATOM      4  C   UNL     1      -1.724  -0.141  24.754  0.00  0.00    +0.102 C 
BRANCH   4   3
ATOM      1  O   UNL     1      -0.878   0.549  25.992  0.00  0.00    -0.287 OA
ATOM      2  C   UNL     1      -0.669   0.708  25.210  0.00  0.00    +0.193 A 
ATOM      3  C   UNL     1      -1.092   0.363  24.591  0.00  0.00    +0.033 A 
ATOM     28  C   UNL     1      -0.883   0.523  23.809  0.00  0.00    +0.000 A 
ATOM     29  C   UNL     1      -0.250   1.027  23.645  0.00  0.00    -0.000 A 
ATOM     30  C   UNL     1       0.172   1.371  24.264  0.00  0.00    +0.003 A 
ATOM     31  C   UNL     1      -0.036   1.212  25.046  0.00  0.00    +0.042 A 
ENDBRANCH   4   3
ENDBRANCH   5   4
TORSDOF 4
ENDMDL
MODEL 4
REMARK VINA RESULT:     -13.4      2.419      4.594
REMARK  Name = 
REMARK  4 active torsions:
REMARK  status: ('A' for Active; 'I' for Inactive)
REMARK    1  A    between atoms: C_3  and  C_4
REMARK    2  A    between atoms: C_4  and  N_5
REMARK    3  A    between atoms: C_14  and  C_15
REMARK    4  A    between atoms: C_16  and  C_17
REMARK                            x       y       z     vdW  Elec       q    Type
REMARK                         _______ _______ _______ _____ _____    ______ ____
ROOT
ATOM      5  N   UNL     1      -2.763  -1.521  24.483  0.00  0.00    -0.268 NA
ATOM      6  C   UNL     1      -3.015  -2.289  24.274  0.00  0.00    +0.074 C 
ATOM      7  C   UNL     1      -3.958  -2.098  24.049  0.00  0.00    +0.039 C 
ATOM      8  C   UNL     1      -4.743  -2.106  23.832  0.00  0.00    +0.011 C 
ATOM      9  C   UNL     1      -4.270  -1.635  24.048  0.00  0.00    +0.054 C 
ATOM     10  C   UNL     1      -3.361  -1.836  24.261  0.00  0.00    +0.078 C 
ATOM     11  C   UNL     1      -4.178  -0.740  24.236  0.00  0.00    +0.041 A 
ATOM     12  C   UNL     1      -4.613  -0.040  24.244  0.00  0.00    +0.013 A 
ATOM     13  C   UNL     1      -4.252   0.666  24.472  0.00  0.00    +0.006 A 
ATOM     14  C   UNL     1      -3.457   0.672  24.692  0.00  0.00    +0.056 A 
ATOM     24  C   UNL     1      -3.022  -0.029  24.684  0.00  0.00    +0.261 A 
ATOM     25  O   UNL     1      -2.227  -0.024  24.904  0.00  0.00    -0.267 OA
ATOM     26  N   UNL     1      -3.383  -0.735  24.456  0.00  0.00    -0.299 N 
ATOM     27  C   UNL     1      -3.853  -1.164  24.248  0.00  0.00    +0.110 C 
ENDROOT
BRANCH  14  15
ATOM     15  C   UNL     1      -3.097   1.378  24.920  0.00  0.00    +0.005 C 
ATOM     16  C   UNL     1      -3.388   2.097  24.640  0.00  0.00    +0.000 C 
BRANCH  16  17
ATOM     17  C   UNL     1      -3.029   2.804  24.867  0.00  0.00    +0.000 A 
ATOM     18  C   UNL     1      -3.393   3.292  25.424  0.00  0.00    +0.001 A 
ATOM     19  C   UNL     1      -3.034   3.999  25.651  0.00  0.00    +0.011 A 
ATOM     20  C   UNL     1      -2.310   4.218  25.321  0.00  0.00    +0.058 A 
ATOM     21 CL   UNL     1      -1.950   4.926  25.549  0.00  0.00    -0.082 Cl
ATOM     22  C   UNL     1      -1.946   3.731  24.765  0.00  0.00    +0.011 A 
ATOM     23  C   UNL     1      -2.306   3.024  24.538  0.00  0.00    +0.001 A 
ENDBRANCH  16  17
ENDBRANCH  14  15
BRANCH   5   4
ATOM      4  C   UNL     1      -2.256  -0.918  24.732  0.00  0.00    +0.102 C 
BRANCH   4   3
ATOM      1  O   UNL     1      -1.513  -1.276  26.161  0.00  0.00    -0.287 OA
ATOM      2  C   UNL     1      -1.070  -1.225  25.467  0.00  0.00    +0.193 A 
ATOM      3  C   UNL     1      -1.442  -1.046  24.752  0.00  0.00    +0.033 A 
ATOM     28  C   UNL     1      -0.999  -0.995  24.058  0.00  0.00    +0.000 A 
ATOM     29  C   UNL     1      -0.184  -1.123  24.078  0.00  0.00    -0.000 A 
ATOM     30  C   UNL     1       0.188  -1.301  24.792  0.00  0.00    +0.003 A 
ATOM     31  C   UNL     1      -0.254  -1.353  25.486  0.00  0.00    +0.042 A 
ENDBRANCH   4   3
ENDBRANCH   5   4
TORSDOF 4
ENDMDL
MODEL 5
REMARK VINA RESULT:     -13.3      2.374      4.874
REMARK  Name = 
REMARK  4 active torsions:
REMARK  status: ('A' for Active; 'I' for Inactive)
REMARK    1  A    between atoms: C_3  and  C_4
REMARK    2  A    between atoms: C_4  and  N_5
REMARK    3  A    between atoms: C_14  and  C_15
REMARK    4  A    between atoms: C_16  and  C_17
REMARK                            x       y       z     vdW  Elec       q    Type
REMARK                         _______ _______ _______ _____ _____    ______ ____
ROOT
ATOM      5  N   UNL     1      -1.258  -0.717  24.443  0.00  0.00    -0.268 NA
ATOM      6  C   UNL     1      -0.602  -1.177  24.208  0.00  0.00    +0.074 C 
ATOM      7  C   UNL     1       0.005  -0.458  23.907  0.00  0.00    +0.039 C 
ATOM      8  C   UNL     1       0.612   0.006  23.624  0.00  0.00    +0.011 C 
ATOM      9  C   UNL     1      -0.034   0.097  23.882  0.00  0.00    +0.054 C 
ATOM     10  C   UNL     1      -0.610  -0.609  24.170  0.00  0.00    +0.078 C 
ATOM     11  C   UNL     1      -0.643   0.755  24.084  0.00  0.00    +0.041 A 
ATOM     12  C   UNL     1      -0.732   1.575  24.061  0.00  0.00    +0.013 A 
ATOM     13  C   UNL     1      -1.433   1.922  24.323  0.00  0.00    +0.006 A 
ATOM     14  C   UNL     1      -2.046   1.448  24.608  0.00  0.00    +0.056 A 
ATOM     24  C   UNL     1      -1.957   0.629  24.632  0.00  0.00    +0.261 A 
ATOM     25  O   UNL     1      -2.570   0.155  24.917  0.00  0.00    -0.267 OA
ATOM     26  N   UNL     1      -1.256   0.282  24.370  0.00  0.00    -0.299 N 
ATOM     27  C   UNL     1      -0.638   0.222  24.121  0.00  0.00    +0.110 C 
ENDROOT
BRANCH  14  15
ATOM     15  C   UNL     1      -2.746   1.795  24.870  0.00  0.00    +0.005 C 
ATOM     16  C   UNL     1      -2.957   2.548  24.606  0.00  0.00    +0.000 C 
BRANCH  16  17
ATOM     17  C   UNL     1      -3.658   2.896  24.868  0.00  0.00    +0.000 A 
ATOM     18  C   UNL     1      -4.382   2.650  24.558  0.00  0.00    +0.001 A 
ATOM     19  C   UNL     1      -5.082   2.998  24.819  0.00  0.00    +0.011 A 
ATOM     20  C   UNL     1      -5.058   3.593  25.391  0.00  0.00    +0.058 A 
ATOM     21 CL   UNL     1      -5.760   3.941  25.653  0.00  0.00    -0.082 Cl
ATOM     22  C   UNL     1      -4.336   3.840  25.700  0.00  0.00    +0.011 A 
ATOM     23  C   UNL     1      -3.634   3.491  25.439  0.00  0.00    +0.001 A 
ENDBRANCH  16  17
ENDBRANCH  14  15
BRANCH   5   4
ATOM      4  C   UNL     1      -2.009  -0.540  24.738  0.00  0.00    +0.102 C 
BRANCH   4   3
ATOM      1  O   UNL     1      -2.330  -1.141  26.240  0.00  0.00    -0.287 OA
ATOM      2  C   UNL     1      -2.728  -1.441  25.582  0.00  0.00    +0.193 A 
ATOM      3  C   UNL     1      -2.567  -1.140  24.830  0.00  0.00    +0.033 A 
ATOM     28  C   UNL     1      -2.965  -1.439  24.173  0.00  0.00    +0.000 A 
ATOM     29  C   UNL     1      -3.523  -2.040  24.266  0.00  0.00    -0.000 A 
ATOM     30  C   UNL     1      -3.684  -2.340  25.017  0.00  0.00    +0.003 A 
ATOM     31  C   UNL     1      -3.287  -2.042  25.675  0.00  0.00    +0.042 A 
ENDBRANCH   4   3
ENDBRANCH   5   4
TORSDOF 4
ENDMDL
