MODEL 1
REMARK VINA RESULT:      -8.5      0.000      0.000
REMARK  Name = 
REMARK  11 active torsions:
REMARK  status: ('A' for Active; 'I' for Inactive)
REMARK    1  A    between atoms: C_2  and  C_4
REMARK    2  A    between atoms: C_4  and  C_5
REMARK    3  A    between atoms: C_5  and  N_6
REMARK    4  A    between atoms: C_7  and  C_9
REMARK    5  A    between atoms: C_11  and  N_23
REMARK    6  A    between atoms: C_15  and  C_17
REMARK    7  A    between atoms: C_17  and  O_18
REMARK    8  A    between atoms: O_18  and  C_19
REMARK    9  A    between atoms: C_19  and  C_20
REMARK   10  A    between atoms: N_23  and  S_24
REMARK   11  A    between atoms: S_24  and  C_27
REMARK                            x       y       z     vdW  Elec       q    Type
REMARK                         _______ _______ _______ _____ _____    ______ ____
ROOT
ATOM      9  C   UNL     1      -0.914   0.616  24.401  0.00  0.00    +0.155 C 
ATOM     10  C   UNL     1      -1.505   0.234  24.833  0.00  0.00    +0.049 C 
ATOM     11  C   UNL     1      -1.451  -0.576  24.977  0.00  0.00    +0.102 C 
ATOM     12  C   UNL     1      -0.808  -1.005  24.688  0.00  0.00    +0.041 C 
ATOM     13  C   UNL     1      -0.218  -0.623  24.257  0.00  0.00    +0.095 C 
ATOM     14  N   UNL     1      -0.271   0.188  24.113  0.00  0.00    -0.271 N 
ATOM     15  C   UNL     1       0.319   0.570  23.682  0.00  0.00    +0.256 C 
ATOM     16  O   UNL     1       0.265   1.381  23.539  0.00  0.00    -0.272 OA
ENDROOT
BRANCH   9   7
ATOM      6  N   UNL     1      -0.905   1.962  24.883  0.00  0.00    -0.204 NA
ATOM      7  C   UNL     1      -0.967   1.428  24.258  0.00  0.00    +0.260 C 
ATOM      8  O   UNL     1      -1.083   1.703  23.489  0.00  0.00    -0.272 OA
BRANCH   6   5
ATOM      5  C   UNL     1      -0.958   2.772  24.739  0.00  0.00    +0.125 C 
BRANCH   5   4
ATOM      4  C   UNL     1      -0.991   3.302  25.371  0.00  0.00    +0.112 C 
BRANCH   4   2
ATOM      1  N   UNL     1      -1.912   4.392  25.442  0.00  0.00    -0.088 NA
ATOM      2  C   UNL     1      -1.170   4.095  25.235  0.00  0.00    +0.263 C 
ATOM      3  O   UNL     1      -0.608   4.592  24.893  0.00  0.00    -0.272 OA
ENDBRANCH   4   2
ENDBRANCH   5   4
ENDBRANCH   6   5
ENDBRANCH   9   7
BRANCH  15  17
ATOM     17  C   UNL     1       0.963   0.142  23.394  0.00  0.00    +0.228 C 
BRANCH  17  18
ATOM     18  O   UNL     1       1.618   0.537  23.089  0.00  0.00    -0.333 OA
BRANCH  18  19
ATOM     19  C   UNL     1       2.298   0.116  22.887  0.00  0.00    +0.257 C 
BRANCH  19  20
ATOM     20  C   UNL     1       2.952   0.511  22.577  0.00  0.00    +0.394 C 
ATOM     21  O   UNL     1       3.171   0.395  21.790  0.00  0.00    -0.243 OA
ATOM     22  O   UNL     1       3.390   1.023  23.055  0.00  0.00    -0.243 OA
ENDBRANCH  19  20
ENDBRANCH  18  19
ENDBRANCH  17  18
ENDBRANCH  15  17
BRANCH  11  23
ATOM     23  N   UNL     1      -2.042  -0.959  25.409  0.00  0.00    -0.079 NA
BRANCH  23  24
ATOM     24  S   UNL     1      -2.657  -1.343  25.016  0.00  0.00    +0.082 S 
ATOM     25  O   UNL     1      -3.140  -0.683  25.128  0.00  0.00    -0.151 OA
ATOM     26  O   UNL     1      -2.173  -2.002  24.905  0.00  0.00    -0.151 OA
BRANCH  24  27
ATOM     27  C   UNL     1      -3.272  -1.728  24.623  0.00  0.00    +0.153 A 
ATOM     28  C   UNL     1      -3.874  -1.364  24.193  0.00  0.00    +0.027 A 
ATOM     29  C   UNL     1      -4.367  -1.955  23.895  0.00  0.00    +0.009 A 
ATOM     30  C   UNL     1      -4.070  -2.684  24.142  0.00  0.00    +0.037 A 
ATOM     31  S   UNL     1      -3.392  -2.543  24.592  0.00  0.00    -0.067 S 
ENDBRANCH  24  27
ENDBRANCH  23  24
ENDBRANCH  11  23
TORSDOF 11
ENDMDL
MODEL 2
REMARK VINA RESULT:      -8.2      1.035      3.488
REMARK  Name = 
REMARK  11 active torsions:
REMARK  status: ('A' for Active; 'I' for Inactive)
REMARK    1  A    between atoms: C_2  and  C_4
REMARK    2  A    between atoms: C_4  and  C_5
REMARK    3  A    between atoms: C_5  and  N_6
REMARK    4  A    between atoms: C_7  and  C_9
REMARK    5  A    between atoms: C_11  and  N_23
REMARK    6  A    between atoms: C_15  and  C_17
REMARK    7  A    between atoms: C_17  and  O_18
REMARK    8  A    between atoms: O_18  and  C_19
REMARK    9  A    between atoms: C_19  and  C_20
REMARK   10  A    between atoms: N_23  and  S_24
REMARK   11  A    between atoms: S_24  and  C_27
REMARK                            x       y       z     vdW  Elec       q    Type
REMARK                         _______ _______ _______ _____ _____    ______ ____
ROOT
ATOM      9  C   UNL     1      -0.594   0.274  24.334  0.00  0.00    +0.155 C 
ATOM     10  C   UNL     1      -0.876  -0.489  24.470  0.00  0.00    +0.049 C 
ATOM     11  C   UNL     1      -1.359  -0.640  25.122  0.00  0.00    +0.102 C 
ATOM     12  C   UNL     1      -1.560  -0.027  25.637  0.00  0.00    +0.041 C 
ATOM     13  C   UNL     1      -1.278   0.736  25.500  0.00  0.00    +0.095 C 
ATOM     14  N   UNL     1      -0.794   0.886  24.848  0.00  0.00    -0.271 N 
ATOM     15  C   UNL     1      -0.512   1.649  24.712  0.00  0.00    +0.256 C 
ATOM     16  O   UNL     1      -0.028   1.799  24.060  0.00  0.00    -0.272 OA
ENDROOT
BRANCH   9   7
ATOM      6  N   UNL     1       0.639   0.082  23.636  0.00  0.00    -0.204 NA
ATOM      7  C   UNL     1      -0.110   0.425  23.682  0.00  0.00    +0.260 C 
ATOM      8  O   UNL     1      -0.376   0.918  23.077  0.00  0.00    -0.272 OA
BRANCH   6   5
ATOM      5  C   UNL     1       1.122   0.232  22.985  0.00  0.00    +0.125 C 
BRANCH   5   4
ATOM      4  C   UNL     1       1.826  -0.187  22.887  0.00  0.00    +0.112 C 
BRANCH   4   2
ATOM      1  N   UNL     1       3.053   0.488  22.606  0.00  0.00    -0.088 NA
ATOM      2  C   UNL     1       2.389   0.073  22.345  0.00  0.00    +0.263 C 
ATOM      3  O   UNL     1       2.289  -0.081  21.540  0.00  0.00    -0.272 OA
ENDBRANCH   4   2
ENDBRANCH   5   4
ENDBRANCH   6   5
ENDBRANCH   9   7
BRANCH  15  17
ATOM     17  C   UNL     1      -0.713   2.262  25.226  0.00  0.00    +0.228 C 
BRANCH  17  18
ATOM     18  O   UNL     1      -0.753   3.037  24.949  0.00  0.00    -0.333 OA
BRANCH  18  19
ATOM     19  C   UNL     1      -0.931   3.654  25.468  0.00  0.00    +0.257 C 
BRANCH  19  20
ATOM     20  C   UNL     1      -1.195   4.378  25.175  0.00  0.00    +0.394 C 
ATOM     21  O   UNL     1      -2.002   4.547  25.158  0.00  0.00    -0.243 OA
ATOM     22  O   UNL     1      -0.650   4.934  24.898  0.00  0.00    -0.243 OA
ENDBRANCH  19  20
ENDBRANCH  18  19
ENDBRANCH  17  18
ENDBRANCH  15  17
BRANCH  11  23
ATOM     23  N   UNL     1      -1.642  -1.403  25.259  0.00  0.00    -0.079 NA
BRANCH  23  24
ATOM     24  S   UNL     1      -2.349  -1.649  24.915  0.00  0.00    +0.082 S 
ATOM     25  O   UNL     1      -2.773  -1.259  25.507  0.00  0.00    -0.151 OA
ATOM     26  O   UNL     1      -1.925  -2.038  24.323  0.00  0.00    -0.151 OA
BRANCH  24  27
ATOM     27  C   UNL     1      -3.057  -1.896  24.569  0.00  0.00    +0.153 A 
ATOM     28  C   UNL     1      -3.617  -1.407  24.212  0.00  0.00    +0.027 A 
ATOM     29  C   UNL     1      -4.236  -1.883  23.943  0.00  0.00    +0.009 A 
ATOM     30  C   UNL     1      -4.057  -2.666  24.135  0.00  0.00    +0.037 A 
ATOM     31  S   UNL     1      -3.328  -2.673  24.522  0.00  0.00    -0.067 S 
ENDBRANCH  24  27
ENDBRANCH  23  24
ENDBRANCH  11  23
TORSDOF 11
ENDMDL
MODEL 3
REMARK VINA RESULT:      -8.0      2.301      4.228
REMARK  Name = 
REMARK  11 active torsions:
REMARK  status: ('A' for Active; 'I' for Inactive)
REMARK    1  A    between atoms: C_2  and  C_4
REMARK    2  A    between atoms: C_4  and  C_5
REMARK    3  A    between atoms: C_5  and  N_6
REMARK    4  A    between atoms: C_7  and  C_9
REMARK    5  A    between atoms: C_11  and  N_23
REMARK    6  A    between atoms: C_15  and  C_17
REMARK    7  A    between atoms: C_17  and  O_18
REMARK    8  A    between atoms: O_18  and  C_19
REMARK    9  A    between atoms: C_19  and  C_20
REMARK   10  A    between atoms: N_23  and  S_24
REMARK   11  A    between atoms: S_24  and  C_27
REMARK                            x       y       z     vdW  Elec       q    Type
REMARK                         _______ _______ _______ _____ _____    ______ ____
ROOT
ATOM      9  C   UNL     1      -2.339   0.693  24.192  0.00  0.00    +0.155 C 
ATOM     10  C   UNL     1      -3.018   1.148  24.079  0.00  0.00    +0.049 C 
ATOM     11  C   UNL     1      -2.971   1.865  23.674  0.00  0.00    +0.102 C 
ATOM     12  C   UNL     1      -2.244   2.127  23.382  0.00  0.00    +0.041 C 
ATOM     13  C   UNL     1      -1.566   1.672  23.495  0.00  0.00    +0.095 C 
ATOM     14  N   UNL     1      -1.613   0.955  23.900  0.00  0.00    -0.271 N 
ATOM     15  C   UNL     1      -0.935   0.500  24.014  0.00  0.00    +0.256 C 
ATOM     16  O   UNL     1      -0.982  -0.218  24.419  0.00  0.00    -0.272 OA
ENDROOT
BRANCH   9   7
ATOM      6  N   UNL     1      -2.872  -0.627  24.314  0.00  0.00    -0.204 NA
ATOM      7  C   UNL     1      -2.386  -0.025  24.598  0.00  0.00    +0.260 C 
ATOM      8  O   UNL     1      -1.946  -0.138  25.287  0.00  0.00    -0.272 OA
BRANCH   6   5
ATOM      5  C   UNL     1      -2.919  -1.344  24.720  0.00  0.00    +0.125 C 
BRANCH   5   4
ATOM      4  C   UNL     1      -3.582  -1.826  24.630  0.00  0.00    +0.112 C 
BRANCH   4   2
ATOM      1  N   UNL     1      -3.557  -3.176  24.163  0.00  0.00    -0.088 NA
ATOM      2  C   UNL     1      -3.529  -2.634  24.785  0.00  0.00    +0.263 C 
ATOM      3  O   UNL     1      -3.449  -2.901  25.561  0.00  0.00    -0.272 OA
ENDBRANCH   4   2
ENDBRANCH   5   4
ENDBRANCH   6   5
ENDBRANCH   9   7
BRANCH  15  17
ATOM     17  C   UNL     1      -0.209   0.761  23.722  0.00  0.00    +0.228 C 
BRANCH  17  18
ATOM     18  O   UNL     1       0.336   0.219  23.425  0.00  0.00    -0.333 OA
BRANCH  18  19
ATOM     19  C   UNL     1       1.066   0.479  23.140  0.00  0.00    +0.257 C 
BRANCH  19  20
ATOM     20  C   UNL     1       1.541  -0.028  22.697  0.00  0.00    +0.394 C 
ATOM     21  O   UNL     1       1.277  -0.312  21.969  0.00  0.00    -0.243 OA
ATOM     22  O   UNL     1       2.283  -0.253  22.983  0.00  0.00    -0.243 OA
ENDBRANCH  19  20
ENDBRANCH  18  19
ENDBRANCH  17  18
ENDBRANCH  15  17
BRANCH  11  23
ATOM     23  N   UNL     1      -3.650   2.321  23.560  0.00  0.00    -0.079 NA
BRANCH  23  24
ATOM     24  S   UNL     1      -4.006   2.696  24.202  0.00  0.00    +0.082 S 
ATOM     25  O   UNL     1      -4.591   2.113  24.218  0.00  0.00    -0.151 OA
ATOM     26  O   UNL     1      -3.422   3.279  24.185  0.00  0.00    -0.151 OA
BRANCH  24  27
ATOM     27  C   UNL     1      -4.363   3.072  24.844  0.00  0.00    +0.153 A 
ATOM     28  C   UNL     1      -4.052   3.707  25.268  0.00  0.00    +0.027 A 
ATOM     29  C   UNL     1      -4.591   3.906  25.861  0.00  0.00    +0.009 A 
ATOM     30  C   UNL     1      -5.235   3.393  25.803  0.00  0.00    +0.037 A 
ATOM     31  S   UNL     1      -5.094   2.878  25.174  0.00  0.00    -0.067 S 
ENDBRANCH  24  27
ENDBRANCH  23  24
ENDBRANCH  11  23
TORSDOF 11
ENDMDL
MODEL 4
REMARK VINA RESULT:      -7.6      1.927      5.165
REMARK  Name = 
REMARK  11 active torsions:
REMARK  status: ('A' for Active; 'I' for Inactive)
REMARK    1  A    between atoms: C_2  and  C_4
REMARK    2  A    between atoms: C_4  and  C_5
REMARK    3  A    between atoms: C_5  and  N_6
REMARK    4  A    between atoms: C_7  and  C_9
REMARK    5  A    between atoms: C_11  and  N_23
REMARK    6  A    between atoms: C_15  and  C_17
REMARK    7  A    between atoms: C_17  and  O_18
REMARK    8  A    between atoms: O_18  and  C_19
REMARK    9  A    between atoms: C_19  and  C_20
REMARK   10  A    between atoms: N_23  and  S_24
REMARK   11  A    between atoms: S_24  and  C_27
REMARK                            x       y       z     vdW  Elec       q    Type
REMARK                         _______ _______ _______ _____ _____    ______ ____
ROOT
ATOM      9  C   UNL     1      -0.751   0.574  24.805  0.00  0.00    +0.155 C 
ATOM     10  C   UNL     1      -0.478   1.259  25.175  0.00  0.00    +0.049 C 
ATOM     11  C   UNL     1      -0.995   1.719  25.624  0.00  0.00    +0.102 C 
ATOM     12  C   UNL     1      -1.786   1.495  25.702  0.00  0.00    +0.041 C 
ATOM     13  C   UNL     1      -2.058   0.810  25.331  0.00  0.00    +0.095 C 
ATOM     14  N   UNL     1      -1.541   0.350  24.882  0.00  0.00    -0.271 N 
ATOM     15  C   UNL     1      -1.813  -0.334  24.511  0.00  0.00    +0.256 C 
ATOM     16  O   UNL     1      -1.296  -0.795  24.062  0.00  0.00    -0.272 OA
ENDROOT
BRANCH   9   7
ATOM      6  N   UNL     1       0.148   0.440  23.702  0.00  0.00    -0.204 NA
ATOM      7  C   UNL     1      -0.233   0.113  24.355  0.00  0.00    +0.260 C 
ATOM      8  O   UNL     1      -0.098  -0.674  24.562  0.00  0.00    -0.272 OA
BRANCH   6   5
ATOM      5  C   UNL     1       0.665  -0.020  23.253  0.00  0.00    +0.125 C 
BRANCH   5   4
ATOM      4  C   UNL     1       1.234   0.342  22.778  0.00  0.00    +0.112 C 
BRANCH   4   2
ATOM      1  N   UNL     1       2.538  -0.173  22.504  0.00  0.00    -0.088 NA
ATOM      2  C   UNL     1       1.737  -0.117  22.314  0.00  0.00    +0.263 C 
ATOM      3  O   UNL     1       1.440  -0.521  21.659  0.00  0.00    -0.272 OA
ENDBRANCH   4   2
ENDBRANCH   5   4
ENDBRANCH   6   5
ENDBRANCH   9   7
BRANCH  15  17
ATOM     17  C   UNL     1      -2.604  -0.559  24.588  0.00  0.00    +0.228 C 
BRANCH  17  18
ATOM     18  O   UNL     1      -2.851  -1.297  24.319  0.00  0.00    -0.333 OA
BRANCH  18  19
ATOM     19  C   UNL     1      -3.591  -1.590  24.536  0.00  0.00    +0.257 C 
BRANCH  19  20
ATOM     20  C   UNL     1      -3.870  -2.293  24.207  0.00  0.00    +0.394 C 
ATOM     21  O   UNL     1      -4.373  -2.272  23.552  0.00  0.00    -0.243 OA
ATOM     22  O   UNL     1      -3.647  -3.018  24.532  0.00  0.00    -0.243 OA
ENDBRANCH  19  20
ENDBRANCH  18  19
ENDBRANCH  17  18
ENDBRANCH  15  17
BRANCH  11  23
ATOM     23  N   UNL     1      -0.722   2.404  25.996  0.00  0.00    -0.079 NA
BRANCH  23  24
ATOM     24  S   UNL     1      -0.939   3.144  25.706  0.00  0.00    +0.082 S 
ATOM     25  O   UNL     1      -0.248   3.169  25.254  0.00  0.00    -0.151 OA
ATOM     26  O   UNL     1      -1.629   3.119  26.157  0.00  0.00    -0.151 OA
BRANCH  24  27
ATOM     27  C   UNL     1      -1.156   3.886  25.415  0.00  0.00    +0.153 A 
ATOM     28  C   UNL     1      -0.695   4.372  24.935  0.00  0.00    +0.027 A 
ATOM     29  C   UNL     1      -1.126   5.058  24.777  0.00  0.00    +0.009 A 
ATOM     30  C   UNL     1      -1.854   4.995  25.160  0.00  0.00    +0.037 A 
ATOM     31  S   UNL     1      -1.873   4.270  25.555  0.00  0.00    -0.067 S 
ENDBRANCH  24  27
ENDBRANCH  23  24
ENDBRANCH  11  23
TORSDOF 11
ENDMDL
MODEL 5
REMARK VINA RESULT:      -7.5      1.985      3.959
REMARK  Name = 
REMARK  11 active torsions:
REMARK  status: ('A' for Active; 'I' for Inactive)
REMARK    1  A    between atoms: C_2  and  C_4
REMARK    2  A    between atoms: C_4  and  C_5
REMARK    3  A    between atoms: C_5  and  N_6
REMARK    4  A    between atoms: C_7  and  C_9
REMARK    5  A    between atoms: C_11  and  N_23
REMARK    6  A    between atoms: C_15  and  C_17
REMARK    7  A    between atoms: C_17  and  O_18
REMARK    8  A    between atoms: O_18  and  C_19
REMARK    9  A    between atoms: C_19  and  C_20
REMARK   10  A    between atoms: N_23  and  S_24
REMARK   11  A    between atoms: S_24  and  C_27
REMARK                            x       y       z     vdW  Elec       q    Type
REMARK                         _______ _______ _______ _____ _____    ______ ____
ROOT
ATOM      9  C   UNL     1      -1.137   0.967  24.943  0.00  0.00    +0.155 C 
ATOM     10  C   UNL     1      -1.588   1.545  25.323  0.00  0.00    +0.049 C 
ATOM     11  C   UNL     1      -1.423   2.344  25.198  0.00  0.00    +0.102 C 
ATOM     12  C   UNL     1      -0.808   2.565  24.693  0.00  0.00    +0.041 C 
ATOM     13  C   UNL     1      -0.358   1.987  24.315  0.00  0.00    +0.095 C 
ATOM     14  N   UNL     1      -0.523   1.188  24.439  0.00  0.00    -0.271 N 
ATOM     15  C   UNL     1      -0.072   0.610  24.060  0.00  0.00    +0.256 C 
ATOM     16  O   UNL     1      -0.237  -0.189  24.185  0.00  0.00    -0.272 OA
ENDROOT
BRANCH   9   7
ATOM      6  N   UNL     1      -1.983  -0.167  24.749  0.00  0.00    -0.204 NA
ATOM      7  C   UNL     1      -1.301   0.168  25.068  0.00  0.00    +0.260 C 
ATOM      8  O   UNL     1      -0.783  -0.295  25.513  0.00  0.00    -0.272 OA
BRANCH   6   5
ATOM      5  C   UNL     1      -2.148  -0.966  24.874  0.00  0.00    +0.125 C 
BRANCH   5   4
ATOM      4  C   UNL     1      -2.888  -1.272  24.675  0.00  0.00    +0.112 C 
BRANCH   4   2
ATOM      1  N   UNL     1      -3.522  -2.349  25.367  0.00  0.00    -0.088 NA
ATOM      2  C   UNL     1      -3.037  -2.078  24.756  0.00  0.00    +0.263 C 
ATOM      3  O   UNL     1      -2.701  -2.615  24.228  0.00  0.00    -0.272 OA
ENDBRANCH   4   2
ENDBRANCH   5   4
ENDBRANCH   6   5
ENDBRANCH   9   7
BRANCH  15  17
ATOM     17  C   UNL     1       0.543   0.831  23.556  0.00  0.00    +0.228 C 
BRANCH  17  18
ATOM     18  O   UNL     1       1.029   0.255  23.222  0.00  0.00    -0.333 OA
BRANCH  18  19
ATOM     19  C   UNL     1       1.738   0.472  22.860  0.00  0.00    +0.257 C 
BRANCH  19  20
ATOM     20  C   UNL     1       2.165  -0.081  22.423  0.00  0.00    +0.394 C 
ATOM     21  O   UNL     1       2.826  -0.448  22.753  0.00  0.00    -0.243 OA
ATOM     22  O   UNL     1       1.930  -0.270  21.653  0.00  0.00    -0.243 OA
ENDBRANCH  19  20
ENDBRANCH  18  19
ENDBRANCH  17  18
ENDBRANCH  15  17
BRANCH  11  23
ATOM     23  N   UNL     1      -1.874   2.922  25.577  0.00  0.00    -0.079 NA
BRANCH  23  24
ATOM     24  S   UNL     1      -2.611   3.134  25.276  0.00  0.00    +0.082 S 
ATOM     25  O   UNL     1      -2.242   3.596  24.699  0.00  0.00    -0.151 OA
ATOM     26  O   UNL     1      -2.979   2.673  25.852  0.00  0.00    -0.151 OA
BRANCH  24  27
ATOM     27  C   UNL     1      -3.350   3.346  24.974  0.00  0.00    +0.153 A 
ATOM     28  C   UNL     1      -3.512   3.556  24.193  0.00  0.00    +0.027 A 
ATOM     29  C   UNL     1      -4.318   3.725  24.137  0.00  0.00    +0.009 A 
ATOM     30  C   UNL     1      -4.653   3.619  24.883  0.00  0.00    +0.037 A 
ATOM     31  S   UNL     1      -4.055   3.385  25.401  0.00  0.00    -0.067 S 
ENDBRANCH  24  27
ENDBRANCH  23  24
ENDBRANCH  11  23
TORSDOF 11
ENDMDL
MODEL 6
REMARK VINA RESULT:      -7.3      2.481      3.587
REMARK  Name = 
REMARK  11 active torsions:
REMARK  status: ('A' for Active; 'I' for Inactive)
REMARK    1  A    between atoms: C_2  and  C_4
REMARK    2  A    between atoms: C_4  and  C_5
REMARK    3  A    between atoms: C_5  and  N_6
REMARK    4  A    between atoms: C_7  and  C_9
REMARK    5  A    between atoms: C_11  and  N_23
REMARK    6  A    between atoms: C_15  and  C_17
REMARK    7  A    between atoms: C_17  and  O_18
REMARK    8  A    between atoms: O_18  and  C_19
REMARK    9  A    between atoms: C_19  and  C_20
REMARK   10  A    between atoms: N_23  and  S_24
REMARK   11  A    between atoms: S_24  and  C_27
REMARK                            x       y       z     vdW  Elec       q    Type
REMARK                         _______ _______ _______ _____ _____    ______ ____
ROOT
ATOM      9  C   UNL     1      -2.653   1.060  24.919  0.00  0.00    +0.155 C 
ATOM     10  C   UNL     1      -2.601   0.284  25.196  0.00  0.00    +0.049 C 
ATOM     11  C   UNL     1      -1.878  -0.009  25.465  0.00  0.00    +0.102 C 
ATOM     12  C   UNL     1      -1.208   0.473  25.457  0.00  0.00    +0.041 C 
ATOM     13  C   UNL     1      -1.261   1.248  25.180  0.00  0.00    +0.095 C 
ATOM     14  N   UNL     1      -1.984   1.541  24.911  0.00  0.00    -0.271 N 
ATOM     15  C   UNL     1      -2.037   2.316  24.634  0.00  0.00    +0.256 C 
ATOM     16  O   UNL     1      -2.760   2.610  24.365  0.00  0.00    -0.272 OA
ENDROOT
BRANCH   9   7
ATOM      6  N   UNL     1      -3.992   1.483  25.182  0.00  0.00    -0.204 NA
ATOM      7  C   UNL     1      -3.376   1.354  24.650  0.00  0.00    +0.260 C 
ATOM      8  O   UNL     1      -3.482   1.518  23.848  0.00  0.00    -0.272 OA
BRANCH   6   5
ATOM      5  C   UNL     1      -4.715   1.776  24.913  0.00  0.00    +0.125 C 
BRANCH   5   4
ATOM      4  C   UNL     1      -5.390   1.705  25.382  0.00  0.00    +0.112 C 
BRANCH   4   2
ATOM      1  N   UNL     1      -6.063   2.950  25.579  0.00  0.00    -0.088 NA
ATOM      2  C   UNL     1      -6.039   2.194  25.248  0.00  0.00    +0.263 C 
ATOM      3  O   UNL     1      -6.666   1.929  24.782  0.00  0.00    -0.272 OA
ENDBRANCH   4   2
ENDBRANCH   5   4
ENDBRANCH   6   5
ENDBRANCH   9   7
BRANCH  15  17
ATOM     17  C   UNL     1      -1.367   2.799  24.626  0.00  0.00    +0.228 C 
BRANCH  17  18
ATOM     18  O   UNL     1      -1.449   3.619  24.627  0.00  0.00    -0.333 OA
BRANCH  18  19
ATOM     19  C   UNL     1      -0.870   4.092  24.976  0.00  0.00    +0.257 C 
BRANCH  19  20
ATOM     20  C   UNL     1      -0.929   4.913  24.937  0.00  0.00    +0.394 C 
ATOM     21  O   UNL     1      -1.522   5.306  25.354  0.00  0.00    -0.243 OA
ATOM     22  O   UNL     1      -0.393   5.343  24.478  0.00  0.00    -0.243 OA
ENDBRANCH  19  20
ENDBRANCH  18  19
ENDBRANCH  17  18
ENDBRANCH  15  17
BRANCH  11  23
ATOM     23  N   UNL     1      -1.825  -0.785  25.742  0.00  0.00    -0.079 NA
BRANCH  23  24
ATOM     24  S   UNL     1      -2.182  -1.398  25.323  0.00  0.00    +0.082 S 
ATOM     25  O   UNL     1      -2.810  -1.399  25.859  0.00  0.00    -0.151 OA
ATOM     26  O   UNL     1      -1.554  -1.397  24.787  0.00  0.00    -0.151 OA
BRANCH  24  27
ATOM     27  C   UNL     1      -2.540  -2.012  24.902  0.00  0.00    +0.153 A 
ATOM     28  C   UNL     1      -3.338  -2.217  24.930  0.00  0.00    +0.027 A 
ATOM     29  C   UNL     1      -3.453  -2.860  24.426  0.00  0.00    +0.009 A 
ATOM     30  C   UNL     1      -2.726  -3.052  24.087  0.00  0.00    +0.037 A 
ATOM     31  S   UNL     1      -2.161  -2.528  24.382  0.00  0.00    -0.067 S 
ENDBRANCH  24  27
ENDBRANCH  23  24
ENDBRANCH  11  23
TORSDOF 11
ENDMDL
