MODEL 1
REMARK VINA RESULT:     -13.0      0.000      0.000
REMARK  Name = 
REMARK  3 active torsions:
REMARK  status: ('A' for Active; 'I' for Inactive)
REMARK    1  A    between atoms: C_6  and  C_7
REMARK    2  A    between atoms: C_7  and  N_8
REMARK    3  A    between atoms: C_11  and  C_13
REMARK                            x       y       z     vdW  Elec       q    Type
REMARK                         _______ _______ _______ _____ _____    ______ ____
ROOT
ATOM      8  N   UNL     1      -4.344   2.143  24.592  0.00  0.00    -0.269 NA
ATOM      9  C   UNL     1      -5.013   1.966  25.041  0.00  0.00    +0.073 C 
ATOM     10  C   UNL     1      -5.045   1.147  25.138  0.00  0.00    +0.025 C 
ATOM     11  C   UNL     1      -4.395   0.818  24.750  0.00  0.00    +0.064 C 
ATOM     12  C   UNL     1      -3.962   1.434  24.413  0.00  0.00    +0.079 C 
ENDROOT
BRANCH  11  13
ATOM     13  C   UNL     1      -4.210   0.015  24.707  0.00  0.00    +0.089 A 
ATOM     14  N   UNL     1      -4.418  -0.498  24.095  0.00  0.00    -0.243 NA
ATOM     15  C   UNL     1      -4.122  -1.245  24.278  0.00  0.00    +0.087 A 
ATOM     16  C   UNL     1      -3.732  -1.194  25.003  0.00  0.00    +0.048 A 
ATOM     17  S   UNL     1      -3.786  -0.416  25.268  0.00  0.00    -0.071 S 
ATOM     18  C   UNL     1      -3.377  -1.865  25.328  0.00  0.00    +0.008 A 
ATOM     19  C   UNL     1      -3.412  -2.585  24.928  0.00  0.00    +0.001 A 
ATOM     20  C   UNL     1      -3.803  -2.636  24.203  0.00  0.00    +0.002 A 
ATOM     21  C   UNL     1      -4.158  -1.966  23.878  0.00  0.00    +0.020 A 
ENDBRANCH  11  13
BRANCH   8   7
ATOM      7  C   UNL     1      -4.099   2.897  24.364  0.00  0.00    +0.099 C 
BRANCH   7   6
ATOM      1  F   UNL     1      -1.645   4.398  25.982  0.00  0.00    -0.202 F 
ATOM      2  C   UNL     1      -2.259   4.022  25.577  0.00  0.00    +0.167 A 
ATOM      3  C   UNL     1      -3.026   4.044  25.879  0.00  0.00    +0.167 A 
ATOM      4  F   UNL     1      -3.180   4.441  26.586  0.00  0.00    -0.202 F 
ATOM      5  C   UNL     1      -3.640   3.669  25.475  0.00  0.00    +0.029 A 
ATOM      6  C   UNL     1      -3.485   3.272  24.768  0.00  0.00    -0.004 A 
ATOM     22  C   UNL     1      -2.718   3.250  24.466  0.00  0.00    -0.000 A 
ATOM     23  C   UNL     1      -2.105   3.626  24.870  0.00  0.00    +0.032 A 
ENDBRANCH   7   6
ENDBRANCH   8   7
TORSDOF 3
ENDMDL
MODEL 2
REMARK VINA RESULT:     -12.8      2.529      5.137
REMARK  Name = 
REMARK  3 active torsions:
REMARK  status: ('A' for Active; 'I' for Inactive)
REMARK    1  A    between atoms: C_6  and  C_7
REMARK    2  A    between atoms: C_7  and  N_8
REMARK    3  A    between atoms: C_11  and  C_13
REMARK                            x       y       z     vdW  Elec       q    Type
REMARK                         _______ _______ _______ _____ _____    ______ ____
ROOT
ATOM      8  N   UNL     1      -3.802   0.740  24.394  0.00  0.00    -0.269 NA
ATOM      9  C   UNL     1      -3.503   0.779  23.625  0.00  0.00    +0.073 C 
ATOM     10  C   UNL     1      -3.008   1.438  23.578  0.00  0.00    +0.025 C 
ATOM     11  C   UNL     1      -3.002   1.806  24.316  0.00  0.00    +0.064 C 
ATOM     12  C   UNL     1      -3.492   1.374  24.820  0.00  0.00    +0.079 C 
ENDROOT
BRANCH  11  13
ATOM     13  C   UNL     1      -2.579   2.486  24.516  0.00  0.00    +0.089 A 
ATOM     14  N   UNL     1      -2.898   3.185  24.814  0.00  0.00    -0.243 NA
ATOM     15  C   UNL     1      -2.279   3.717  24.934  0.00  0.00    +0.087 A 
ATOM     16  C   UNL     1      -1.577   3.346  24.709  0.00  0.00    +0.048 A 
ATOM     17  S   UNL     1      -1.762   2.585  24.451  0.00  0.00    -0.071 S 
ATOM     18  C   UNL     1      -0.860   3.750  24.770  0.00  0.00    +0.008 A 
ATOM     19  C   UNL     1      -0.845   4.523  25.054  0.00  0.00    +0.001 A 
ATOM     20  C   UNL     1      -1.546   4.894  25.279  0.00  0.00    +0.002 A 
ATOM     21  C   UNL     1      -2.264   4.492  25.219  0.00  0.00    +0.020 A 
ENDBRANCH  11  13
BRANCH   8   7
ATOM      7  C   UNL     1      -4.319   0.167  24.684  0.00  0.00    +0.099 C 
BRANCH   7   6
ATOM      1  F   UNL     1      -3.285  -2.941  25.085  0.00  0.00    -0.202 F 
ATOM      2  C   UNL     1      -3.544  -2.164  24.985  0.00  0.00    +0.167 A 
ATOM      3  C   UNL     1      -3.936  -1.946  24.293  0.00  0.00    +0.167 A 
ATOM      4  F   UNL     1      -4.070  -2.505  23.701  0.00  0.00    -0.202 F 
ATOM      5  C   UNL     1      -4.195  -1.169  24.192  0.00  0.00    +0.029 A 
ATOM      6  C   UNL     1      -4.060  -0.610  24.785  0.00  0.00    -0.004 A 
ATOM     22  C   UNL     1      -3.668  -0.828  25.477  0.00  0.00    -0.000 A 
ATOM     23  C   UNL     1      -3.410  -1.605  25.577  0.00  0.00    +0.032 A 
ENDBRANCH   7   6
ENDBRANCH   8   7
TORSDOF 3
ENDMDL
MODEL 3
REMARK VINA RESULT:     -12.1      1.719      2.376
REMARK  Name = 
REMARK  3 active torsions:
REMARK  status: ('A' for Active; 'I' for Inactive)
REMARK    1  A    between atoms: C_6  and  C_7
REMARK    2  A    between atoms: C_7  and  N_8
REMARK    3  A    between atoms: C_11  and  C_13
REMARK                            x       y       z     vdW  Elec       q    Type
REMARK                         _______ _______ _______ _____ _____    ______ ____
ROOT
ATOM      8  N   UNL     1      -1.061   1.858  25.299  0.00  0.00    -0.269 NA
ATOM      9  C   UNL     1      -0.650   1.633  24.620  0.00  0.00    +0.073 C 
ATOM     10  C   UNL     1      -1.033   0.977  24.296  0.00  0.00    +0.025 C 
ATOM     11  C   UNL     1      -1.680   0.798  24.775  0.00  0.00    +0.064 C 
ATOM     12  C   UNL     1      -1.698   1.342  25.394  0.00  0.00    +0.079 C 
ENDROOT
BRANCH  11  13
ATOM     13  C   UNL     1      -2.216   0.182  24.655  0.00  0.00    +0.089 A 
ATOM     14  N   UNL     1      -2.956   0.245  24.296  0.00  0.00    -0.243 NA
ATOM     15  C   UNL     1      -3.302  -0.503  24.292  0.00  0.00    +0.087 A 
ATOM     16  C   UNL     1      -2.777  -1.029  24.648  0.00  0.00    +0.048 A 
ATOM     17  S   UNL     1      -2.105  -0.607  24.873  0.00  0.00    -0.071 S 
ATOM     18  C   UNL     1      -2.978  -1.826  24.722  0.00  0.00    +0.008 A 
ATOM     19  C   UNL     1      -3.704  -2.096  24.440  0.00  0.00    +0.001 A 
ATOM     20  C   UNL     1      -4.230  -1.570  24.084  0.00  0.00    +0.002 A 
ATOM     21  C   UNL     1      -4.029  -0.773  24.009  0.00  0.00    +0.020 A 
ENDBRANCH  11  13
BRANCH   8   7
ATOM      7  C   UNL     1      -0.870   2.489  25.795  0.00  0.00    +0.099 C 
BRANCH   7   6
ATOM      1  F   UNL     1      -1.878   5.541  25.050  0.00  0.00    -0.202 F 
ATOM      2  C   UNL     1      -1.626   4.778  25.236  0.00  0.00    +0.167 A 
ATOM      3  C   UNL     1      -0.880   4.521  24.998  0.00  0.00    +0.167 A 
ATOM      4  F   UNL     1      -0.385   5.026  24.573  0.00  0.00    -0.202 F 
ATOM      5  C   UNL     1      -0.627   3.757  25.184  0.00  0.00    +0.029 A 
ATOM      6  C   UNL     1      -1.123   3.252  25.609  0.00  0.00    -0.004 A 
ATOM     22  C   UNL     1      -1.869   3.509  25.847  0.00  0.00    -0.000 A 
ATOM     23  C   UNL     1      -2.121   4.272  25.661  0.00  0.00    +0.032 A 
ENDBRANCH   7   6
ENDBRANCH   8   7
TORSDOF 3
ENDMDL
