MODEL 1
REMARK VINA RESULT:      -9.7      0.000      0.000
REMARK  Name = 
REMARK  5 active torsions:
REMARK  status: ('A' for Active; 'I' for Inactive)
REMARK    1  A    between atoms: C_1  and  N_2
REMARK    2  A    between atoms: C_1  and  C_22
REMARK    3  A    between atoms: N_2  and  C_3
REMARK    4  A    between atoms: C_7  and  N_11
REMARK    5  A    between atoms: C_13  and  C_16
REMARK                            x       y       z     vdW  Elec       q    Type
REMARK                         _______ _______ _______ _____ _____    ______ ____
ROOT
ATOM      3  C   UNL     1      -2.353  -0.207  24.944  0.00  0.00    +0.132 C 
ATOM      4  C   UNL     1      -2.819   0.328  25.365  0.00  0.00    +0.162 C 
ATOM      5  O   UNL     1      -2.396   1.031  25.440  0.00  0.00    -0.350 OA
ATOM      6  C   UNL     1      -1.668   0.932  25.066  0.00  0.00    +0.168 C 
ATOM      7  C   UNL     1      -0.956   1.305  24.881  0.00  0.00    +0.166 C 
ATOM      8  C   UNL     1      -0.489   0.771  24.460  0.00  0.00    +0.169 C 
ATOM      9  O   UNL     1      -0.913   0.067  24.385  0.00  0.00    -0.350 OA
ATOM     10  C   UNL     1      -1.641   0.167  24.760  0.00  0.00    +0.163 C 
ENDROOT
BRANCH   7  11
ATOM     11  N   UNL     1      -0.747   2.078  25.081  0.00  0.00    -0.227 N 
ATOM     12  C   UNL     1      -1.153   2.763  24.863  0.00  0.00    +0.119 A 
ATOM     13  C   UNL     1      -0.752   3.409  25.182  0.00  0.00    +0.141 A 
ATOM     14  N   UNL     1      -0.099   3.125  25.597  0.00  0.00    -0.127 NA
ATOM     15  N   UNL     1      -0.096   2.302  25.535  0.00  0.00    -0.064 NA
BRANCH  13  16
ATOM     16  C   UNL     1      -0.968   4.202  25.100  0.00  0.00    +0.102 A 
ATOM     17  N   UNL     1      -1.702   4.459  25.373  0.00  0.00    -0.242 NA
ATOM     18  C   UNL     1      -1.917   5.252  25.291  0.00  0.00    +0.099 A 
ATOM     19  C   UNL     1      -1.398   5.786  24.936  0.00  0.00    +0.021 A 
ATOM     20  C   UNL     1      -0.664   5.527  24.663  0.00  0.00    +0.003 A 
ATOM     21  C   UNL     1      -0.448   4.735  24.745  0.00  0.00    +0.021 A 
ENDBRANCH  13  16
ENDBRANCH   7  11
BRANCH   3   2
ATOM      2  N   UNL     1      -2.562  -0.980  24.744  0.00  0.00    -0.210 NA
BRANCH   2   1
ATOM      1  C   UNL     1      -3.324  -1.254  24.899  0.00  0.00    +0.115 C 
BRANCH   1  22
ATOM     22  C   UNL     1      -3.597  -1.942  24.532  0.00  0.00    -0.005 A 
ATOM     23  C   UNL     1      -3.303  -2.677  24.764  0.00  0.00    -0.003 A 
ATOM     24  C   UNL     1      -3.576  -3.364  24.398  0.00  0.00    -0.000 A 
ATOM     25  C   UNL     1      -4.143  -3.316  23.800  0.00  0.00    -0.000 A 
ATOM     26  C   UNL     1      -4.437  -2.581  23.569  0.00  0.00    -0.000 A 
ATOM     27  C   UNL     1      -4.164  -1.893  23.935  0.00  0.00    -0.003 A 
ENDBRANCH   1  22
ENDBRANCH   2   1
ENDBRANCH   3   2
TORSDOF 5
ENDMDL
MODEL 2
REMARK VINA RESULT:      -9.5      1.266      2.045
REMARK  Name = 
REMARK  5 active torsions:
REMARK  status: ('A' for Active; 'I' for Inactive)
REMARK    1  A    between atoms: C_1  and  N_2
REMARK    2  A    between atoms: C_1  and  C_22
REMARK    3  A    between atoms: N_2  and  C_3
REMARK    4  A    between atoms: C_7  and  N_11
REMARK    5  A    between atoms: C_13  and  C_16
REMARK                            x       y       z     vdW  Elec       q    Type
REMARK                         _______ _______ _______ _____ _____    ______ ____
ROOT
ATOM      3  C   UNL     1      -3.601   0.291  24.809  0.00  0.00    +0.132 C 
ATOM      4  C   UNL     1      -2.812   0.382  25.030  0.00  0.00    +0.162 C 
ATOM      5  O   UNL     1      -2.681   1.182  25.181  0.00  0.00    -0.350 OA
ATOM      6  C   UNL     1      -3.388   1.586  25.054  0.00  0.00    +0.168 C 
ATOM      7  C   UNL     1      -3.745   2.329  25.069  0.00  0.00    +0.166 C 
ATOM      8  C   UNL     1      -4.534   2.238  24.848  0.00  0.00    +0.169 C 
ATOM      9  O   UNL     1      -4.666   1.438  24.697  0.00  0.00    -0.350 OA
ATOM     10  C   UNL     1      -3.957   1.035  24.824  0.00  0.00    +0.163 C 
ENDROOT
BRANCH   7  11
ATOM     11  N   UNL     1      -3.376   3.040  25.269  0.00  0.00    -0.227 N 
ATOM     12  C   UNL     1      -2.685   3.340  24.933  0.00  0.00    +0.119 A 
ATOM     13  C   UNL     1      -2.516   4.060  25.297  0.00  0.00    +0.141 A 
ATOM     14  N   UNL     1      -3.102   4.205  25.858  0.00  0.00    -0.127 NA
ATOM     15  N   UNL     1      -3.634   3.575  25.841  0.00  0.00    -0.064 NA
BRANCH  13  16
ATOM     16  C   UNL     1      -1.873   4.549  25.130  0.00  0.00    +0.102 A 
ATOM     17  N   UNL     1      -1.130   4.219  24.987  0.00  0.00    -0.242 NA
ATOM     18  C   UNL     1      -0.487   4.709  24.819  0.00  0.00    +0.099 A 
ATOM     19  C   UNL     1      -0.587   5.527  24.794  0.00  0.00    +0.021 A 
ATOM     20  C   UNL     1      -1.330   5.856  24.937  0.00  0.00    +0.003 A 
ATOM     21  C   UNL     1      -1.972   5.368  25.104  0.00  0.00    +0.021 A 
ENDBRANCH  13  16
ENDBRANCH   7  11
BRANCH   3   2
ATOM      2  N   UNL     1      -3.970  -0.419  24.608  0.00  0.00    -0.210 NA
BRANCH   2   1
ATOM      1  C   UNL     1      -3.782  -1.111  25.016  0.00  0.00    +0.115 C 
BRANCH   1  22
ATOM     22  C   UNL     1      -3.832  -1.842  24.635  0.00  0.00    -0.005 A 
ATOM     23  C   UNL     1      -4.330  -1.934  23.984  0.00  0.00    -0.003 A 
ATOM     24  C   UNL     1      -4.379  -2.664  23.603  0.00  0.00    -0.000 A 
ATOM     25  C   UNL     1      -3.932  -3.302  23.874  0.00  0.00    -0.000 A 
ATOM     26  C   UNL     1      -3.434  -3.210  24.526  0.00  0.00    -0.000 A 
ATOM     27  C   UNL     1      -3.385  -2.479  24.907  0.00  0.00    -0.003 A 
ENDBRANCH   1  22
ENDBRANCH   2   1
ENDBRANCH   3   2
TORSDOF 5
ENDMDL
MODEL 3
REMARK VINA RESULT:      -9.4      1.677      6.215
REMARK  Name = 
REMARK  5 active torsions:
REMARK  status: ('A' for Active; 'I' for Inactive)
REMARK    1  A    between atoms: C_1  and  N_2
REMARK    2  A    between atoms: C_1  and  C_22
REMARK    3  A    between atoms: N_2  and  C_3
REMARK    4  A    between atoms: C_7  and  N_11
REMARK    5  A    between atoms: C_13  and  C_16
REMARK                            x       y       z     vdW  Elec       q    Type
REMARK                         _______ _______ _______ _____ _____    ______ ____
ROOT
ATOM      3  C   UNL     1      -3.188   3.008  24.906  0.00  0.00    +0.132 C 
ATOM      4  C   UNL     1      -3.564   2.725  25.583  0.00  0.00    +0.162 C 
ATOM      5  O   UNL     1      -3.806   1.950  25.434  0.00  0.00    -0.350 OA
ATOM      6  C   UNL     1      -3.579   1.755  24.667  0.00  0.00    +0.168 C 
ATOM      7  C   UNL     1      -3.588   1.156  24.099  0.00  0.00    +0.166 C 
ATOM      8  C   UNL     1      -3.211   1.439  23.422  0.00  0.00    +0.169 C 
ATOM      9  O   UNL     1      -2.970   2.214  23.571  0.00  0.00    -0.350 OA
ATOM     10  C   UNL     1      -3.197   2.409  24.340  0.00  0.00    +0.163 C 
ENDROOT
BRANCH   7  11
ATOM     11  N   UNL     1      -3.915   0.404  24.193  0.00  0.00    -0.227 N 
ATOM     12  C   UNL     1      -3.496  -0.302  24.274  0.00  0.00    +0.119 A 
ATOM     13  C   UNL     1      -4.041  -0.915  24.353  0.00  0.00    +0.141 A 
ATOM     14  N   UNL     1      -4.798  -0.589  24.322  0.00  0.00    -0.127 NA
ATOM     15  N   UNL     1      -4.720   0.226  24.223  0.00  0.00    -0.064 NA
BRANCH  13  16
ATOM     16  C   UNL     1      -3.861  -1.715  24.448  0.00  0.00    +0.102 A 
ATOM     17  N   UNL     1      -3.452  -1.969  25.117  0.00  0.00    -0.242 NA
ATOM     18  C   UNL     1      -3.272  -2.769  25.212  0.00  0.00    +0.099 A 
ATOM     19  C   UNL     1      -3.502  -3.314  24.637  0.00  0.00    +0.021 A 
ATOM     20  C   UNL     1      -3.911  -3.059  23.967  0.00  0.00    +0.003 A 
ATOM     21  C   UNL     1      -4.091  -2.260  23.872  0.00  0.00    +0.021 A 
ENDBRANCH  13  16
ENDBRANCH   7  11
BRANCH   3   2
ATOM      2  N   UNL     1      -2.860   3.760  24.812  0.00  0.00    -0.210 NA
BRANCH   2   1
ATOM      1  C   UNL     1      -2.363   4.068  25.393  0.00  0.00    +0.115 C 
BRANCH   1  22
ATOM     22  C   UNL     1      -1.780   4.616  25.189  0.00  0.00    -0.005 A 
ATOM     23  C   UNL     1      -1.007   4.364  25.051  0.00  0.00    -0.003 A 
ATOM     24  C   UNL     1      -0.425   4.911  24.847  0.00  0.00    -0.000 A 
ATOM     25  C   UNL     1      -0.616   5.712  24.781  0.00  0.00    -0.000 A 
ATOM     26  C   UNL     1      -1.389   5.964  24.920  0.00  0.00    -0.000 A 
ATOM     27  C   UNL     1      -1.972   5.416  25.124  0.00  0.00    -0.003 A 
ENDBRANCH   1  22
ENDBRANCH   2   1
ENDBRANCH   3   2
TORSDOF 5
ENDMDL
MODEL 4
REMARK VINA RESULT:      -9.1      1.045      5.966
REMARK  Name = 
REMARK  5 active torsions:
REMARK  status: ('A' for Active; 'I' for Inactive)
REMARK    1  A    between atoms: C_1  and  N_2
REMARK    2  A    between atoms: C_1  and  C_22
REMARK    3  A    between atoms: N_2  and  C_3
REMARK    4  A    between atoms: C_7  and  N_11
REMARK    5  A    between atoms: C_13  and  C_16
REMARK                            x       y       z     vdW  Elec       q    Type
REMARK                         _______ _______ _______ _____ _____    ______ ____
ROOT
ATOM      3  C   UNL     1      -0.679   2.214  25.235  0.00  0.00    +0.132 C 
ATOM      4  C   UNL     1      -0.988   1.877  25.921  0.00  0.00    +0.162 C 
ATOM      5  O   UNL     1      -1.101   1.072  25.780  0.00  0.00    -0.350 OA
ATOM      6  C   UNL     1      -0.862   0.911  25.008  0.00  0.00    +0.168 C 
ATOM      7  C   UNL     1      -0.783   0.316  24.442  0.00  0.00    +0.166 C 
ATOM      8  C   UNL     1      -0.474   0.653  23.756  0.00  0.00    +0.169 C 
ATOM      9  O   UNL     1      -0.361   1.458  23.897  0.00  0.00    -0.350 OA
ATOM     10  C   UNL     1      -0.600   1.618  24.671  0.00  0.00    +0.163 C 
ENDROOT
BRANCH   7  11
ATOM     11  N   UNL     1      -0.980  -0.479  24.546  0.00  0.00    -0.227 N 
ATOM     12  C   UNL     1      -1.737  -0.804  24.486  0.00  0.00    +0.119 A 
ATOM     13  C   UNL     1      -1.679  -1.613  24.630  0.00  0.00    +0.141 A 
ATOM     14  N   UNL     1      -0.888  -1.790  24.779  0.00  0.00    -0.127 NA
ATOM     15  N   UNL     1      -0.456  -1.089  24.727  0.00  0.00    -0.064 NA
BRANCH  13  16
ATOM     16  C   UNL     1      -2.304  -2.153  24.626  0.00  0.00    +0.102 A 
ATOM     17  N   UNL     1      -2.288  -2.797  24.111  0.00  0.00    -0.242 NA
ATOM     18  C   UNL     1      -2.913  -3.336  24.107  0.00  0.00    +0.099 A 
ATOM     19  C   UNL     1      -3.553  -3.230  24.617  0.00  0.00    +0.021 A 
ATOM     20  C   UNL     1      -3.568  -2.585  25.131  0.00  0.00    +0.003 A 
ATOM     21  C   UNL     1      -2.944  -2.047  25.136  0.00  0.00    +0.021 A 
ENDBRANCH  13  16
ENDBRANCH   7  11
BRANCH   3   2
ATOM      2  N   UNL     1      -0.482   3.009  25.131  0.00  0.00    -0.210 NA
BRANCH   2   1
ATOM      1  C   UNL     1      -0.817   3.583  25.619  0.00  0.00    +0.115 C 
BRANCH   1  22
ATOM     22  C   UNL     1      -0.994   4.330  25.315  0.00  0.00    -0.005 A 
ATOM     23  C   UNL     1      -1.733   4.669  25.458  0.00  0.00    -0.003 A 
ATOM     24  C   UNL     1      -1.910   5.414  25.155  0.00  0.00    -0.000 A 
ATOM     25  C   UNL     1      -1.349   5.822  24.707  0.00  0.00    -0.000 A 
ATOM     26  C   UNL     1      -0.611   5.483  24.564  0.00  0.00    -0.000 A 
ATOM     27  C   UNL     1      -0.433   4.737  24.868  0.00  0.00    -0.003 A 
ENDBRANCH   1  22
ENDBRANCH   2   1
ENDBRANCH   3   2
TORSDOF 5
ENDMDL
MODEL 5
REMARK VINA RESULT:      -9.0      3.071      4.505
REMARK  Name = 
REMARK  5 active torsions:
REMARK  status: ('A' for Active; 'I' for Inactive)
REMARK    1  A    between atoms: C_1  and  N_2
REMARK    2  A    between atoms: C_1  and  C_22
REMARK    3  A    between atoms: N_2  and  C_3
REMARK    4  A    between atoms: C_7  and  N_11
REMARK    5  A    between atoms: C_13  and  C_16
REMARK                            x       y       z     vdW  Elec       q    Type
REMARK                         _______ _______ _______ _____ _____    ______ ____
ROOT
ATOM      3  C   UNL     1      -2.576   1.718  24.237  0.00  0.00    +0.132 C 
ATOM      4  C   UNL     1      -2.511   1.606  23.422  0.00  0.00    +0.162 C 
ATOM      5  O   UNL     1      -1.811   1.195  23.277  0.00  0.00    -0.350 OA
ATOM      6  C   UNL     1      -1.443   1.054  24.001  0.00  0.00    +0.168 C 
ATOM      7  C   UNL     1      -0.783   0.713  24.359  0.00  0.00    +0.166 C 
ATOM      8  C   UNL     1      -0.848   0.825  25.174  0.00  0.00    +0.169 C 
ATOM      9  O   UNL     1      -1.548   1.236  25.319  0.00  0.00    -0.350 OA
ATOM     10  C   UNL     1      -1.916   1.377  24.594  0.00  0.00    +0.163 C 
ENDROOT
BRANCH   7  11
ATOM     11  N   UNL     1      -0.165   0.327  23.971  0.00  0.00    -0.227 N 
ATOM     12  C   UNL     1       0.508   0.684  23.654  0.00  0.00    +0.119 A 
ATOM     13  C   UNL     1       0.976   0.094  23.319  0.00  0.00    +0.141 A 
ATOM     14  N   UNL     1       0.592  -0.628  23.427  0.00  0.00    -0.127 NA
ATOM     15  N   UNL     1      -0.113  -0.484  23.830  0.00  0.00    -0.064 NA
BRANCH  13  16
ATOM     16  C   UNL     1       1.701   0.206  22.940  0.00  0.00    +0.102 A 
ATOM     17  N   UNL     1       2.281   0.675  23.293  0.00  0.00    -0.242 NA
ATOM     18  C   UNL     1       3.006   0.787  22.915  0.00  0.00    +0.099 A 
ATOM     19  C   UNL     1       3.150   0.431  22.185  0.00  0.00    +0.021 A 
ATOM     20  C   UNL     1       2.569  -0.038  21.833  0.00  0.00    +0.003 A 
ATOM     21  C   UNL     1       1.845  -0.150  22.210  0.00  0.00    +0.021 A 
ENDBRANCH  13  16
ENDBRANCH   7  11
BRANCH   3   2
ATOM      2  N   UNL     1      -3.193   2.104  24.625  0.00  0.00    -0.210 NA
BRANCH   2   1
ATOM      1  C   UNL     1      -3.936   2.155  24.271  0.00  0.00    +0.115 C 
BRANCH   1  22
ATOM     22  C   UNL     1      -4.595   2.365  24.722  0.00  0.00    -0.005 A 
ATOM     23  C   UNL     1      -4.630   3.107  25.080  0.00  0.00    -0.003 A 
ATOM     24  C   UNL     1      -5.288   3.316  25.530  0.00  0.00    -0.000 A 
ATOM     25  C   UNL     1      -5.912   2.784  25.622  0.00  0.00    -0.000 A 
ATOM     26  C   UNL     1      -5.877   2.042  25.264  0.00  0.00    -0.000 A 
ATOM     27  C   UNL     1      -5.218   1.832  24.813  0.00  0.00    -0.003 A 
ENDBRANCH   1  22
ENDBRANCH   2   1
ENDBRANCH   3   2
TORSDOF 5
ENDMDL
MODEL 6
REMARK VINA RESULT:      -8.7      2.943      4.584
REMARK  Name = 
REMARK  5 active torsions:
REMARK  status: ('A' for Active; 'I' for Inactive)
REMARK    1  A    between atoms: C_1  and  N_2
REMARK    2  A    between atoms: C_1  and  C_22
REMARK    3  A    between atoms: N_2  and  C_3
REMARK    4  A    between atoms: C_7  and  N_11
REMARK    5  A    between atoms: C_13  and  C_16
REMARK                            x       y       z     vdW  Elec       q    Type
REMARK                         _______ _______ _______ _____ _____    ______ ____
ROOT
ATOM      3  C   UNL     1      -1.911   1.341  24.056  0.00  0.00    +0.132 C 
ATOM      4  C   UNL     1      -1.678   1.773  23.394  0.00  0.00    +0.162 C 
ATOM      5  O   UNL     1      -0.962   1.464  23.128  0.00  0.00    -0.350 OA
ATOM      6  C   UNL     1      -0.752   0.841  23.625  0.00  0.00    +0.168 C 
ATOM      7  C   UNL     1      -0.180   0.264  23.769  0.00  0.00    +0.166 C 
ATOM      8  C   UNL     1      -0.413  -0.168  24.432  0.00  0.00    +0.169 C 
ATOM      9  O   UNL     1      -1.129   0.142  24.698  0.00  0.00    -0.350 OA
ATOM     10  C   UNL     1      -1.339   0.765  24.199  0.00  0.00    +0.163 C 
ENDROOT
BRANCH   7  11
ATOM     11  N   UNL     1       0.506   0.141  23.327  0.00  0.00    -0.227 N 
ATOM     12  C   UNL     1       1.270   0.370  23.541  0.00  0.00    +0.119 A 
ATOM     13  C   UNL     1       1.784   0.138  22.940  0.00  0.00    +0.141 A 
ATOM     14  N   UNL     1       1.339  -0.233  22.353  0.00  0.00    -0.127 NA
ATOM     15  N   UNL     1       0.549  -0.231  22.592  0.00  0.00    -0.064 NA
BRANCH  13  16
ATOM     16  C   UNL     1       2.600   0.257  22.927  0.00  0.00    +0.102 A 
ATOM     17  N   UNL     1       3.111  -0.373  23.076  0.00  0.00    -0.242 NA
ATOM     18  C   UNL     1       3.928  -0.254  23.064  0.00  0.00    +0.099 A 
ATOM     19  C   UNL     1       4.233   0.495  22.901  0.00  0.00    +0.021 A 
ATOM     20  C   UNL     1       3.721   1.125  22.752  0.00  0.00    +0.003 A 
ATOM     21  C   UNL     1       2.906   1.006  22.764  0.00  0.00    +0.021 A 
ENDBRANCH  13  16
ENDBRANCH   7  11
BRANCH   3   2
ATOM      2  N   UNL     1      -2.597   1.464  24.499  0.00  0.00    -0.210 NA
BRANCH   2   1
ATOM      1  C   UNL     1      -3.197   1.948  24.204  0.00  0.00    +0.115 C 
BRANCH   1  22
ATOM     22  C   UNL     1      -3.904   2.030  24.623  0.00  0.00    -0.005 A 
ATOM     23  C   UNL     1      -4.078   2.742  25.002  0.00  0.00    -0.003 A 
ATOM     24  C   UNL     1      -4.784   2.824  25.420  0.00  0.00    -0.000 A 
ATOM     25  C   UNL     1      -5.316   2.195  25.459  0.00  0.00    -0.000 A 
ATOM     26  C   UNL     1      -5.142   1.483  25.080  0.00  0.00    -0.000 A 
ATOM     27  C   UNL     1      -4.436   1.401  24.661  0.00  0.00    -0.003 A 
ENDBRANCH   1  22
ENDBRANCH   2   1
ENDBRANCH   3   2
TORSDOF 5
ENDMDL
MODEL 7
REMARK VINA RESULT:      -8.6      3.118      4.444
REMARK  Name = 
REMARK  5 active torsions:
REMARK  status: ('A' for Active; 'I' for Inactive)
REMARK    1  A    between atoms: C_1  and  N_2
REMARK    2  A    between atoms: C_1  and  C_22
REMARK    3  A    between atoms: N_2  and  C_3
REMARK    4  A    between atoms: C_7  and  N_11
REMARK    5  A    between atoms: C_13  and  C_16
REMARK                            x       y       z     vdW  Elec       q    Type
REMARK                         _______ _______ _______ _____ _____    ______ ____
ROOT
ATOM      3  C   UNL     1      -0.947  -0.466  24.371  0.00  0.00    +0.132 C 
ATOM      4  C   UNL     1      -0.492  -1.151  24.439  0.00  0.00    +0.162 C 
ATOM      5  O   UNL     1       0.217  -1.026  24.036  0.00  0.00    -0.350 OA
ATOM      6  C   UNL     1       0.200  -0.266  23.718  0.00  0.00    +0.168 C 
ATOM      7  C   UNL     1       0.627   0.282  23.273  0.00  0.00    +0.166 C 
ATOM      8  C   UNL     1       0.171   0.966  23.204  0.00  0.00    +0.169 C 
ATOM      9  O   UNL     1      -0.537   0.842  23.608  0.00  0.00    -0.350 OA
ATOM     10  C   UNL     1      -0.520   0.080  23.925  0.00  0.00    +0.163 C 
ENDROOT
BRANCH   7  11
ATOM     11  N   UNL     1       1.378   0.165  22.951  0.00  0.00    -0.227 N 
ATOM     12  C   UNL     1       2.096   0.302  23.335  0.00  0.00    +0.119 A 
ATOM     13  C   UNL     1       2.704   0.112  22.811  0.00  0.00    +0.141 A 
ATOM     14  N   UNL     1       2.363  -0.141  22.104  0.00  0.00    -0.127 NA
ATOM     15  N   UNL     1       1.543  -0.108  22.191  0.00  0.00    -0.064 NA
BRANCH  13  16
ATOM     16  C   UNL     1       3.513   0.167  22.966  0.00  0.00    +0.102 A 
ATOM     17  N   UNL     1       3.915  -0.477  23.290  0.00  0.00    -0.242 NA
ATOM     18  C   UNL     1       4.723  -0.423  23.446  0.00  0.00    +0.099 A 
ATOM     19  C   UNL     1       5.130   0.275  23.278  0.00  0.00    +0.021 A 
ATOM     20  C   UNL     1       4.727   0.919  22.954  0.00  0.00    +0.003 A 
ATOM     21  C   UNL     1       3.919   0.865  22.798  0.00  0.00    +0.021 A 
ENDBRANCH  13  16
ENDBRANCH   7  11
BRANCH   3   2
ATOM      2  N   UNL     1      -1.698  -0.350  24.692  0.00  0.00    -0.210 NA
BRANCH   2   1
ATOM      1  C   UNL     1      -2.225  -0.982  24.750  0.00  0.00    +0.115 C 
BRANCH   1  22
ATOM     22  C   UNL     1      -3.038  -0.843  24.746  0.00  0.00    -0.005 A 
ATOM     23  C   UNL     1      -3.518  -1.220  24.191  0.00  0.00    -0.003 A 
ATOM     24  C   UNL     1      -4.331  -1.082  24.187  0.00  0.00    -0.000 A 
ATOM     25  C   UNL     1      -4.665  -0.566  24.738  0.00  0.00    -0.000 A 
ATOM     26  C   UNL     1      -4.185  -0.188  25.293  0.00  0.00    -0.000 A 
ATOM     27  C   UNL     1      -3.371  -0.327  25.297  0.00  0.00    -0.003 A 
ENDBRANCH   1  22
ENDBRANCH   2   1
ENDBRANCH   3   2
TORSDOF 5
ENDMDL
MODEL 8
REMARK VINA RESULT:      -8.6      3.008      5.835
REMARK  Name = 
REMARK  5 active torsions:
REMARK  status: ('A' for Active; 'I' for Inactive)
REMARK    1  A    between atoms: C_1  and  N_2
REMARK    2  A    between atoms: C_1  and  C_22
REMARK    3  A    between atoms: N_2  and  C_3
REMARK    4  A    between atoms: C_7  and  N_11
REMARK    5  A    between atoms: C_13  and  C_16
REMARK                            x       y       z     vdW  Elec       q    Type
REMARK                         _______ _______ _______ _____ _____    ______ ____
ROOT
ATOM      3  C   UNL     1       1.654   0.491  23.176  0.00  0.00    +0.132 C 
ATOM      4  C   UNL     1       1.247  -0.105  22.776  0.00  0.00    +0.162 C 
ATOM      5  O   UNL     1       0.449  -0.043  22.973  0.00  0.00    -0.350 OA
ATOM      6  C   UNL     1       0.362   0.590  23.494  0.00  0.00    +0.168 C 
ATOM      7  C   UNL     1      -0.184   1.020  23.939  0.00  0.00    +0.166 C 
ATOM      8  C   UNL     1       0.223   1.615  24.338  0.00  0.00    +0.169 C 
ATOM      9  O   UNL     1       1.022   1.554  24.141  0.00  0.00    -0.350 OA
ATOM     10  C   UNL     1       1.108   0.920  23.619  0.00  0.00    +0.163 C 
ENDROOT
BRANCH   7  11
ATOM     11  N   UNL     1      -0.996   0.878  23.976  0.00  0.00    -0.227 N 
ATOM     12  C   UNL     1      -1.363   0.264  24.388  0.00  0.00    +0.119 A 
ATOM     13  C   UNL     1      -2.177   0.332  24.275  0.00  0.00    +0.141 A 
ATOM     14  N   UNL     1      -2.314   0.988  23.794  0.00  0.00    -0.127 NA
ATOM     15  N   UNL     1      -1.584   1.325  23.609  0.00  0.00    -0.064 NA
BRANCH  13  16
ATOM     16  C   UNL     1      -2.754  -0.168  24.588  0.00  0.00    +0.102 A 
ATOM     17  N   UNL     1      -2.636  -0.523  25.323  0.00  0.00    -0.242 NA
ATOM     18  C   UNL     1      -3.213  -1.024  25.637  0.00  0.00    +0.099 A 
ATOM     19  C   UNL     1      -3.907  -1.168  25.215  0.00  0.00    +0.021 A 
ATOM     20  C   UNL     1      -4.025  -0.812  24.480  0.00  0.00    +0.003 A 
ATOM     21  C   UNL     1      -3.449  -0.312  24.167  0.00  0.00    +0.021 A 
ENDBRANCH  13  16
ENDBRANCH   7  11
BRANCH   3   2
ATOM      2  N   UNL     1       2.467   0.632  23.138  0.00  0.00    -0.210 NA
BRANCH   2   1
ATOM      1  C   UNL     1       2.976   0.042  22.870  0.00  0.00    +0.115 C 
BRANCH   1  22
ATOM     22  C   UNL     1       3.773   0.056  23.084  0.00  0.00    -0.005 A 
ATOM     23  C   UNL     1       4.228   0.728  22.938  0.00  0.00    -0.003 A 
ATOM     24  C   UNL     1       5.024   0.742  23.152  0.00  0.00    -0.000 A 
ATOM     25  C   UNL     1       5.366   0.083  23.513  0.00  0.00    -0.000 A 
ATOM     26  C   UNL     1       4.911  -0.589  23.659  0.00  0.00    -0.000 A 
ATOM     27  C   UNL     1       4.115  -0.603  23.445  0.00  0.00    -0.003 A 
ENDBRANCH   1  22
ENDBRANCH   2   1
ENDBRANCH   3   2
TORSDOF 5
ENDMDL
