MODEL 1
REMARK VINA RESULT:     -16.2      0.000      0.000
REMARK  Name = 
REMARK  4 active torsions:
REMARK  status: ('A' for Active; 'I' for Inactive)
REMARK    1  A    between atoms: C_2  and  C_3
REMARK    2  A    between atoms: C_11  and  C_12
REMARK    3  A    between atoms: C_12  and  C_13
REMARK    4  A    between atoms: C_28  and  C_30
REMARK                            x       y       z     vdW  Elec       q    Type
REMARK                         _______ _______ _______ _____ _____    ______ ____
ROOT
ATOM      1  C   UNL     1      -0.469   4.327  24.700  0.00  0.00    +0.005 C 
ATOM      2  C   UNL     1      -1.148   3.877  24.834  0.00  0.00    +0.059 C 
ATOM      5  C   UNL     1      -1.424   4.623  25.053  0.00  0.00    +0.154 C 
ATOM      6  O   UNL     1      -0.925   5.278  25.011  0.00  0.00    -0.223 OA
ATOM      7  C   UNL     1      -2.203   4.714  25.314  0.00  0.00    +0.033 C 
ATOM      8  C   UNL     1      -2.703   4.059  25.356  0.00  0.00    +0.003 C 
ATOM      9  C   UNL     1      -2.426   3.314  25.137  0.00  0.00    +0.006 C 
ATOM     10  C   UNL     1      -3.202   3.405  25.398  0.00  0.00    +0.000 C 
ATOM     11  C   UNL     1      -2.926   2.659  25.179  0.00  0.00    +0.050 C 
ATOM     21  C   UNL     1      -2.649   1.914  24.961  0.00  0.00    +0.063 A 
ATOM     22  C   UNL     1      -1.870   1.823  24.700  0.00  0.00    +0.023 A 
ATOM     23  C   UNL     1      -1.371   2.477  24.658  0.00  0.00    +0.034 C 
ATOM     24  C   UNL     1      -1.647   3.223  24.876  0.00  0.00    +0.010 C 
ATOM     25  S   UNL     1      -1.754   1.025  24.523  0.00  0.00    -0.054 S 
ATOM     26  C   UNL     1      -2.458   0.624  24.674  0.00  0.00    +0.185 A 
ATOM     27  N   UNL     1      -2.587  -0.185  24.572  0.00  0.00    -0.150 NA
ATOM     28  C   UNL     1      -3.324  -0.510  24.746  0.00  0.00    +0.275 C 
ATOM     29  O   UNL     1      -3.933  -0.027  25.023  0.00  0.00    -0.268 OA
ATOM     38  N   UNL     1      -3.011   1.173  24.944  0.00  0.00    -0.227 NA
ENDROOT
BRANCH  28  30
ATOM     30  C   UNL     1      -3.453  -1.318  24.644  0.00  0.00    +0.110 A 
ATOM     31  C   UNL     1      -3.831  -1.594  23.964  0.00  0.00    +0.147 A 
ATOM     32  F   UNL     1      -4.080  -1.060  23.386  0.00  0.00    -0.204 F 
ATOM     33  C   UNL     1      -3.960  -2.402  23.862  0.00  0.00    +0.030 A 
ATOM     34  C   UNL     1      -3.710  -2.935  24.441  0.00  0.00    +0.005 A 
ATOM     35  C   UNL     1      -3.333  -2.661  25.120  0.00  0.00    +0.030 A 
ATOM     36  C   UNL     1      -3.204  -1.852  25.222  0.00  0.00    +0.147 A 
ATOM     37  F   UNL     1      -2.826  -1.577  25.902  0.00  0.00    -0.204 F 
ENDBRANCH  28  30
BRANCH   2   3
ATOM      3  C   UNL     1      -0.635   3.288  24.569  0.00  0.00    +0.184 C 
ATOM      4  O   UNL     1       0.116   3.489  24.292  0.00  0.00    -0.220 OA
ENDBRANCH   2   3
BRANCH  11  12
ATOM     12  C   UNL     1      -3.703   2.750  25.440  0.00  0.00    +0.091 C 
BRANCH  12  13
ATOM     13  C   UNL     1      -4.329   2.674  24.907  0.00  0.00    +0.226 C 
ATOM     14  O   UNL     1      -4.196   2.773  24.099  0.00  0.00    -0.275 OA
ATOM     15  N   UNL     1      -5.086   2.498  25.182  0.00  0.00    -0.280 N 
ATOM     16  C   UNL     1      -5.711   2.422  24.649  0.00  0.00    +0.093 C 
ATOM     17  C   UNL     1      -6.469   2.246  24.925  0.00  0.00    +0.022 C 
ATOM     18  C   UNL     1      -6.601   2.147  25.732  0.00  0.00    +0.004 C 
ATOM     19  C   UNL     1      -5.976   2.223  26.266  0.00  0.00    +0.022 C 
ATOM     20  C   UNL     1      -5.218   2.399  25.990  0.00  0.00    +0.093 C 
ENDBRANCH  12  13
ENDBRANCH  11  12
TORSDOF 4
ENDMDL
MODEL 2
REMARK VINA RESULT:     -14.9      1.721      4.816
REMARK  Name = 
REMARK  4 active torsions:
REMARK  status: ('A' for Active; 'I' for Inactive)
REMARK    1  A    between atoms: C_2  and  C_3
REMARK    2  A    between atoms: C_11  and  C_12
REMARK    3  A    between atoms: C_12  and  C_13
REMARK    4  A    between atoms: C_28  and  C_30
REMARK                            x       y       z     vdW  Elec       q    Type
REMARK                         _______ _______ _______ _____ _____    ______ ____
ROOT
ATOM      1  C   UNL     1      -2.307  -2.848  24.487  0.00  0.00    +0.005 C 
ATOM      2  C   UNL     1      -2.628  -2.089  24.508  0.00  0.00    +0.059 C 
ATOM      5  C   UNL     1      -3.319  -2.534  24.442  0.00  0.00    +0.154 C 
ATOM      6  O   UNL     1      -3.277  -3.357  24.400  0.00  0.00    -0.223 OA
ATOM      7  C   UNL     1      -4.053  -2.157  24.417  0.00  0.00    +0.033 C 
ATOM      8  C   UNL     1      -4.095  -1.335  24.458  0.00  0.00    +0.003 C 
ATOM      9  C   UNL     1      -3.405  -0.889  24.524  0.00  0.00    +0.006 C 
ATOM     10  C   UNL     1      -4.138  -0.513  24.499  0.00  0.00    +0.000 C 
ATOM     11  C   UNL     1      -3.447  -0.066  24.565  0.00  0.00    +0.050 C 
ATOM     21  C   UNL     1      -2.757   0.380  24.631  0.00  0.00    +0.063 A 
ATOM     22  C   UNL     1      -2.022   0.002  24.656  0.00  0.00    +0.023 A 
ATOM     23  C   UNL     1      -1.980  -0.820  24.615  0.00  0.00    +0.034 C 
ATOM     24  C   UNL     1      -2.671  -1.266  24.549  0.00  0.00    +0.010 C 
ATOM     25  S   UNL     1      -1.440   0.583  24.723  0.00  0.00    -0.054 S 
ATOM     26  C   UNL     1      -1.813   1.319  24.739  0.00  0.00    +0.185 A 
ATOM     27  N   UNL     1      -1.439   2.051  24.801  0.00  0.00    -0.150 NA
ATOM     28  C   UNL     1      -1.887   2.743  24.811  0.00  0.00    +0.275 C 
ATOM     29  O   UNL     1      -2.709   2.704  24.758  0.00  0.00    -0.268 OA
ATOM     38  N   UNL     1      -2.626   1.193  24.683  0.00  0.00    -0.227 NA
ENDROOT
BRANCH  28  30
ATOM     30  C   UNL     1      -1.512   3.476  24.873  0.00  0.00    +0.110 A 
ATOM     31  C   UNL     1      -1.691   3.979  25.503  0.00  0.00    +0.147 A 
ATOM     32  F   UNL     1      -2.243   3.748  26.070  0.00  0.00    -0.204 F 
ATOM     33  C   UNL     1      -1.316   4.712  25.565  0.00  0.00    +0.030 A 
ATOM     34  C   UNL     1      -0.763   4.941  24.997  0.00  0.00    +0.005 A 
ATOM     35  C   UNL     1      -0.585   4.439  24.368  0.00  0.00    +0.030 A 
ATOM     36  C   UNL     1      -0.959   3.707  24.306  0.00  0.00    +0.147 A 
ATOM     37  F   UNL     1      -0.781   3.204  23.676  0.00  0.00    -0.204 F 
ENDBRANCH  28  30
BRANCH   2   3
ATOM      3  C   UNL     1      -1.826  -1.907  24.566  0.00  0.00    +0.184 C 
ATOM      4  O   UNL     1      -1.266  -2.513  24.586  0.00  0.00    -0.220 OA
ENDBRANCH   2   3
BRANCH  11  12
ATOM     12  C   UNL     1      -4.180   0.311  24.541  0.00  0.00    +0.091 C 
BRANCH  12  13
ATOM     13  C   UNL     1      -4.530   0.581  25.238  0.00  0.00    +0.226 C 
ATOM     14  O   UNL     1      -4.280   0.283  25.966  0.00  0.00    -0.275 OA
ATOM     15  N   UNL     1      -5.128   1.146  25.208  0.00  0.00    -0.280 N 
ATOM     16  C   UNL     1      -5.478   1.416  25.905  0.00  0.00    +0.093 C 
ATOM     17  C   UNL     1      -6.077   1.982  25.874  0.00  0.00    +0.022 C 
ATOM     18  C   UNL     1      -6.326   2.279  25.147  0.00  0.00    +0.004 C 
ATOM     19  C   UNL     1      -5.977   2.011  24.449  0.00  0.00    +0.022 C 
ATOM     20  C   UNL     1      -5.378   1.444  24.479  0.00  0.00    +0.093 C 
ENDBRANCH  12  13
ENDBRANCH  11  12
TORSDOF 4
ENDMDL
MODEL 3
REMARK VINA RESULT:     -14.5      2.085      4.017
REMARK  Name = 
REMARK  4 active torsions:
REMARK  status: ('A' for Active; 'I' for Inactive)
REMARK    1  A    between atoms: C_2  and  C_3
REMARK    2  A    between atoms: C_11  and  C_12
REMARK    3  A    between atoms: C_12  and  C_13
REMARK    4  A    between atoms: C_28  and  C_30
REMARK                            x       y       z     vdW  Elec       q    Type
REMARK                         _______ _______ _______ _____ _____    ______ ____
ROOT
ATOM      1  C   UNL     1      -5.154   3.491  25.053  0.00  0.00    +0.005 C 
ATOM      2  C   UNL     1      -4.713   2.795  25.003  0.00  0.00    +0.059 C 
ATOM      5  C   UNL     1      -5.418   2.496  25.310  0.00  0.00    +0.154 C 
ATOM      6  O   UNL     1      -6.051   3.003  25.460  0.00  0.00    -0.223 OA
ATOM      7  C   UNL     1      -5.490   1.689  25.466  0.00  0.00    +0.033 C 
ATOM      8  C   UNL     1      -4.857   1.182  25.316  0.00  0.00    +0.003 C 
ATOM      9  C   UNL     1      -4.153   1.481  25.009  0.00  0.00    +0.006 C 
ATOM     10  C   UNL     1      -4.225   0.675  25.165  0.00  0.00    +0.000 C 
ATOM     11  C   UNL     1      -3.520   0.974  24.858  0.00  0.00    +0.050 C 
ATOM     21  C   UNL     1      -2.815   1.272  24.552  0.00  0.00    +0.063 A 
ATOM     22  C   UNL     1      -2.743   2.080  24.395  0.00  0.00    +0.023 A 
ATOM     23  C   UNL     1      -3.376   2.587  24.545  0.00  0.00    +0.034 C 
ATOM     24  C   UNL     1      -4.081   2.288  24.852  0.00  0.00    +0.010 C 
ATOM     25  S   UNL     1      -1.986   2.214  24.096  0.00  0.00    -0.054 S 
ATOM     26  C   UNL     1      -1.590   1.491  24.067  0.00  0.00    +0.185 A 
ATOM     27  N   UNL     1      -0.818   1.371  23.803  0.00  0.00    -0.150 NA
ATOM     28  C   UNL     1      -0.495   0.613  23.806  0.00  0.00    +0.275 C 
ATOM     29  O   UNL     1      -0.943  -0.026  24.074  0.00  0.00    -0.268 OA
ATOM     38  N   UNL     1      -2.103   0.910  24.349  0.00  0.00    -0.227 NA
ENDROOT
BRANCH  28  30
ATOM     30  C   UNL     1       0.277   0.493  23.542  0.00  0.00    +0.110 A 
ATOM     31  C   UNL     1       0.444  -0.124  23.019  0.00  0.00    +0.147 A 
ATOM     32  F   UNL     1      -0.163  -0.620  22.761  0.00  0.00    -0.204 F 
ATOM     33  C   UNL     1       1.216  -0.244  22.755  0.00  0.00    +0.030 A 
ATOM     34  C   UNL     1       1.822   0.253  23.014  0.00  0.00    +0.005 A 
ATOM     35  C   UNL     1       1.656   0.868  23.536  0.00  0.00    +0.030 A 
ATOM     36  C   UNL     1       0.884   0.989  23.800  0.00  0.00    +0.147 A 
ATOM     37  F   UNL     1       0.718   1.605  24.323  0.00  0.00    -0.204 F 
ENDBRANCH  28  30
BRANCH   2   3
ATOM      3  C   UNL     1      -4.162   3.336  24.713  0.00  0.00    +0.184 C 
ATOM      4  O   UNL     1      -4.355   4.138  24.668  0.00  0.00    -0.220 OA
ENDBRANCH   2   3
BRANCH  11  12
ATOM     12  C   UNL     1      -3.592   0.167  25.015  0.00  0.00    +0.091 C 
BRANCH  12  13
ATOM     13  C   UNL     1      -3.739  -0.362  24.398  0.00  0.00    +0.226 C 
ATOM     14  O   UNL     1      -3.953  -0.078  23.654  0.00  0.00    -0.275 OA
ATOM     15  N   UNL     1      -3.672  -1.173  24.526  0.00  0.00    -0.280 N 
ATOM     16  C   UNL     1      -3.819  -1.702  23.910  0.00  0.00    +0.093 C 
ATOM     17  C   UNL     1      -3.751  -2.514  24.038  0.00  0.00    +0.022 C 
ATOM     18  C   UNL     1      -3.537  -2.798  24.781  0.00  0.00    +0.004 C 
ATOM     19  C   UNL     1      -3.390  -2.270  25.398  0.00  0.00    +0.022 C 
ATOM     20  C   UNL     1      -3.457  -1.458  25.271  0.00  0.00    +0.093 C 
ENDBRANCH  12  13
ENDBRANCH  11  12
TORSDOF 4
ENDMDL
MODEL 4
REMARK VINA RESULT:     -14.4      2.013      5.284
REMARK  Name = 
REMARK  4 active torsions:
REMARK  status: ('A' for Active; 'I' for Inactive)
REMARK    1  A    between atoms: C_2  and  C_3
REMARK    2  A    between atoms: C_11  and  C_12
REMARK    3  A    between atoms: C_12  and  C_13
REMARK    4  A    between atoms: C_28  and  C_30
REMARK                            x       y       z     vdW  Elec       q    Type
REMARK                         _______ _______ _______ _____ _____    ______ ____
ROOT
ATOM      1  C   UNL     1      -3.319  -2.982  24.138  0.00  0.00    +0.005 C 
ATOM      2  C   UNL     1      -3.087  -2.224  24.366  0.00  0.00    +0.059 C 
ATOM      5  C   UNL     1      -2.367  -2.620  24.433  0.00  0.00    +0.154 C 
ATOM      6  O   UNL     1      -2.320  -3.425  24.257  0.00  0.00    -0.223 OA
ATOM      7  C   UNL     1      -1.692  -2.211  24.678  0.00  0.00    +0.033 C 
ATOM      8  C   UNL     1      -1.739  -1.408  24.854  0.00  0.00    +0.003 C 
ATOM      9  C   UNL     1      -2.458  -1.011  24.787  0.00  0.00    +0.006 C 
ATOM     10  C   UNL     1      -1.785  -0.604  25.031  0.00  0.00    +0.000 C 
ATOM     11  C   UNL     1      -2.505  -0.207  24.963  0.00  0.00    +0.050 C 
ATOM     21  C   UNL     1      -3.225   0.190  24.896  0.00  0.00    +0.063 A 
ATOM     22  C   UNL     1      -3.900  -0.219  24.651  0.00  0.00    +0.023 A 
ATOM     23  C   UNL     1      -3.853  -1.023  24.475  0.00  0.00    +0.034 C 
ATOM     24  C   UNL     1      -3.133  -1.420  24.542  0.00  0.00    +0.010 C 
ATOM     25  S   UNL     1      -4.529   0.315  24.636  0.00  0.00    -0.054 S 
ATOM     26  C   UNL     1      -4.244   1.052  24.870  0.00  0.00    +0.185 A 
ATOM     27  N   UNL     1      -4.687   1.746  24.933  0.00  0.00    -0.150 NA
ATOM     28  C   UNL     1      -4.324   2.445  25.176  0.00  0.00    +0.275 C 
ATOM     29  O   UNL     1      -3.519   2.453  25.356  0.00  0.00    -0.268 OA
ATOM     38  N   UNL     1      -3.439   0.975  25.031  0.00  0.00    -0.227 NA
ENDROOT
BRANCH  28  30
ATOM     30  C   UNL     1      -4.767   3.139  25.239  0.00  0.00    +0.110 A 
ATOM     31  C   UNL     1      -4.616   3.772  24.731  0.00  0.00    +0.147 A 
ATOM     32  F   UNL     1      -4.023   3.711  24.161  0.00  0.00    -0.204 F 
ATOM     33  C   UNL     1      -5.059   4.466  24.794  0.00  0.00    +0.030 A 
ATOM     34  C   UNL     1      -5.653   4.525  25.364  0.00  0.00    +0.005 A 
ATOM     35  C   UNL     1      -5.803   3.893  25.871  0.00  0.00    +0.030 A 
ATOM     36  C   UNL     1      -5.361   3.200  25.808  0.00  0.00    +0.147 A 
ATOM     37  F   UNL     1      -5.511   2.566  26.316  0.00  0.00    -0.204 F 
ENDBRANCH  28  30
BRANCH   2   3
ATOM      3  C   UNL     1      -3.887  -2.091  24.219  0.00  0.00    +0.184 C 
ATOM      4  O   UNL     1      -4.350  -2.687  23.884  0.00  0.00    -0.220 OA
ENDBRANCH   2   3
BRANCH  11  12
ATOM     12  C   UNL     1      -1.831   0.202  25.207  0.00  0.00    +0.091 C 
BRANCH  12  13
ATOM     13  C   UNL     1      -1.437   0.700  24.680  0.00  0.00    +0.226 C 
ATOM     14  O   UNL     1      -1.578   0.637  23.870  0.00  0.00    -0.275 OA
ATOM     15  N   UNL     1      -0.904   1.261  24.964  0.00  0.00    -0.280 N 
ATOM     16  C   UNL     1      -0.510   1.759  24.438  0.00  0.00    +0.093 C 
ATOM     17  C   UNL     1       0.024   2.320  24.722  0.00  0.00    +0.022 C 
ATOM     18  C   UNL     1       0.165   2.383  25.532  0.00  0.00    +0.004 C 
ATOM     19  C   UNL     1      -0.229   1.885  26.059  0.00  0.00    +0.022 C 
ATOM     20  C   UNL     1      -0.763   1.324  25.775  0.00  0.00    +0.093 C 
ENDBRANCH  12  13
ENDBRANCH  11  12
TORSDOF 4
ENDMDL
MODEL 5
REMARK VINA RESULT:     -14.0      1.529      3.374
REMARK  Name = 
REMARK  4 active torsions:
REMARK  status: ('A' for Active; 'I' for Inactive)
REMARK    1  A    between atoms: C_2  and  C_3
REMARK    2  A    between atoms: C_11  and  C_12
REMARK    3  A    between atoms: C_12  and  C_13
REMARK    4  A    between atoms: C_28  and  C_30
REMARK                            x       y       z     vdW  Elec       q    Type
REMARK                         _______ _______ _______ _____ _____    ______ ____
ROOT
ATOM      1  C   UNL     1      -5.567   4.153  25.597  0.00  0.00    +0.005 C 
ATOM      2  C   UNL     1      -4.977   3.629  25.357  0.00  0.00    +0.059 C 
ATOM      5  C   UNL     1      -4.577   4.345  25.270  0.00  0.00    +0.154 C 
ATOM      6  O   UNL     1      -4.957   5.055  25.450  0.00  0.00    -0.223 OA
ATOM      7  C   UNL     1      -3.796   4.351  25.002  0.00  0.00    +0.033 C 
ATOM      8  C   UNL     1      -3.416   3.642  24.821  0.00  0.00    +0.003 C 
ATOM      9  C   UNL     1      -3.816   2.927  24.909  0.00  0.00    +0.006 C 
ATOM     10  C   UNL     1      -3.037   2.933  24.641  0.00  0.00    +0.000 C 
ATOM     11  C   UNL     1      -3.436   2.216  24.729  0.00  0.00    +0.050 C 
ATOM     21  C   UNL     1      -3.836   1.501  24.816  0.00  0.00    +0.063 A 
ATOM     22  C   UNL     1      -4.617   1.494  25.085  0.00  0.00    +0.023 A 
ATOM     23  C   UNL     1      -4.997   2.203  25.265  0.00  0.00    +0.034 C 
ATOM     24  C   UNL     1      -4.597   2.920  25.177  0.00  0.00    +0.010 C 
ATOM     25  S   UNL     1      -4.868   0.709  25.116  0.00  0.00    -0.054 S 
ATOM     26  C   UNL     1      -4.244   0.230  24.868  0.00  0.00    +0.185 A 
ATOM     27  N   UNL     1      -4.255  -0.593  24.815  0.00  0.00    -0.150 NA
ATOM     28  C   UNL     1      -3.586  -0.998  24.556  0.00  0.00    +0.275 C 
ATOM     29  O   UNL     1      -2.904  -0.582  24.351  0.00  0.00    -0.268 OA
ATOM     38  N   UNL     1      -3.606   0.719  24.683  0.00  0.00    -0.227 NA
ENDROOT
BRANCH  28  30
ATOM     30  C   UNL     1      -3.597  -1.822  24.503  0.00  0.00    +0.110 A 
ATOM     31  C   UNL     1      -3.263  -2.279  25.104  0.00  0.00    +0.147 A 
ATOM     32  F   UNL     1      -2.918  -1.912  25.757  0.00  0.00    -0.204 F 
ATOM     33  C   UNL     1      -3.275  -3.102  25.050  0.00  0.00    +0.030 A 
ATOM     34  C   UNL     1      -3.620  -3.468  24.396  0.00  0.00    +0.005 A 
ATOM     35  C   UNL     1      -3.954  -3.011  23.796  0.00  0.00    +0.030 A 
ATOM     36  C   UNL     1      -3.942  -2.188  23.849  0.00  0.00    +0.147 A 
ATOM     37  F   UNL     1      -4.276  -1.731  23.249  0.00  0.00    -0.204 F 
ENDBRANCH  28  30
BRANCH   2   3
ATOM      3  C   UNL     1      -5.582   3.095  25.528  0.00  0.00    +0.184 C 
ATOM      4  O   UNL     1      -6.292   3.365  25.852  0.00  0.00    -0.220 OA
ENDBRANCH   2   3
BRANCH  11  12
ATOM     12  C   UNL     1      -2.656   2.223  24.461  0.00  0.00    +0.091 C 
BRANCH  12  13
ATOM     13  C   UNL     1      -2.040   2.042  24.980  0.00  0.00    +0.226 C 
ATOM     14  O   UNL     1      -2.182   2.006  25.791  0.00  0.00    -0.275 OA
ATOM     15  N   UNL     1      -1.283   1.898  24.687  0.00  0.00    -0.280 N 
ATOM     16  C   UNL     1      -0.667   1.717  25.204  0.00  0.00    +0.093 C 
ATOM     17  C   UNL     1       0.090   1.573  24.911  0.00  0.00    +0.022 C 
ATOM     18  C   UNL     1       0.232   1.609  24.100  0.00  0.00    +0.004 C 
ATOM     19  C   UNL     1      -0.384   1.790  23.580  0.00  0.00    +0.022 C 
ATOM     20  C   UNL     1      -1.141   1.934  23.874  0.00  0.00    +0.093 C 
ENDBRANCH  12  13
ENDBRANCH  11  12
TORSDOF 4
ENDMDL
MODEL 6
REMARK VINA RESULT:     -13.7      1.594      3.424
REMARK  Name = 
REMARK  4 active torsions:
REMARK  status: ('A' for Active; 'I' for Inactive)
REMARK    1  A    between atoms: C_2  and  C_3
REMARK    2  A    between atoms: C_11  and  C_12
REMARK    3  A    between atoms: C_12  and  C_13
REMARK    4  A    between atoms: C_28  and  C_30
REMARK                            x       y       z     vdW  Elec       q    Type
REMARK                         _______ _______ _______ _____ _____    ______ ____
ROOT
ATOM      1  C   UNL     1      -2.343   4.733  25.692  0.00  0.00    +0.005 C 
ATOM      2  C   UNL     1      -2.103   4.025  25.343  0.00  0.00    +0.059 C 
ATOM      5  C   UNL     1      -1.464   4.506  25.144  0.00  0.00    +0.154 C 
ATOM      6  O   UNL     1      -1.452   5.297  25.380  0.00  0.00    -0.223 OA
ATOM      7  C   UNL     1      -0.835   4.197  24.706  0.00  0.00    +0.033 C 
ATOM      8  C   UNL     1      -0.846   3.408  24.470  0.00  0.00    +0.003 C 
ATOM      9  C   UNL     1      -1.485   2.927  24.669  0.00  0.00    +0.006 C 
ATOM     10  C   UNL     1      -0.858   2.618  24.233  0.00  0.00    +0.000 C 
ATOM     11  C   UNL     1      -1.497   2.136  24.433  0.00  0.00    +0.050 C 
ATOM     21  C   UNL     1      -2.136   1.655  24.632  0.00  0.00    +0.063 A 
ATOM     22  C   UNL     1      -2.765   1.964  25.070  0.00  0.00    +0.023 A 
ATOM     23  C   UNL     1      -2.753   2.753  25.306  0.00  0.00    +0.034 C 
ATOM     24  C   UNL     1      -2.114   3.235  25.107  0.00  0.00    +0.010 C 
ATOM     25  S   UNL     1      -3.315   1.360  25.184  0.00  0.00    -0.054 S 
ATOM     26  C   UNL     1      -3.028   0.679  24.818  0.00  0.00    +0.185 A 
ATOM     27  N   UNL     1      -3.404  -0.055  24.797  0.00  0.00    -0.150 NA
ATOM     28  C   UNL     1      -3.048  -0.689  24.408  0.00  0.00    +0.275 C 
ATOM     29  O   UNL     1      -2.316  -0.590  24.040  0.00  0.00    -0.268 OA
ATOM     38  N   UNL     1      -2.300   0.861  24.477  0.00  0.00    -0.227 NA
ENDROOT
BRANCH  28  30
ATOM     30  C   UNL     1      -3.423  -1.423  24.387  0.00  0.00    +0.110 A 
ATOM     31  C   UNL     1      -3.234  -2.000  24.946  0.00  0.00    +0.147 A 
ATOM     32  F   UNL     1      -2.670  -1.842  25.526  0.00  0.00    -0.204 F 
ATOM     33  C   UNL     1      -3.610  -2.735  24.925  0.00  0.00    +0.030 A 
ATOM     34  C   UNL     1      -4.174  -2.892  24.344  0.00  0.00    +0.005 A 
ATOM     35  C   UNL     1      -4.363  -2.316  23.785  0.00  0.00    +0.030 A 
ATOM     36  C   UNL     1      -3.988  -1.582  23.806  0.00  0.00    +0.147 A 
ATOM     37  F   UNL     1      -4.177  -1.005  23.247  0.00  0.00    -0.204 F 
ENDBRANCH  28  30
BRANCH   2   3
ATOM      3  C   UNL     1      -2.825   3.790  25.664  0.00  0.00    +0.184 C 
ATOM      4  O   UNL     1      -3.265   4.317  26.122  0.00  0.00    -0.220 OA
ENDBRANCH   2   3
BRANCH  11  12
ATOM     12  C   UNL     1      -0.869   1.827  23.996  0.00  0.00    +0.091 C 
BRANCH  12  13
ATOM     13  C   UNL     1      -0.336   1.306  24.350  0.00  0.00    +0.226 C 
ATOM     14  O   UNL     1      -0.273   1.277  25.172  0.00  0.00    -0.275 OA
ATOM     15  N   UNL     1       0.132   0.814  23.883  0.00  0.00    -0.280 N 
ATOM     16  C   UNL     1       0.664   0.293  24.237  0.00  0.00    +0.093 C 
ATOM     17  C   UNL     1       1.133  -0.200  23.770  0.00  0.00    +0.022 C 
ATOM     18  C   UNL     1       1.070  -0.170  22.948  0.00  0.00    +0.004 C 
ATOM     19  C   UNL     1       0.538   0.351  22.593  0.00  0.00    +0.022 C 
ATOM     20  C   UNL     1       0.069   0.843  23.061  0.00  0.00    +0.093 C 
ENDBRANCH  12  13
ENDBRANCH  11  12
TORSDOF 4
ENDMDL
