REMARK  Name = 
REMARK  3 active torsions:
REMARK  status: ('A' for Active; 'I' for Inactive)
REMARK    1  A    between atoms: C_3  and  C_4
REMARK    2  A    between atoms: C_4  and  N_5
REMARK    3  A    between atoms: C_8  and  C_10
REMARK                            x       y       z     vdW  Elec       q    Type
REMARK                         _______ _______ _______ _____ _____    ______ ____
ROOT
ATOM      5  N   UNL     1      -4.056  -5.758   0.000  0.00  0.00    -0.266 NA
ATOM      6  C   UNL     1      -3.720  -6.512   0.000  0.00  0.00    +0.073 C 
ATOM      7  C   UNL     1      -4.333  -7.064   0.000  0.00  0.00    +0.026 C 
ATOM      8  C   UNL     1      -5.048  -6.652   0.000  0.00  0.00    +0.076 C 
ATOM      9  C   UNL     1      -4.876  -5.845   0.000  0.00  0.00    +0.080 C 
ENDROOT
BRANCH   8  10
ATOM     10  C   UNL     1      -5.801  -6.987   0.000  0.00  0.00    +0.140 A 
ATOM     11  N   UNL     1      -6.516  -6.574   0.000  0.00  0.00    -0.229 NA
ATOM     12  C   UNL     1      -7.129  -7.127   0.000  0.00  0.00    +0.100 A 
ATOM     13  C   UNL     1      -6.793  -7.880   0.000  0.00  0.00    +0.100 A 
ATOM     14  N   UNL     1      -5.973  -7.794   0.000  0.00  0.00    -0.229 NA
ATOM     15  C   UNL     1      -7.278  -8.548   0.000  0.00  0.00    +0.021 A 
ATOM     16  C   UNL     1      -8.099  -8.461   0.000  0.00  0.00    +0.002 A 
ATOM     17  C   UNL     1      -8.434  -7.708   0.000  0.00  0.00    +0.002 A 
ATOM     18  C   UNL     1      -7.949  -7.040   0.000  0.00  0.00    +0.021 A 
ENDBRANCH   8  10
BRANCH   5   4
ATOM      4  C   UNL     1      -3.643  -5.044   0.000  0.00  0.00    +0.137 C 
BRANCH   4   3
ATOM      1  C   UNL     1      -2.588  -3.592   0.000  0.00  0.00    +0.132 C 
ATOM      2  N   UNL     1      -2.333  -4.376   0.000  0.00  0.00    -0.312 N 
ATOM      3  C   UNL     1      -2.818  -5.044   0.000  0.00  0.00    +0.137 A 
ATOM     19  N   UNL     1      -2.333  -5.711   0.000  0.00  0.00    -0.230 NA
ATOM     20  C   UNL     1      -1.549  -5.456   0.000  0.00  0.00    +0.098 A 
ATOM     21  C   UNL     1      -1.549  -4.631   0.000  0.00  0.00    +0.079 A 
ATOM     22  C   UNL     1      -0.834  -4.219   0.000  0.00  0.00    +0.019 A 
ATOM     23  C   UNL     1      -0.120  -4.631   0.000  0.00  0.00    +0.002 A 
ATOM     24  C   UNL     1      -0.120  -5.456   0.000  0.00  0.00    +0.002 A 
ATOM     25  C   UNL     1      -0.834  -5.869   0.000  0.00  0.00    +0.021 A 
ENDBRANCH   4   3
ENDBRANCH   5   4
TORSDOF 3
