REMARK  Name = 
REMARK  5 active torsions:
REMARK  status: ('A' for Active; 'I' for Inactive)
REMARK    1  A    between atoms: C_5  and  N_8
REMARK    2  A    between atoms: N_8  and  C_9
REMARK    3  A    between atoms: C_21  and  C_22
REMARK    4  A    between atoms: C_22  and  C_23
REMARK    5  A    between atoms: C_23  and  C_24
REMARK                            x       y       z     vdW  Elec       q    Type
REMARK                         _______ _______ _______ _____ _____    ______ ____
ROOT
ATOM      9  C   UNL     1       1.139  -1.365   0.000  0.00  0.00    +0.073 C 
ATOM     10  C   UNL     1       0.654  -0.698   0.000  0.00  0.00    +0.017 C 
ATOM     11  C   UNL     1       1.139  -0.030   0.000  0.00  0.00    +0.001 C 
ATOM     12  C   UNL     1       0.424   0.382   0.000  0.00  0.00    +0.000 C 
ATOM     13  C   UNL     1       1.474   0.723   0.000  0.00  0.00    +0.000 C 
ATOM     14  C   UNL     1       1.923  -0.285   0.000  0.00  0.00    +0.004 C 
ATOM     15  C   UNL     1       2.638   0.127   0.000  0.00  0.00    +0.030 C 
ATOM     16  C   UNL     1       3.352  -0.285   0.000  0.00  0.00    +0.127 C 
ATOM     17  C   UNL     1       4.165  -0.429   0.000  0.00  0.00    +0.033 C 
ATOM     18  O   UNL     1       3.635   0.490   0.000  0.00  0.00    -0.226 OA
ATOM     19  C   UNL     1       3.352  -1.110   0.000  0.00  0.00    +0.030 C 
ATOM     20  C   UNL     1       2.638  -1.523   0.000  0.00  0.00    +0.004 C 
ATOM     21  C   UNL     1       1.923  -1.110   0.000  0.00  0.00    +0.015 C 
ENDROOT
BRANCH   9   8
ATOM      8  N   UNL     1       0.884  -2.150   0.000  0.00  0.00    -0.221 NA
BRANCH   8   5
ATOM      1  C   UNL     1      -2.344  -2.836   0.000  0.00  0.00    +0.090 C 
ATOM      2  N   UNL     1      -1.537  -2.665   0.000  0.00  0.00    -0.271 NA
ATOM      3  C   UNL     1      -1.282  -1.880   0.000  0.00  0.00    +0.074 C 
ATOM      4  C   UNL     1      -0.475  -1.708   0.000  0.00  0.00    +0.035 C 
ATOM      5  C   UNL     1       0.077  -2.321   0.000  0.00  0.00    +0.075 C 
ATOM      6  C   UNL     1      -0.178  -3.106   0.000  0.00  0.00    +0.035 C 
ATOM      7  C   UNL     1      -0.985  -3.278   0.000  0.00  0.00    +0.074 C 
ENDBRANCH   8   5
ENDBRANCH   9   8
BRANCH  21  22
ATOM     22  C   UNL     1       1.837  -1.931   0.000  0.00  0.00    +0.011 C 
BRANCH  22  23
ATOM     23  C   UNL     1       2.505  -2.416   0.000  0.00  0.00    +0.085 C 
BRANCH  23  24
ATOM     24  C   UNL     1       2.418  -3.236   0.000  0.00  0.00    +0.226 C 
ATOM     25  O   UNL     1       1.665  -3.572   0.000  0.00  0.00    -0.275 OA
ATOM     26  N   UNL     1       3.086  -3.721   0.000  0.00  0.00    -0.280 N 
ATOM     27  C   UNL     1       3.870  -3.466   0.000  0.00  0.00    +0.093 C 
ATOM     28  C   UNL     1       4.355  -4.134   0.000  0.00  0.00    +0.023 C 
ATOM     29  C   UNL     1       3.870  -4.801   0.000  0.00  0.00    +0.023 C 
ATOM     30  C   UNL     1       3.086  -4.546   0.000  0.00  0.00    +0.093 C 
ENDBRANCH  23  24
ENDBRANCH  22  23
ENDBRANCH  21  22
TORSDOF 5
