REMARK  Name = 
REMARK  4 active torsions:
REMARK  status: ('A' for Active; 'I' for Inactive)
REMARK    1  A    between atoms: C_2  and  N_4
REMARK    2  A    between atoms: C_7  and  C_9
REMARK    3  A    between atoms: C_12  and  C_13
REMARK    4  A    between atoms: C_13  and  C_14
REMARK                            x       y       z     vdW  Elec       q    Type
REMARK                         _______ _______ _______ _____ _____    ______ ____
ROOT
ATOM      9  C   UNL     1       3.356  -3.003   0.000  0.00  0.00    +0.227 A 
ATOM     10  N   UNL     1       3.611  -3.788   0.000  0.00  0.00    -0.112 NA
ATOM     11  N   UNL     1       2.943  -4.273   0.000  0.00  0.00    -0.111 NA
ATOM     12  C   UNL     1       2.276  -3.788   0.000  0.00  0.00    +0.230 A 
ATOM     20  O   UNL     1       2.531  -3.003   0.000  0.00  0.00    -0.423 OA
ENDROOT
BRANCH   9   7
ATOM      4  N   UNL     1       4.253  -1.066   0.000  0.00  0.00    -0.274 NA
ATOM      5  C   UNL     1       4.920  -1.551   0.000  0.00  0.00    +0.073 C 
ATOM      6  C   UNL     1       4.666  -2.336   0.000  0.00  0.00    +0.028 C 
ATOM      7  C   UNL     1       3.841  -2.336   0.000  0.00  0.00    +0.095 C 
ATOM      8  C   UNL     1       3.586  -1.551   0.000  0.00  0.00    +0.081 C 
BRANCH   4   2
ATOM      1  C   UNL     1       4.968   0.171   0.000  0.00  0.00    +0.017 C 
ATOM      2  C   UNL     1       4.253  -0.241   0.000  0.00  0.00    +0.058 C 
ATOM      3  C   UNL     1       3.539   0.171   0.000  0.00  0.00    +0.017 C 
ENDBRANCH   4   2
ENDBRANCH   9   7
BRANCH  12  13
ATOM     13  C   UNL     1       1.491  -4.043   0.000  0.00  0.00    +0.113 C 
BRANCH  13  14
ATOM     14  C   UNL     1       0.878  -3.491   0.000  0.00  0.00    -0.013 A 
ATOM     15  C   UNL     1       0.093  -3.746   0.000  0.00  0.00    -0.004 A 
ATOM     16  C   UNL     1      -0.520  -3.194   0.000  0.00  0.00    -0.000 A 
ATOM     17  C   UNL     1      -0.348  -2.387   0.000  0.00  0.00    -0.000 A 
ATOM     18  C   UNL     1       0.436  -2.132   0.000  0.00  0.00    -0.000 A 
ATOM     19  C   UNL     1       1.050  -2.684   0.000  0.00  0.00    -0.004 A 
ENDBRANCH  13  14
ENDBRANCH  12  13
TORSDOF 4
