MODEL 1
REMARK VINA RESULT:     -11.3      0.000      0.000
REMARK  Name = 
REMARK  9 active torsions:
REMARK  status: ('A' for Active; 'I' for Inactive)
REMARK    1  A    between atoms: O_2  and  C_3
REMARK    2  A    between atoms: C_4  and  O_5
REMARK    3  A    between atoms: C_8  and  C_9
REMARK    4  A    between atoms: C_9  and  N_10
REMARK    5  A    between atoms: C_11  and  C_13
REMARK    6  A    between atoms: C_13  and  C_14
REMARK    7  A    between atoms: C_19  and  C_20
REMARK    8  A    between atoms: C_20  and  C_21
REMARK    9  A    between atoms: C_24  and  C_26
REMARK                            x       y       z     vdW  Elec       q    Type
REMARK                         _______ _______ _______ _____ _____    ______ ____
ROOT
ATOM     14  C   UNL     1      -4.944   2.488  24.930  0.00  0.00    +0.012 C 
ATOM     15  C   UNL     1      -5.564   2.440  25.473  0.00  0.00    +0.019 C 
ATOM     16  C   UNL     1      -5.724   3.078  25.972  0.00  0.00    +0.089 C 
ATOM     17  N   UNL     1      -5.265   3.762  25.929  0.00  0.00    -0.218 NA
ATOM     18  C   UNL     1      -4.645   3.808  25.386  0.00  0.00    +0.089 C 
ATOM     19  C   UNL     1      -4.484   3.171  24.887  0.00  0.00    +0.024 C 
ENDROOT
BRANCH  14  13
ATOM     13  C   UNL     1      -4.784   1.850  24.432  0.00  0.00    +0.087 C 
BRANCH  13  11
ATOM     10  N   UNL     1      -4.272   0.544  24.703  0.00  0.00    -0.201 NA
ATOM     11  C   UNL     1      -4.901   1.079  24.697  0.00  0.00    +0.242 C 
ATOM     12  O   UNL     1      -5.647   0.841  24.958  0.00  0.00    -0.273 OA
BRANCH  10   9
ATOM      9  C   UNL     1      -4.390  -0.228  24.969  0.00  0.00    +0.142 C 
BRANCH   9   8
ATOM      3  C   UNL     1      -2.540  -1.867  24.855  0.00  0.00    +0.172 A 
ATOM      4  C   UNL     1      -3.280  -2.058  24.545  0.00  0.00    +0.172 A 
ATOM      7  C   UNL     1      -3.896  -1.512  24.583  0.00  0.00    +0.037 A 
ATOM      8  C   UNL     1      -3.773  -0.775  24.931  0.00  0.00    +0.003 A 
ATOM     32  C   UNL     1      -3.033  -0.584  25.242  0.00  0.00    +0.001 A 
ATOM     33  C   UNL     1      -2.416  -1.130  25.204  0.00  0.00    +0.040 A 
BRANCH   3   2
ATOM      1  C   UNL     1      -1.148  -2.174  24.971  0.00  0.00    +0.253 C 
ATOM      2  O   UNL     1      -1.922  -2.414  24.817  0.00  0.00    -0.468 OA
ENDBRANCH   3   2
BRANCH   4   5
ATOM      5  O   UNL     1      -3.403  -2.796  24.196  0.00  0.00    -0.468 OA
ATOM      6  C   UNL     1      -4.120  -2.962  23.823  0.00  0.00    +0.253 C 
ENDBRANCH   4   5
ENDBRANCH   9   8
ENDBRANCH  10   9
ENDBRANCH  13  11
ENDBRANCH  14  13
BRANCH  19  20
ATOM     20  C   UNL     1      -3.865   3.218  24.345  0.00  0.00    +0.051 C 
BRANCH  20  21
ATOM     21  C   UNL     1      -3.104   3.407  24.603  0.00  0.00    +0.101 A 
ATOM     22  N   UNL     1      -2.821   4.165  24.763  0.00  0.00    -0.081 NA
ATOM     23  O   UNL     1      -2.035   4.098  25.005  0.00  0.00    -0.352 OA
ATOM     24  C   UNL     1      -1.833   3.298  24.994  0.00  0.00    +0.194 A 
ATOM     25  C   UNL     1      -2.494   2.871  24.745  0.00  0.00    +0.060 A 
BRANCH  24  26
ATOM     26  C   UNL     1      -1.098   2.981  25.196  0.00  0.00    +0.118 A 
ATOM     27  N   UNL     1      -0.583   2.725  24.605  0.00  0.00    -0.241 NA
ATOM     28  C   UNL     1       0.152   2.408  24.808  0.00  0.00    +0.099 A 
ATOM     29  C   UNL     1       0.370   2.348  25.602  0.00  0.00    +0.021 A 
ATOM     30  C   UNL     1      -0.145   2.604  26.192  0.00  0.00    +0.003 A 
ATOM     31  C   UNL     1      -0.880   2.921  25.989  0.00  0.00    +0.022 A 
ENDBRANCH  24  26
ENDBRANCH  20  21
ENDBRANCH  19  20
TORSDOF 9
ENDMDL
MODEL 2
REMARK VINA RESULT:     -11.3      1.524      5.524
REMARK  Name = 
REMARK  9 active torsions:
REMARK  status: ('A' for Active; 'I' for Inactive)
REMARK    1  A    between atoms: O_2  and  C_3
REMARK    2  A    between atoms: C_4  and  O_5
REMARK    3  A    between atoms: C_8  and  C_9
REMARK    4  A    between atoms: C_9  and  N_10
REMARK    5  A    between atoms: C_11  and  C_13
REMARK    6  A    between atoms: C_13  and  C_14
REMARK    7  A    between atoms: C_19  and  C_20
REMARK    8  A    between atoms: C_20  and  C_21
REMARK    9  A    between atoms: C_24  and  C_26
REMARK                            x       y       z     vdW  Elec       q    Type
REMARK                         _______ _______ _______ _____ _____    ______ ____
ROOT
ATOM     14  C   UNL     1      -0.223   1.421  25.039  0.00  0.00    +0.012 C 
ATOM     15  C   UNL     1       0.237   1.831  24.491  0.00  0.00    +0.019 C 
ATOM     16  C   UNL     1       0.512   1.446  23.814  0.00  0.00    +0.089 C 
ATOM     17  N   UNL     1       0.328   0.653  23.687  0.00  0.00    -0.218 NA
ATOM     18  C   UNL     1      -0.133   0.243  24.236  0.00  0.00    +0.089 C 
ATOM     19  C   UNL     1      -0.408   0.627  24.911  0.00  0.00    +0.024 C 
ENDROOT
BRANCH  14  13
ATOM     13  C   UNL     1      -0.498   1.806  25.715  0.00  0.00    +0.087 C 
BRANCH  13  11
ATOM     10  N   UNL     1      -1.629   2.676  25.637  0.00  0.00    -0.201 NA
ATOM     11  C   UNL     1      -0.811   2.566  25.659  0.00  0.00    +0.242 C 
ATOM     12  O   UNL     1      -0.307   3.218  25.624  0.00  0.00    -0.273 OA
BRANCH  10   9
ATOM      9  C   UNL     1      -1.942   3.437  25.580  0.00  0.00    +0.142 C 
BRANCH   9   8
ATOM      3  C   UNL     1      -4.365   3.752  25.190  0.00  0.00    +0.172 A 
ATOM      4  C   UNL     1      -3.881   3.479  24.580  0.00  0.00    +0.172 A 
ATOM      7  C   UNL     1      -3.074   3.375  24.710  0.00  0.00    +0.037 A 
ATOM      8  C   UNL     1      -2.750   3.542  25.450  0.00  0.00    +0.003 A 
ATOM     32  C   UNL     1      -3.234   3.814  26.060  0.00  0.00    +0.001 A 
ATOM     33  C   UNL     1      -4.041   3.919  25.930  0.00  0.00    +0.040 A 
BRANCH   3   2
ATOM      1  C   UNL     1      -5.687   3.936  25.701  0.00  0.00    +0.253 C 
ATOM      2  O   UNL     1      -5.173   3.857  25.060  0.00  0.00    -0.468 OA
ENDBRANCH   3   2
BRANCH   4   5
ATOM      5  O   UNL     1      -4.206   3.312  23.840  0.00  0.00    -0.468 OA
ATOM      6  C   UNL     1      -3.778   2.866  23.294  0.00  0.00    +0.253 C 
ENDBRANCH   4   5
ENDBRANCH   9   8
ENDBRANCH  10   9
ENDBRANCH  13  11
ENDBRANCH  14  13
BRANCH  19  20
ATOM     20  C   UNL     1      -0.868   0.218  25.460  0.00  0.00    +0.051 C 
BRANCH  20  21
ATOM     21  C   UNL     1      -1.236  -0.490  25.244  0.00  0.00    +0.101 A 
ATOM     22  N   UNL     1      -0.889  -1.237  25.252  0.00  0.00    -0.081 NA
ATOM     23  O   UNL     1      -1.453  -1.782  24.995  0.00  0.00    -0.352 OA
ATOM     24  C   UNL     1      -2.148  -1.371  24.829  0.00  0.00    +0.194 A 
ATOM     25  C   UNL     1      -2.014  -0.571  24.983  0.00  0.00    +0.060 A 
BRANCH  24  26
ATOM     26  C   UNL     1      -2.854  -1.701  24.558  0.00  0.00    +0.118 A 
ATOM     27  N   UNL     1      -3.438  -1.216  24.234  0.00  0.00    -0.241 NA
ATOM     28  C   UNL     1      -4.144  -1.547  23.962  0.00  0.00    +0.099 A 
ATOM     29  C   UNL     1      -4.265  -2.362  24.014  0.00  0.00    +0.021 A 
ATOM     30  C   UNL     1      -3.681  -2.845  24.338  0.00  0.00    +0.003 A 
ATOM     31  C   UNL     1      -2.975  -2.515  24.610  0.00  0.00    +0.022 A 
ENDBRANCH  24  26
ENDBRANCH  20  21
ENDBRANCH  19  20
TORSDOF 9
ENDMDL
MODEL 3
REMARK VINA RESULT:     -11.1      1.216      4.502
REMARK  Name = 
REMARK  9 active torsions:
REMARK  status: ('A' for Active; 'I' for Inactive)
REMARK    1  A    between atoms: O_2  and  C_3
REMARK    2  A    between atoms: C_4  and  O_5
REMARK    3  A    between atoms: C_8  and  C_9
REMARK    4  A    between atoms: C_9  and  N_10
REMARK    5  A    between atoms: C_11  and  C_13
REMARK    6  A    between atoms: C_13  and  C_14
REMARK    7  A    between atoms: C_19  and  C_20
REMARK    8  A    between atoms: C_20  and  C_21
REMARK    9  A    between atoms: C_24  and  C_26
REMARK                            x       y       z     vdW  Elec       q    Type
REMARK                         _______ _______ _______ _____ _____    ______ ____
ROOT
ATOM     14  C   UNL     1      -4.645   2.715  24.699  0.00  0.00    +0.012 C 
ATOM     15  C   UNL     1      -4.926   3.334  25.166  0.00  0.00    +0.019 C 
ATOM     16  C   UNL     1      -5.507   3.189  25.735  0.00  0.00    +0.089 C 
ATOM     17  N   UNL     1      -5.806   2.427  25.835  0.00  0.00    -0.218 NA
ATOM     18  C   UNL     1      -5.523   1.809  25.367  0.00  0.00    +0.089 C 
ATOM     19  C   UNL     1      -4.943   1.953  24.799  0.00  0.00    +0.024 C 
ENDROOT
BRANCH  14  13
ATOM     13  C   UNL     1      -4.064   2.860  24.131  0.00  0.00    +0.087 C 
BRANCH  13  11
ATOM     10  N   UNL     1      -2.700   3.058  24.506  0.00  0.00    -0.201 NA
ATOM     11  C   UNL     1      -3.438   3.367  24.301  0.00  0.00    +0.242 C 
ATOM     12  O   UNL     1      -3.547   4.184  24.268  0.00  0.00    -0.273 OA
BRANCH  10   9
ATOM      9  C   UNL     1      -2.072   3.565  24.676  0.00  0.00    +0.142 C 
BRANCH   9   8
ATOM      3  C   UNL     1      -0.081   2.711  25.870  0.00  0.00    +0.172 A 
ATOM      4  C   UNL     1      -0.177   2.557  25.066  0.00  0.00    +0.172 A 
ATOM      7  C   UNL     1      -0.841   2.841  24.668  0.00  0.00    +0.037 A 
ATOM      8  C   UNL     1      -1.408   3.280  25.074  0.00  0.00    +0.003 A 
ATOM     32  C   UNL     1      -1.312   3.435  25.879  0.00  0.00    +0.001 A 
ATOM     33  C   UNL     1      -0.648   3.150  26.277  0.00  0.00    +0.040 A 
BRANCH   3   2
ATOM      1  C   UNL     1       0.611   2.446  27.093  0.00  0.00    +0.253 C 
ATOM      2  O   UNL     1       0.584   2.426  26.269  0.00  0.00    -0.468 OA
ENDBRANCH   3   2
BRANCH   4   5
ATOM      5  O   UNL     1       0.391   2.117  24.660  0.00  0.00    -0.468 OA
ATOM      6  C   UNL     1       0.165   1.629  24.034  0.00  0.00    +0.253 C 
ENDBRANCH   4   5
ENDBRANCH   9   8
ENDBRANCH  10   9
ENDBRANCH  13  11
ENDBRANCH  14  13
BRANCH  19  20
ATOM     20  C   UNL     1      -4.661   1.335  24.332  0.00  0.00    +0.051 C 
BRANCH  20  21
ATOM     21  C   UNL     1      -4.491   0.603  24.674  0.00  0.00    +0.101 A 
ATOM     22  N   UNL     1      -4.513   0.428  25.479  0.00  0.00    -0.081 NA
ATOM     23  O   UNL     1      -4.304  -0.365  25.574  0.00  0.00    -0.352 OA
ATOM     24  C   UNL     1      -4.153  -0.679  24.826  0.00  0.00    +0.194 A 
ATOM     25  C   UNL     1      -4.268  -0.081  24.269  0.00  0.00    +0.060 A 
BRANCH  24  26
ATOM     26  C   UNL     1      -3.926  -1.456  24.663  0.00  0.00    +0.118 A 
ATOM     27  N   UNL     1      -3.393  -1.842  25.160  0.00  0.00    -0.241 NA
ATOM     28  C   UNL     1      -3.166  -2.619  24.997  0.00  0.00    +0.099 A 
ATOM     29  C   UNL     1      -3.473  -3.008  24.337  0.00  0.00    +0.021 A 
ATOM     30  C   UNL     1      -4.006  -2.622  23.841  0.00  0.00    +0.003 A 
ATOM     31  C   UNL     1      -4.233  -1.845  24.004  0.00  0.00    +0.022 A 
ENDBRANCH  24  26
ENDBRANCH  20  21
ENDBRANCH  19  20
TORSDOF 9
ENDMDL
MODEL 4
REMARK VINA RESULT:     -10.9      1.520      4.401
REMARK  Name = 
REMARK  9 active torsions:
REMARK  status: ('A' for Active; 'I' for Inactive)
REMARK    1  A    between atoms: O_2  and  C_3
REMARK    2  A    between atoms: C_4  and  O_5
REMARK    3  A    between atoms: C_8  and  C_9
REMARK    4  A    between atoms: C_9  and  N_10
REMARK    5  A    between atoms: C_11  and  C_13
REMARK    6  A    between atoms: C_13  and  C_14
REMARK    7  A    between atoms: C_19  and  C_20
REMARK    8  A    between atoms: C_20  and  C_21
REMARK    9  A    between atoms: C_24  and  C_26
REMARK                            x       y       z     vdW  Elec       q    Type
REMARK                         _______ _______ _______ _____ _____    ______ ____
ROOT
ATOM     14  C   UNL     1      -3.104  -1.641  25.017  0.00  0.00    +0.012 C 
ATOM     15  C   UNL     1      -3.413  -2.180  24.475  0.00  0.00    +0.019 C 
ATOM     16  C   UNL     1      -2.908  -2.687  24.063  0.00  0.00    +0.089 C 
ATOM     17  N   UNL     1      -2.094  -2.654  24.194  0.00  0.00    -0.218 NA
ATOM     18  C   UNL     1      -1.786  -2.115  24.737  0.00  0.00    +0.089 C 
ATOM     19  C   UNL     1      -2.290  -1.608  25.148  0.00  0.00    +0.024 C 
ENDROOT
BRANCH  14  13
ATOM     13  C   UNL     1      -3.609  -1.135  25.428  0.00  0.00    +0.087 C 
BRANCH  13  11
ATOM     10  N   UNL     1      -4.300   0.094  25.197  0.00  0.00    -0.201 NA
ATOM     11  C   UNL     1      -4.181  -0.704  25.021  0.00  0.00    +0.242 C 
ATOM     12  O   UNL     1      -4.637  -1.069  24.438  0.00  0.00    -0.273 OA
BRANCH  10   9
ATOM      9  C   UNL     1      -4.873   0.525  24.790  0.00  0.00    +0.142 C 
BRANCH   9   8
ATOM      3  C   UNL     1      -4.998   2.981  25.063  0.00  0.00    +0.172 A 
ATOM      4  C   UNL     1      -4.453   2.652  24.539  0.00  0.00    +0.172 A 
ATOM      7  C   UNL     1      -4.412   1.834  24.448  0.00  0.00    +0.037 A 
ATOM      8  C   UNL     1      -4.915   1.345  24.880  0.00  0.00    +0.003 A 
ATOM     32  C   UNL     1      -5.460   1.674  25.405  0.00  0.00    +0.001 A 
ATOM     33  C   UNL     1      -5.502   2.493  25.497  0.00  0.00    +0.040 A 
BRANCH   3   2
ATOM      1  C   UNL     1      -5.589   4.131  25.674  0.00  0.00    +0.253 C 
ATOM      2  O   UNL     1      -5.040   3.801  25.155  0.00  0.00    -0.468 OA
ENDBRANCH   3   2
BRANCH   4   5
ATOM      5  O   UNL     1      -3.950   3.142  24.106  0.00  0.00    -0.468 OA
ATOM      6  C   UNL     1      -3.498   2.828  23.491  0.00  0.00    +0.253 C 
ENDBRANCH   4   5
ENDBRANCH   9   8
ENDBRANCH  10   9
ENDBRANCH  13  11
ENDBRANCH  14  13
BRANCH  19  20
ATOM     20  C   UNL     1      -1.981  -1.069  25.690  0.00  0.00    +0.051 C 
BRANCH  20  21
ATOM     21  C   UNL     1      -1.376  -0.556  25.462  0.00  0.00    +0.101 A 
ATOM     22  N   UNL     1      -0.641  -0.777  25.160  0.00  0.00    -0.081 NA
ATOM     23  O   UNL     1      -0.211  -0.089  25.008  0.00  0.00    -0.352 OA
ATOM     24  C   UNL     1      -0.681   0.557  25.216  0.00  0.00    +0.194 A 
ATOM     25  C   UNL     1      -1.401   0.268  25.497  0.00  0.00    +0.060 A 
BRANCH  24  26
ATOM     26  C   UNL     1      -0.467   1.352  25.155  0.00  0.00    +0.118 A 
ATOM     27  N   UNL     1      -0.103   1.628  24.469  0.00  0.00    -0.241 NA
ATOM     28  C   UNL     1       0.111   2.423  24.407  0.00  0.00    +0.099 A 
ATOM     29  C   UNL     1      -0.041   2.941  25.032  0.00  0.00    +0.021 A 
ATOM     30  C   UNL     1      -0.405   2.663  25.717  0.00  0.00    +0.003 A 
ATOM     31  C   UNL     1      -0.619   1.868  25.779  0.00  0.00    +0.022 A 
ENDBRANCH  24  26
ENDBRANCH  20  21
ENDBRANCH  19  20
TORSDOF 9
ENDMDL
MODEL 5
REMARK VINA RESULT:     -10.7      1.361      3.792
REMARK  Name = 
REMARK  9 active torsions:
REMARK  status: ('A' for Active; 'I' for Inactive)
REMARK    1  A    between atoms: O_2  and  C_3
REMARK    2  A    between atoms: C_4  and  O_5
REMARK    3  A    between atoms: C_8  and  C_9
REMARK    4  A    between atoms: C_9  and  N_10
REMARK    5  A    between atoms: C_11  and  C_13
REMARK    6  A    between atoms: C_13  and  C_14
REMARK    7  A    between atoms: C_19  and  C_20
REMARK    8  A    between atoms: C_20  and  C_21
REMARK    9  A    between atoms: C_24  and  C_26
REMARK                            x       y       z     vdW  Elec       q    Type
REMARK                         _______ _______ _______ _____ _____    ______ ____
ROOT
ATOM     14  C   UNL     1      -0.988   3.489  25.539  0.00  0.00    +0.012 C 
ATOM     15  C   UNL     1      -0.411   3.692  24.986  0.00  0.00    +0.019 C 
ATOM     16  C   UNL     1      -0.474   4.399  24.565  0.00  0.00    +0.089 C 
ATOM     17  N   UNL     1      -1.114   4.903  24.699  0.00  0.00    -0.218 NA
ATOM     18  C   UNL     1      -1.690   4.699  25.253  0.00  0.00    +0.089 C 
ATOM     19  C   UNL     1      -1.628   3.993  25.673  0.00  0.00    +0.024 C 
ENDROOT
BRANCH  14  13
ATOM     13  C   UNL     1      -0.925   2.782  25.959  0.00  0.00    +0.087 C 
BRANCH  13  11
ATOM     10  N   UNL     1      -1.038   1.453  25.445  0.00  0.00    -0.201 NA
ATOM     11  C   UNL     1      -0.580   2.122  25.606  0.00  0.00    +0.242 C 
ATOM     12  O   UNL     1       0.222   2.128  25.413  0.00  0.00    -0.273 OA
BRANCH  10   9
ATOM      9  C   UNL     1      -0.693   0.793  25.091  0.00  0.00    +0.142 C 
BRANCH   9   8
ATOM      3  C   UNL     1      -2.035  -1.254  24.728  0.00  0.00    +0.172 A 
ATOM      4  C   UNL     1      -1.244  -1.314  24.955  0.00  0.00    +0.172 A 
ATOM      7  C   UNL     1      -0.797  -0.632  25.076  0.00  0.00    +0.037 A 
ATOM      8  C   UNL     1      -1.140   0.110  24.970  0.00  0.00    +0.003 A 
ATOM     32  C   UNL     1      -1.931   0.170  24.743  0.00  0.00    +0.001 A 
ATOM     33  C   UNL     1      -2.379  -0.512  24.621  0.00  0.00    +0.040 A 
BRANCH   3   2
ATOM      1  C   UNL     1      -3.283  -1.877  24.414  0.00  0.00    +0.253 C 
ATOM      2  O   UNL     1      -2.483  -1.937  24.606  0.00  0.00    -0.468 OA
ENDBRANCH   3   2
BRANCH   4   5
ATOM      5  O   UNL     1      -0.901  -2.058  25.061  0.00  0.00    -0.468 OA
ATOM      6  C   UNL     1      -0.147  -2.120  25.389  0.00  0.00    +0.253 C 
ENDBRANCH   4   5
ENDBRANCH   9   8
ENDBRANCH  10   9
ENDBRANCH  13  11
ENDBRANCH  14  13
BRANCH  19  20
ATOM     20  C   UNL     1      -2.204   3.789  26.226  0.00  0.00    +0.051 C 
BRANCH  20  21
ATOM     21  C   UNL     1      -3.002   3.792  26.011  0.00  0.00    +0.101 A 
ATOM     22  N   UNL     1      -3.465   4.461  25.881  0.00  0.00    -0.081 NA
ATOM     23  O   UNL     1      -4.225   4.209  25.679  0.00  0.00    -0.352 OA
ATOM     24  C   UNL     1      -4.230   3.384  25.685  0.00  0.00    +0.194 A 
ATOM     25  C   UNL     1      -3.473   3.126  25.891  0.00  0.00    +0.060 A 
BRANCH  24  26
ATOM     26  C   UNL     1      -4.878   2.902  25.515  0.00  0.00    +0.118 A 
ATOM     27  N   UNL     1      -5.530   2.897  26.019  0.00  0.00    -0.241 NA
ATOM     28  C   UNL     1      -6.178   2.414  25.849  0.00  0.00    +0.099 A 
ATOM     29  C   UNL     1      -6.172   1.938  25.175  0.00  0.00    +0.021 A 
ATOM     30  C   UNL     1      -5.519   1.944  24.672  0.00  0.00    +0.003 A 
ATOM     31  C   UNL     1      -4.871   2.426  24.842  0.00  0.00    +0.022 A 
ENDBRANCH  24  26
ENDBRANCH  20  21
ENDBRANCH  19  20
TORSDOF 9
ENDMDL
MODEL 6
REMARK VINA RESULT:     -10.6      1.427      2.251
REMARK  Name = 
REMARK  9 active torsions:
REMARK  status: ('A' for Active; 'I' for Inactive)
REMARK    1  A    between atoms: O_2  and  C_3
REMARK    2  A    between atoms: C_4  and  O_5
REMARK    3  A    between atoms: C_8  and  C_9
REMARK    4  A    between atoms: C_9  and  N_10
REMARK    5  A    between atoms: C_11  and  C_13
REMARK    6  A    between atoms: C_13  and  C_14
REMARK    7  A    between atoms: C_19  and  C_20
REMARK    8  A    between atoms: C_20  and  C_21
REMARK    9  A    between atoms: C_24  and  C_26
REMARK                            x       y       z     vdW  Elec       q    Type
REMARK                         _______ _______ _______ _____ _____    ______ ____
ROOT
ATOM     14  C   UNL     1      -3.331   3.143  24.881  0.00  0.00    +0.012 C 
ATOM     15  C   UNL     1      -3.688   3.417  25.572  0.00  0.00    +0.019 C 
ATOM     16  C   UNL     1      -3.252   3.866  26.111  0.00  0.00    +0.089 C 
ATOM     17  N   UNL     1      -2.460   4.040  25.958  0.00  0.00    -0.218 NA
ATOM     18  C   UNL     1      -2.104   3.765  25.266  0.00  0.00    +0.089 C 
ATOM     19  C   UNL     1      -2.539   3.317  24.728  0.00  0.00    +0.024 C 
ENDROOT
BRANCH  14  13
ATOM     13  C   UNL     1      -3.766   2.695  24.343  0.00  0.00    +0.087 C 
BRANCH  13  11
ATOM     10  N   UNL     1      -4.062   1.307  24.508  0.00  0.00    -0.201 NA
ATOM     11  C   UNL     1      -4.268   2.099  24.612  0.00  0.00    +0.242 C 
ATOM     12  O   UNL     1      -4.977   2.294  24.987  0.00  0.00    -0.273 OA
BRANCH  10   9
ATOM      9  C   UNL     1      -4.564   0.711  24.778  0.00  0.00    +0.142 C 
BRANCH   9   8
ATOM      3  C   UNL     1      -3.862  -1.658  24.630  0.00  0.00    +0.172 A 
ATOM      4  C   UNL     1      -3.779  -1.246  25.341  0.00  0.00    +0.172 A 
ATOM      7  C   UNL     1      -4.013  -0.457  25.390  0.00  0.00    +0.037 A 
ATOM      8  C   UNL     1      -4.330  -0.079  24.730  0.00  0.00    +0.003 A 
ATOM     32  C   UNL     1      -4.412  -0.490  24.019  0.00  0.00    +0.001 A 
ATOM     33  C   UNL     1      -4.179  -1.280  23.969  0.00  0.00    +0.040 A 
BRANCH   3   2
ATOM      1  C   UNL     1      -3.844  -2.902  23.927  0.00  0.00    +0.253 C 
ATOM      2  O   UNL     1      -3.628  -2.448  24.581  0.00  0.00    -0.468 OA
ENDBRANCH   3   2
BRANCH   4   5
ATOM      5  O   UNL     1      -3.462  -1.625  26.002  0.00  0.00    -0.468 OA
ATOM      6  C   UNL     1      -2.985  -1.206  26.528  0.00  0.00    +0.253 C 
ENDBRANCH   4   5
ENDBRANCH   9   8
ENDBRANCH  10   9
ENDBRANCH  13  11
ENDBRANCH  14  13
BRANCH  19  20
ATOM     20  C   UNL     1      -2.183   3.043  24.037  0.00  0.00    +0.051 C 
BRANCH  20  21
ATOM     21  C   UNL     1      -1.473   2.622  24.078  0.00  0.00    +0.101 A 
ATOM     22  N   UNL     1      -0.739   2.930  24.291  0.00  0.00    -0.081 NA
ATOM     23  O   UNL     1      -0.186   2.318  24.257  0.00  0.00    -0.352 OA
ATOM     24  C   UNL     1      -0.580   1.632  24.022  0.00  0.00    +0.194 A 
ATOM     25  C   UNL     1      -1.376   1.820  23.912  0.00  0.00    +0.060 A 
BRANCH  24  26
ATOM     26  C   UNL     1      -0.237   0.888  23.917  0.00  0.00    +0.118 A 
ATOM     27  N   UNL     1       0.404   0.798  23.407  0.00  0.00    -0.241 NA
ATOM     28  C   UNL     1       0.747   0.055  23.302  0.00  0.00    +0.099 A 
ATOM     29  C   UNL     1       0.446  -0.598  23.708  0.00  0.00    +0.021 A 
ATOM     30  C   UNL     1      -0.195  -0.508  24.218  0.00  0.00    +0.003 A 
ATOM     31  C   UNL     1      -0.538   0.236  24.323  0.00  0.00    +0.022 A 
ENDBRANCH  24  26
ENDBRANCH  20  21
ENDBRANCH  19  20
TORSDOF 9
ENDMDL
MODEL 7
REMARK VINA RESULT:     -10.6      1.719      4.460
REMARK  Name = 
REMARK  9 active torsions:
REMARK  status: ('A' for Active; 'I' for Inactive)
REMARK    1  A    between atoms: O_2  and  C_3
REMARK    2  A    between atoms: C_4  and  O_5
REMARK    3  A    between atoms: C_8  and  C_9
REMARK    4  A    between atoms: C_9  and  N_10
REMARK    5  A    between atoms: C_11  and  C_13
REMARK    6  A    between atoms: C_13  and  C_14
REMARK    7  A    between atoms: C_19  and  C_20
REMARK    8  A    between atoms: C_20  and  C_21
REMARK    9  A    between atoms: C_24  and  C_26
REMARK                            x       y       z     vdW  Elec       q    Type
REMARK                         _______ _______ _______ _____ _____    ______ ____
ROOT
ATOM     14  C   UNL     1      -3.342  -1.756  24.801  0.00  0.00    +0.012 C 
ATOM     15  C   UNL     1      -3.315  -2.371  24.253  0.00  0.00    +0.019 C 
ATOM     16  C   UNL     1      -3.922  -2.457  23.700  0.00  0.00    +0.089 C 
ATOM     17  N   UNL     1      -4.555  -1.927  23.696  0.00  0.00    -0.218 NA
ATOM     18  C   UNL     1      -4.580  -1.312  24.245  0.00  0.00    +0.089 C 
ATOM     19  C   UNL     1      -3.974  -1.226  24.798  0.00  0.00    +0.024 C 
ENDROOT
BRANCH  14  13
ATOM     13  C   UNL     1      -2.735  -1.671  25.354  0.00  0.00    +0.087 C 
BRANCH  13  11
ATOM     10  N   UNL     1      -1.538  -0.946  25.066  0.00  0.00    -0.201 NA
ATOM     11  C   UNL     1      -1.949  -1.661  25.106  0.00  0.00    +0.242 C 
ATOM     12  O   UNL     1      -1.573  -2.364  24.896  0.00  0.00    -0.273 OA
BRANCH  10   9
ATOM      9  C   UNL     1      -0.751  -0.936  24.818  0.00  0.00    +0.142 C 
BRANCH   9   8
ATOM      3  C   UNL     1       0.309   1.202  24.164  0.00  0.00    +0.172 A 
ATOM      4  C   UNL     1       0.466   0.516  23.734  0.00  0.00    +0.172 A 
ATOM      7  C   UNL     1       0.113  -0.197  23.952  0.00  0.00    +0.037 A 
ATOM      8  C   UNL     1      -0.398  -0.223  24.599  0.00  0.00    +0.003 A 
ATOM     32  C   UNL     1      -0.555   0.464  25.029  0.00  0.00    +0.001 A 
ATOM     33  C   UNL     1      -0.202   1.177  24.811  0.00  0.00    +0.040 A 
BRANCH   3   2
ATOM      1  C   UNL     1       0.420   2.621  24.298  0.00  0.00    +0.253 C 
ATOM      2  O   UNL     1       0.662   1.916  23.946  0.00  0.00    -0.468 OA
ENDBRANCH   3   2
BRANCH   4   5
ATOM      5  O   UNL     1       0.977   0.543  23.087  0.00  0.00    -0.468 OA
ATOM      6  C   UNL     1       1.236  -0.158  22.737  0.00  0.00    +0.253 C 
ENDBRANCH   4   5
ENDBRANCH   9   8
ENDBRANCH  10   9
ENDBRANCH  13  11
ENDBRANCH  14  13
BRANCH  19  20
ATOM     20  C   UNL     1      -4.000  -0.612  25.347  0.00  0.00    +0.051 C 
BRANCH  20  21
ATOM     21  C   UNL     1      -4.336   0.114  25.138  0.00  0.00    +0.101 A 
ATOM     22  N   UNL     1      -5.135   0.254  24.997  0.00  0.00    -0.081 NA
ATOM     23  O   UNL     1      -5.224   1.053  24.806  0.00  0.00    -0.352 OA
ATOM     24  C   UNL     1      -4.478   1.404  24.830  0.00  0.00    +0.194 A 
ATOM     25  C   UNL     1      -3.928   0.824  25.036  0.00  0.00    +0.060 A 
BRANCH  24  26
ATOM     26  C   UNL     1      -4.311   2.198  24.676  0.00  0.00    +0.118 A 
ATOM     27  N   UNL     1      -4.573   2.783  25.195  0.00  0.00    -0.241 NA
ATOM     28  C   UNL     1      -4.405   3.576  25.041  0.00  0.00    +0.099 A 
ATOM     29  C   UNL     1      -3.976   3.783  24.367  0.00  0.00    +0.021 A 
ATOM     30  C   UNL     1      -3.714   3.198  23.848  0.00  0.00    +0.003 A 
ATOM     31  C   UNL     1      -3.882   2.405  24.003  0.00  0.00    +0.022 A 
ENDBRANCH  24  26
ENDBRANCH  20  21
ENDBRANCH  19  20
TORSDOF 9
ENDMDL
MODEL 8
REMARK VINA RESULT:     -10.5      1.499      3.776
REMARK  Name = 
REMARK  9 active torsions:
REMARK  status: ('A' for Active; 'I' for Inactive)
REMARK    1  A    between atoms: O_2  and  C_3
REMARK    2  A    between atoms: C_4  and  O_5
REMARK    3  A    between atoms: C_8  and  C_9
REMARK    4  A    between atoms: C_9  and  N_10
REMARK    5  A    between atoms: C_11  and  C_13
REMARK    6  A    between atoms: C_13  and  C_14
REMARK    7  A    between atoms: C_19  and  C_20
REMARK    8  A    between atoms: C_20  and  C_21
REMARK    9  A    between atoms: C_24  and  C_26
REMARK                            x       y       z     vdW  Elec       q    Type
REMARK                         _______ _______ _______ _____ _____    ______ ____
ROOT
ATOM     14  C   UNL     1      -2.848   3.499  24.883  0.00  0.00    +0.012 C 
ATOM     15  C   UNL     1      -2.538   3.966  25.488  0.00  0.00    +0.019 C 
ATOM     16  C   UNL     1      -3.013   4.178  26.129  0.00  0.00    +0.089 C 
ATOM     17  N   UNL     1      -3.797   3.922  26.165  0.00  0.00    -0.218 NA
ATOM     18  C   UNL     1      -4.106   3.455  25.559  0.00  0.00    +0.089 C 
ATOM     19  C   UNL     1      -3.632   3.244  24.918  0.00  0.00    +0.024 C 
ENDROOT
BRANCH  14  13
ATOM     13  C   UNL     1      -2.374   3.288  24.242  0.00  0.00    +0.087 C 
BRANCH  13  11
ATOM     10  N   UNL     1      -1.411   2.232  24.272  0.00  0.00    -0.201 NA
ATOM     11  C   UNL     1      -1.601   3.030  24.368  0.00  0.00    +0.242 C 
ATOM     12  O   UNL     1      -1.017   3.568  24.591  0.00  0.00    -0.273 OA
BRANCH  10   9
ATOM      9  C   UNL     1      -0.638   1.974  24.398  0.00  0.00    +0.142 C 
BRANCH   9   8
ATOM      3  C   UNL     1      -0.148  -0.448  24.520  0.00  0.00    +0.172 A 
ATOM      4  C   UNL     1       0.082  -0.014  23.858  0.00  0.00    +0.172 A 
ATOM      7  C   UNL     1      -0.081   0.793  23.817  0.00  0.00    +0.037 A 
ATOM      8  C   UNL     1      -0.474   1.166  24.438  0.00  0.00    +0.003 A 
ATOM     32  C   UNL     1      -0.704   0.732  25.101  0.00  0.00    +0.001 A 
ATOM     33  C   UNL     1      -0.542  -0.076  25.142  0.00  0.00    +0.040 A 
BRANCH   3   2
ATOM      1  C   UNL     1      -0.314  -1.714  25.164  0.00  0.00    +0.253 C 
ATOM      2  O   UNL     1       0.015  -1.257  24.561  0.00  0.00    -0.468 OA
ENDBRANCH   3   2
BRANCH   4   5
ATOM      5  O   UNL     1       0.476  -0.388  23.236  0.00  0.00    -0.468 OA
ATOM      6  C   UNL     1       1.028   0.030  22.788  0.00  0.00    +0.253 C 
ENDBRANCH   4   5
ENDBRANCH   9   8
ENDBRANCH  10   9
ENDBRANCH  13  11
ENDBRANCH  14  13
BRANCH  19  20
ATOM     20  C   UNL     1      -3.941   2.777  24.313  0.00  0.00    +0.051 C 
BRANCH  20  21
ATOM     21  C   UNL     1      -4.271   2.040  24.487  0.00  0.00    +0.101 A 
ATOM     22  N   UNL     1      -5.036   1.906  24.764  0.00  0.00    -0.081 NA
ATOM     23  O   UNL     1      -5.131   1.092  24.863  0.00  0.00    -0.352 OA
ATOM     24  C   UNL     1      -4.425   0.724  24.648  0.00  0.00    +0.194 A 
ATOM     25  C   UNL     1      -3.893   1.311  24.415  0.00  0.00    +0.060 A 
BRANCH  24  26
ATOM     26  C   UNL     1      -4.277  -0.088  24.662  0.00  0.00    +0.118 A 
ATOM     27  N   UNL     1      -4.097  -0.461  25.375  0.00  0.00    -0.241 NA
ATOM     28  C   UNL     1      -3.949  -1.273  25.390  0.00  0.00    +0.099 A 
ATOM     29  C   UNL     1      -3.980  -1.710  24.690  0.00  0.00    +0.021 A 
ATOM     30  C   UNL     1      -4.160  -1.336  23.978  0.00  0.00    +0.003 A 
ATOM     31  C   UNL     1      -4.308  -0.524  23.963  0.00  0.00    +0.022 A 
ENDBRANCH  24  26
ENDBRANCH  20  21
ENDBRANCH  19  20
TORSDOF 9
ENDMDL
MODEL 9
REMARK VINA RESULT:      -7.5     15.971     18.824
REMARK  Name = 
REMARK  9 active torsions:
REMARK  status: ('A' for Active; 'I' for Inactive)
REMARK    1  A    between atoms: O_2  and  C_3
REMARK    2  A    between atoms: C_4  and  O_5
REMARK    3  A    between atoms: C_8  and  C_9
REMARK    4  A    between atoms: C_9  and  N_10
REMARK    5  A    between atoms: C_11  and  C_13
REMARK    6  A    between atoms: C_13  and  C_14
REMARK    7  A    between atoms: C_19  and  C_20
REMARK    8  A    between atoms: C_20  and  C_21
REMARK    9  A    between atoms: C_24  and  C_26
REMARK                            x       y       z     vdW  Elec       q    Type
REMARK                         _______ _______ _______ _____ _____    ______ ____
ROOT
ATOM     14  C   UNL     1      13.026   8.788  17.537  0.00  0.00    +0.012 C 
ATOM     15  C   UNL     1      12.525   8.698  16.887  0.00  0.00    +0.019 C 
ATOM     16  C   UNL     1      12.819   8.392  16.179  0.00  0.00    +0.089 C 
ATOM     17  N   UNL     1      13.613   8.176  16.121  0.00  0.00    -0.218 NA
ATOM     18  C   UNL     1      14.113   8.266  16.772  0.00  0.00    +0.089 C 
ATOM     19  C   UNL     1      13.820   8.571  17.479  0.00  0.00    +0.024 C 
ENDROOT
BRANCH  14  13
ATOM     13  C   UNL     1      12.731   9.093  18.244  0.00  0.00    +0.087 C 
BRANCH  13  11
ATOM     10  N   UNL     1      11.867   8.781  19.338  0.00  0.00    -0.201 NA
ATOM     11  C   UNL     1      11.996   8.848  18.525  0.00  0.00    +0.242 C 
ATOM     12  O   UNL     1      11.390   8.671  17.995  0.00  0.00    -0.273 OA
BRANCH  10   9
ATOM      9  C   UNL     1      11.131   8.535  19.619  0.00  0.00    +0.142 C 
BRANCH   9   8
ATOM      3  C   UNL     1      10.766   8.269  22.052  0.00  0.00    +0.172 A 
ATOM      4  C   UNL     1      10.997   7.621  21.596  0.00  0.00    +0.172 A 
ATOM      7  C   UNL     1      11.119   7.710  20.786  0.00  0.00    +0.037 A 
ATOM      8  C   UNL     1      11.010   8.446  20.431  0.00  0.00    +0.003 A 
ATOM     32  C   UNL     1      10.779   9.094  20.887  0.00  0.00    +0.001 A 
ATOM     33  C   UNL     1      10.657   9.006  21.698  0.00  0.00    +0.040 A 
BRANCH   3   2
ATOM      1  C   UNL     1      10.629   8.844  23.354  0.00  0.00    +0.253 C 
ATOM      2  O   UNL     1      10.645   8.180  22.864  0.00  0.00    -0.468 OA
ENDBRANCH   3   2
BRANCH   4   5
ATOM      5  O   UNL     1      11.106   6.885  21.952  0.00  0.00    -0.468 OA
ATOM      6  C   UNL     1      11.104   6.200  21.492  0.00  0.00    +0.253 C 
ENDBRANCH   4   5
ENDBRANCH   9   8
ENDBRANCH  10   9
ENDBRANCH  13  11
ENDBRANCH  14  13
BRANCH  19  20
ATOM     20  C   UNL     1      14.319   8.661  18.128  0.00  0.00    +0.051 C 
BRANCH  20  21
ATOM     21  C   UNL     1      14.752   8.015  18.408  0.00  0.00    +0.101 A 
ATOM     22  N   UNL     1      14.881   7.308  18.005  0.00  0.00    -0.081 NA
ATOM     23  O   UNL     1      15.341   6.821  18.488  0.00  0.00    -0.352 OA
ATOM     24  C   UNL     1      15.495   7.228  19.189  0.00  0.00    +0.194 A 
ATOM     25  C   UNL     1      15.131   7.967  19.139  0.00  0.00    +0.060 A 
BRANCH  24  26
ATOM     26  C   UNL     1      15.936   6.945  19.827  0.00  0.00    +0.118 A 
ATOM     27  N   UNL     1      15.552   6.665  20.501  0.00  0.00    -0.241 NA
ATOM     28  C   UNL     1      15.993   6.382  21.139  0.00  0.00    +0.099 A 
ATOM     29  C   UNL     1      16.817   6.381  21.101  0.00  0.00    +0.021 A 
ATOM     30  C   UNL     1      17.200   6.662  20.428  0.00  0.00    +0.003 A 
ATOM     31  C   UNL     1      16.759   6.944  19.789  0.00  0.00    +0.022 A 
ENDBRANCH  24  26
ENDBRANCH  20  21
ENDBRANCH  19  20
TORSDOF 9
ENDMDL
