MODEL 1
REMARK VINA RESULT:     -16.8      0.000      0.000
REMARK  Name = 
REMARK  3 active torsions:
REMARK  status: ('A' for Active; 'I' for Inactive)
REMARK    1  A    between atoms: S_2  and  C_3
REMARK    2  A    between atoms: C_6  and  C_9
REMARK    3  A    between atoms: C_19  and  C_21
REMARK                            x       y       z     vdW  Elec       q    Type
REMARK                         _______ _______ _______ _____ _____    ______ ____
ROOT
ATOM      9  C   UNL     1      -3.919  -0.080  24.536  0.00  0.00    +0.056 A 
ATOM     10  C   UNL     1      -4.623  -0.537  24.218  0.00  0.00    +0.006 A 
ATOM     11  C   UNL     1      -4.492  -1.348  24.147  0.00  0.00    +0.013 A 
ATOM     12  C   UNL     1      -3.762  -1.668  24.360  0.00  0.00    +0.041 A 
ATOM     13  C   UNL     1      -3.319  -2.472  24.401  0.00  0.00    +0.058 C 
ATOM     14  C   UNL     1      -3.407  -3.156  24.270  0.00  0.00    +0.011 C 
ATOM     15  C   UNL     1      -2.819  -2.668  24.551  0.00  0.00    +0.043 C 
ATOM     16  C   UNL     1      -1.997  -2.250  24.905  0.00  0.00    +0.095 C 
ATOM     17  N   UNL     1      -2.245  -1.453  24.933  0.00  0.00    -0.279 N 
ATOM     18  C   UNL     1      -2.517  -2.083  24.744  0.00  0.00    +0.099 C 
ATOM     19  C   UNL     1      -2.082  -0.627  25.111  0.00  0.00    +0.225 C 
ATOM     20  O   UNL     1      -1.278  -0.460  25.422  0.00  0.00    -0.275 OA
ATOM     27  C   UNL     1      -3.273  -1.823  24.512  0.00  0.00    +0.110 C 
ATOM     28  N   UNL     1      -3.164  -1.176  24.645  0.00  0.00    -0.299 N 
ATOM     29  C   UNL     1      -3.295  -0.365  24.717  0.00  0.00    +0.261 A 
ATOM     30  O   UNL     1      -2.498   0.176  25.080  0.00  0.00    -0.267 OA
ENDROOT
BRANCH   9   6
ATOM      3  C   UNL     1      -4.467   2.348  24.960  0.00  0.00    +0.025 A 
ATOM      4  C   UNL     1      -5.098   1.829  24.848  0.00  0.00    +0.006 A 
ATOM      5  C   UNL     1      -4.953   1.028  24.707  0.00  0.00    +0.001 A 
ATOM      6  C   UNL     1      -3.838   0.665  24.673  0.00  0.00    +0.005 A 
ATOM      7  C   UNL     1      -3.773   1.325  24.795  0.00  0.00    +0.001 A 
ATOM      8  C   UNL     1      -3.691   2.068  24.932  0.00  0.00    +0.006 A 
BRANCH   3   2
ATOM      1  C   UNL     1      -4.345   3.726  25.709  0.00  0.00    +0.074 C 
ATOM      2  S   UNL     1      -4.645   3.201  25.110  0.00  0.00    -0.113 S 
ENDBRANCH   3   2
ENDBRANCH   9   6
BRANCH  19  21
ATOM     21  C   UNL     1      -2.862  -0.163  24.900  0.00  0.00    +0.077 C 
ATOM     22  C   UNL     1      -2.864   0.184  24.152  0.00  0.00    +0.009 C 
ATOM     23  C   UNL     1      -3.522   0.611  23.897  0.00  0.00    +0.000 C 
ATOM     24  C   UNL     1      -4.179   0.691  24.390  0.00  0.00    +0.000 C 
ATOM     25  C   UNL     1      -4.177   0.343  25.139  0.00  0.00    +0.000 C 
ATOM     26  C   UNL     1      -3.518  -0.084  25.394  0.00  0.00    +0.009 C 
ENDBRANCH  19  21
TORSDOF 3
ENDMDL
MODEL 2
REMARK VINA RESULT:     -15.8      1.677      3.807
REMARK  Name = 
REMARK  3 active torsions:
REMARK  status: ('A' for Active; 'I' for Inactive)
REMARK    1  A    between atoms: S_2  and  C_3
REMARK    2  A    between atoms: C_6  and  C_9
REMARK    3  A    between atoms: C_19  and  C_21
REMARK                            x       y       z     vdW  Elec       q    Type
REMARK                         _______ _______ _______ _____ _____    ______ ____
ROOT
ATOM      9  C   UNL     1      -4.043   0.701  24.814  0.00  0.00    +0.056 A 
ATOM     10  C   UNL     1      -4.868   0.664  25.169  0.00  0.00    +0.006 A 
ATOM     11  C   UNL     1      -5.203   1.403  25.315  0.00  0.00    +0.013 A 
ATOM     12  C   UNL     1      -4.782   2.089  25.135  0.00  0.00    +0.041 A 
ATOM     13  C   UNL     1      -4.860   3.004  25.170  0.00  0.00    +0.058 C 
ATOM     14  C   UNL     1      -5.305   3.512  25.362  0.00  0.00    +0.011 C 
ATOM     15  C   UNL     1      -4.559   3.456  25.041  0.00  0.00    +0.043 C 
ATOM     16  C   UNL     1      -3.660   3.593  24.654  0.00  0.00    +0.095 C 
ATOM     17  N   UNL     1      -3.428   2.797  24.553  0.00  0.00    -0.279 N 
ATOM     18  C   UNL     1      -3.994   3.154  24.797  0.00  0.00    +0.099 C 
ATOM     19  C   UNL     1      -2.844   2.218  24.301  0.00  0.00    +0.225 C 
ATOM     20  O   UNL     1      -2.097   2.550  23.980  0.00  0.00    -0.275 OA
ATOM     27  C   UNL     1      -4.468   2.501  25.000  0.00  0.00    +0.110 C 
ATOM     28  N   UNL     1      -4.026   2.036  24.809  0.00  0.00    -0.299 N 
ATOM     29  C   UNL     1      -3.690   1.297  24.664  0.00  0.00    +0.261 A 
ATOM     30  O   UNL     1      -2.745   1.319  24.257  0.00  0.00    -0.267 OA
ENDROOT
BRANCH   9   6
ATOM      3  C   UNL     1      -2.991  -1.585  24.611  0.00  0.00    +0.025 A 
ATOM      4  C   UNL     1      -3.665  -1.517  25.081  0.00  0.00    +0.006 A 
ATOM      5  C   UNL     1      -4.034  -0.783  25.168  0.00  0.00    +0.001 A 
ATOM      6  C   UNL     1      -3.571   0.140  24.610  0.00  0.00    +0.005 A 
ATOM      7  C   UNL     1      -3.156  -0.362  24.433  0.00  0.00    +0.001 A 
ATOM      8  C   UNL     1      -2.684  -0.922  24.229  0.00  0.00    +0.006 A 
BRANCH   3   2
ATOM      1  C   UNL     1      -1.789  -2.591  24.473  0.00  0.00    +0.074 C 
ATOM      2  S   UNL     1      -2.612  -2.380  24.532  0.00  0.00    -0.113 S 
ENDBRANCH   3   2
ENDBRANCH   9   6
BRANCH  19  21
ATOM     21  C   UNL     1      -3.227   1.384  24.464  0.00  0.00    +0.077 C 
ATOM     22  C   UNL     1      -3.598   1.043  23.812  0.00  0.00    +0.009 C 
ATOM     23  C   UNL     1      -3.960   0.305  23.882  0.00  0.00    +0.000 C 
ATOM     24  C   UNL     1      -3.950  -0.092  24.605  0.00  0.00    +0.000 C 
ATOM     25  C   UNL     1      -3.579   0.250  25.258  0.00  0.00    +0.000 C 
ATOM     26  C   UNL     1      -3.218   0.989  25.188  0.00  0.00    +0.009 C 
ENDBRANCH  19  21
TORSDOF 3
ENDMDL
MODEL 3
REMARK VINA RESULT:     -15.1      2.213      4.115
REMARK  Name = 
REMARK  3 active torsions:
REMARK  status: ('A' for Active; 'I' for Inactive)
REMARK    1  A    between atoms: S_2  and  C_3
REMARK    2  A    between atoms: C_6  and  C_9
REMARK    3  A    between atoms: C_19  and  C_21
REMARK                            x       y       z     vdW  Elec       q    Type
REMARK                         _______ _______ _______ _____ _____    ______ ____
ROOT
ATOM      9  C   UNL     1      -3.079   2.125  24.617  0.00  0.00    +0.056 A 
ATOM     10  C   UNL     1      -3.718   2.685  24.911  0.00  0.00    +0.006 A 
ATOM     11  C   UNL     1      -3.437   3.431  25.123  0.00  0.00    +0.013 A 
ATOM     12  C   UNL     1      -2.634   3.604  25.055  0.00  0.00    +0.041 A 
ATOM     13  C   UNL     1      -2.037   4.289  25.196  0.00  0.00    +0.058 C 
ATOM     14  C   UNL     1      -2.004   4.953  25.419  0.00  0.00    +0.011 C 
ATOM     15  C   UNL     1      -1.490   4.385  25.142  0.00  0.00    +0.043 C 
ATOM     16  C   UNL     1      -0.724   3.842  24.834  0.00  0.00    +0.095 C 
ATOM     17  N   UNL     1      -1.122   3.130  24.652  0.00  0.00    -0.279 N 
ATOM     18  C   UNL     1      -1.287   3.777  24.901  0.00  0.00    +0.099 C 
ATOM     19  C   UNL     1      -1.103   2.318  24.370  0.00  0.00    +0.225 C 
ATOM     20  O   UNL     1      -0.311   2.016  24.140  0.00  0.00    -0.275 OA
ATOM     27  C   UNL     1      -2.106   3.664  24.992  0.00  0.00    +0.110 C 
ATOM     28  N   UNL     1      -2.111   3.031  24.775  0.00  0.00    -0.299 N 
ATOM     29  C   UNL     1      -2.391   2.285  24.563  0.00  0.00    +0.261 A 
ATOM     30  O   UNL     1      -1.673   1.630  24.224  0.00  0.00    -0.267 OA
ENDROOT
BRANCH   9   6
ATOM      3  C   UNL     1      -3.954  -0.212  24.234  0.00  0.00    +0.025 A 
ATOM      4  C   UNL     1      -4.419   0.300  24.683  0.00  0.00    +0.006 A 
ATOM      5  C   UNL     1      -4.162   1.071  24.827  0.00  0.00    +0.001 A 
ATOM      6  C   UNL     1      -3.130   1.404  24.378  0.00  0.00    +0.005 A 
ATOM      7  C   UNL     1      -3.182   0.766  24.169  0.00  0.00    +0.001 A 
ATOM      8  C   UNL     1      -3.232   0.046  23.929  0.00  0.00    +0.006 A 
BRANCH   3   2
ATOM      1  C   UNL     1      -3.868  -1.783  24.230  0.00  0.00    +0.074 C 
ATOM      2  S   UNL     1      -4.248  -1.033  24.092  0.00  0.00    -0.113 S 
ENDBRANCH   3   2
ENDBRANCH   9   6
BRANCH  19  21
ATOM     21  C   UNL     1      -1.984   2.016  24.406  0.00  0.00    +0.077 C 
ATOM     22  C   UNL     1      -2.397   2.078  23.695  0.00  0.00    +0.009 C 
ATOM     23  C   UNL     1      -3.184   1.830  23.653  0.00  0.00    +0.000 C 
ATOM     24  C   UNL     1      -3.556   1.521  24.321  0.00  0.00    +0.000 C 
ATOM     25  C   UNL     1      -3.142   1.460  25.032  0.00  0.00    +0.000 C 
ATOM     26  C   UNL     1      -2.356   1.708  25.075  0.00  0.00    +0.009 C 
ENDBRANCH  19  21
TORSDOF 3
ENDMDL
