MODEL 1
REMARK VINA RESULT:      -8.9      0.000      0.000
REMARK  Name = 
REMARK  7 active torsions:
REMARK  status: ('A' for Active; 'I' for Inactive)
REMARK    1  A    between atoms: C_2  and  C_3
REMARK    2  A    between atoms: C_2  and  C_30
REMARK    3  A    between atoms: C_12  and  C_13
REMARK    4  A    between atoms: C_13  and  S_14
REMARK    5  A    between atoms: S_14  and  C_17
REMARK    6  A    between atoms: N_32  and  C_34
REMARK    7  A    between atoms: C_34  and  C_35
REMARK                            x       y       z     vdW  Elec       q    Type
REMARK                         _______ _______ _______ _____ _____    ______ ____
ROOT
ATOM      3  C   UNL     1      -1.641   2.179  24.986  0.00  0.00    +0.039 C 
ATOM      4  C   UNL     1      -1.995   1.440  25.076  0.00  0.00    +0.003 C 
ATOM      5  C   UNL     1      -1.635   0.769  24.759  0.00  0.00    +0.001 C 
ATOM      6  C   UNL     1      -0.920   0.838  24.351  0.00  0.00    +0.007 C 
ATOM      7  C   UNL     1      -1.274   0.098  24.441  0.00  0.00    +0.000 C 
ATOM      8  C   UNL     1      -0.560   0.167  24.033  0.00  0.00    +0.034 C 
ATOM      9  C   UNL     1       0.154   0.236  23.626  0.00  0.00    +0.022 A 
ATOM     10  C   UNL     1       0.509   0.976  23.536  0.00  0.00    +0.061 A 
ATOM     11  N   UNL     1       1.208   0.874  23.110  0.00  0.00    -0.246 NA
ATOM     12  C   UNL     1       1.286   0.071  22.937  0.00  0.00    +0.112 A 
ATOM     24  S   UNL     1       0.635  -0.323  23.256  0.00  0.00    -0.074 S 
ATOM     25  C   UNL     1       0.148   1.647  23.854  0.00  0.00    +0.043 C 
ATOM     26  C   UNL     1       0.502   2.386  23.764  0.00  0.00    +0.006 C 
ATOM     27  C   UNL     1      -0.566   1.578  24.261  0.00  0.00    +0.036 C 
ATOM     28  C   UNL     1      -0.926   2.248  24.579  0.00  0.00    +0.153 C 
ATOM     29  O   UNL     1      -0.573   2.988  24.489  0.00  0.00    -0.223 OA
ENDROOT
BRANCH   3   2
ATOM      1  C   UNL     1      -1.618   3.283  25.893  0.00  0.00    +0.010 C 
ATOM      2  C   UNL     1      -2.001   2.850  25.304  0.00  0.00    +0.079 C 
BRANCH   2  30
ATOM     30  C   UNL     1      -2.742   3.089  25.033  0.00  0.00    +0.226 C 
ATOM     31  O   UNL     1      -2.931   3.018  24.232  0.00  0.00    -0.275 OA
ATOM     32  N   UNL     1      -3.296   3.397  25.561  0.00  0.00    -0.274 N 
ATOM     33  C   UNL     1      -3.107   3.468  26.361  0.00  0.00    +0.115 C 
BRANCH  32  34
ATOM     34  C   UNL     1      -4.037   3.636  25.291  0.00  0.00    +0.120 C 
BRANCH  34  35
ATOM     35  C   UNL     1      -4.675   3.672  25.812  0.00  0.00    -0.005 C 
ATOM     36  C   UNL     1      -5.441   3.761  25.521  0.00  0.00    -0.003 C 
ENDBRANCH  34  35
ENDBRANCH  32  34
ENDBRANCH   2  30
ENDBRANCH   3   2
BRANCH  12  13
ATOM     13  C   UNL     1       1.906  -0.276  22.519  0.00  0.00    +0.208 C 
BRANCH  13  14
ATOM     14  S   UNL     1       2.686  -0.136  22.746  0.00  0.00    +0.015 S 
ATOM     15  O   UNL     1       2.763   0.418  22.140  0.00  0.00    -0.168 OA
ATOM     16  O   UNL     1       2.609  -0.690  23.353  0.00  0.00    -0.168 OA
BRANCH  14  17
ATOM     17  C   UNL     1       3.467   0.004  22.974  0.00  0.00    +0.106 A 
ATOM     18  C   UNL     1       3.834   0.713  22.770  0.00  0.00    +0.019 A 
ATOM     19  C   UNL     1       4.616   0.854  22.998  0.00  0.00    +0.013 A 
ATOM     20  C   UNL     1       5.028   0.285  23.429  0.00  0.00    +0.058 A 
ATOM     21 CL   UNL     1       5.808   0.425  23.657  0.00  0.00    -0.082 Cl
ATOM     22  C   UNL     1       4.660  -0.425  23.634  0.00  0.00    +0.013 A 
ATOM     23  C   UNL     1       3.879  -0.566  23.406  0.00  0.00    +0.019 A 
ENDBRANCH  14  17
ENDBRANCH  13  14
ENDBRANCH  12  13
TORSDOF 7
ENDMDL
MODEL 2
REMARK VINA RESULT:      -8.2      1.320      1.803
REMARK  Name = 
REMARK  7 active torsions:
REMARK  status: ('A' for Active; 'I' for Inactive)
REMARK    1  A    between atoms: C_2  and  C_3
REMARK    2  A    between atoms: C_2  and  C_30
REMARK    3  A    between atoms: C_12  and  C_13
REMARK    4  A    between atoms: C_13  and  S_14
REMARK    5  A    between atoms: S_14  and  C_17
REMARK    6  A    between atoms: N_32  and  C_34
REMARK    7  A    between atoms: C_34  and  C_35
REMARK                            x       y       z     vdW  Elec       q    Type
REMARK                         _______ _______ _______ _____ _____    ______ ____
ROOT
ATOM      3  C   UNL     1      -1.701   0.844  24.787  0.00  0.00    +0.039 C 
ATOM      4  C   UNL     1      -1.367   1.557  25.031  0.00  0.00    +0.003 C 
ATOM      5  C   UNL     1      -0.607   1.762  24.786  0.00  0.00    +0.001 C 
ATOM      6  C   UNL     1      -0.180   1.253  24.296  0.00  0.00    +0.007 C 
ATOM      7  C   UNL     1       0.154   1.967  24.541  0.00  0.00    +0.000 C 
ATOM      8  C   UNL     1       0.581   1.459  24.051  0.00  0.00    +0.034 C 
ATOM      9  C   UNL     1       1.007   0.950  23.561  0.00  0.00    +0.022 A 
ATOM     10  C   UNL     1       0.673   0.236  23.316  0.00  0.00    +0.061 A 
ATOM     11  N   UNL     1       1.222  -0.151  22.837  0.00  0.00    -0.246 NA
ATOM     12  C   UNL     1       1.895   0.324  22.785  0.00  0.00    +0.112 A 
ATOM     24  S   UNL     1       1.762   1.004  23.233  0.00  0.00    -0.074 S 
ATOM     25  C   UNL     1      -0.087   0.032  23.562  0.00  0.00    +0.043 C 
ATOM     26  C   UNL     1      -0.421  -0.682  23.317  0.00  0.00    +0.006 C 
ATOM     27  C   UNL     1      -0.514   0.540  24.052  0.00  0.00    +0.036 C 
ATOM     28  C   UNL     1      -1.274   0.335  24.296  0.00  0.00    +0.153 C 
ATOM     29  O   UNL     1      -1.609  -0.379  24.052  0.00  0.00    -0.223 OA
ENDROOT
BRANCH   3   2
ATOM      1  C   UNL     1      -2.580  -0.045  25.479  0.00  0.00    +0.010 C 
ATOM      2  C   UNL     1      -2.462   0.639  25.032  0.00  0.00    +0.079 C 
BRANCH   2  30
ATOM     30  C   UNL     1      -3.103   1.115  24.831  0.00  0.00    +0.226 C 
ATOM     31  O   UNL     1      -2.978   1.835  24.445  0.00  0.00    -0.275 OA
ATOM     32  N   UNL     1      -3.871   0.875  25.015  0.00  0.00    -0.274 N 
ATOM     33  C   UNL     1      -3.996   0.156  25.401  0.00  0.00    +0.115 C 
BRANCH  32  34
ATOM     34  C   UNL     1      -4.513   1.351  24.814  0.00  0.00    +0.120 C 
BRANCH  34  35
ATOM     35  C   UNL     1      -5.256   1.202  25.138  0.00  0.00    -0.005 C 
ATOM     36  C   UNL     1      -5.873   1.736  25.020  0.00  0.00    -0.003 C 
ENDBRANCH  34  35
ENDBRANCH  32  34
ENDBRANCH   2  30
ENDBRANCH   3   2
BRANCH  12  13
ATOM     13  C   UNL     1       2.580   0.149  22.361  0.00  0.00    +0.208 C 
BRANCH  13  14
ATOM     14  S   UNL     1       3.298   0.056  22.757  0.00  0.00    +0.015 S 
ATOM     15  O   UNL     1       3.493   0.839  22.586  0.00  0.00    -0.168 OA
ATOM     16  O   UNL     1       3.103  -0.727  22.927  0.00  0.00    -0.168 OA
BRANCH  14  17
ATOM     17  C   UNL     1       4.016  -0.037  23.153  0.00  0.00    +0.106 A 
ATOM     18  C   UNL     1       4.557   0.584  23.175  0.00  0.00    +0.019 A 
ATOM     19  C   UNL     1       5.276   0.491  23.571  0.00  0.00    +0.013 A 
ATOM     20  C   UNL     1       5.451  -0.223  23.944  0.00  0.00    +0.058 A 
ATOM     21 CL   UNL     1       6.169  -0.316  24.340  0.00  0.00    -0.082 Cl
ATOM     22  C   UNL     1       4.910  -0.845  23.922  0.00  0.00    +0.013 A 
ATOM     23  C   UNL     1       4.191  -0.752  23.526  0.00  0.00    +0.019 A 
ENDBRANCH  14  17
ENDBRANCH  13  14
ENDBRANCH  12  13
TORSDOF 7
ENDMDL
MODEL 3
REMARK VINA RESULT:      -8.1      2.878      6.690
REMARK  Name = 
REMARK  7 active torsions:
REMARK  status: ('A' for Active; 'I' for Inactive)
REMARK    1  A    between atoms: C_2  and  C_3
REMARK    2  A    between atoms: C_2  and  C_30
REMARK    3  A    between atoms: C_12  and  C_13
REMARK    4  A    between atoms: C_13  and  S_14
REMARK    5  A    between atoms: S_14  and  C_17
REMARK    6  A    between atoms: N_32  and  C_34
REMARK    7  A    between atoms: C_34  and  C_35
REMARK                            x       y       z     vdW  Elec       q    Type
REMARK                         _______ _______ _______ _____ _____    ______ ____
ROOT
ATOM      3  C   UNL     1       0.354  -0.066  23.404  0.00  0.00    +0.039 C 
ATOM      4  C   UNL     1       0.439  -0.590  24.034  0.00  0.00    +0.003 C 
ATOM      5  C   UNL     1      -0.198  -0.741  24.535  0.00  0.00    +0.001 C 
ATOM      6  C   UNL     1      -0.923  -0.367  24.404  0.00  0.00    +0.007 C 
ATOM      7  C   UNL     1      -0.837  -0.892  25.036  0.00  0.00    +0.000 C 
ATOM      8  C   UNL     1      -1.561  -0.518  24.905  0.00  0.00    +0.034 C 
ATOM      9  C   UNL     1      -2.285  -0.144  24.775  0.00  0.00    +0.022 A 
ATOM     10  C   UNL     1      -2.371   0.381  24.144  0.00  0.00    +0.061 A 
ATOM     11  N   UNL     1      -3.145   0.665  24.152  0.00  0.00    -0.246 NA
ATOM     12  C   UNL     1      -3.538   0.316  24.789  0.00  0.00    +0.112 A 
ATOM     24  S   UNL     1      -3.006  -0.184  25.173  0.00  0.00    -0.074 S 
ATOM     25  C   UNL     1      -1.732   0.531  23.643  0.00  0.00    +0.043 C 
ATOM     26  C   UNL     1      -1.819   1.056  23.013  0.00  0.00    +0.006 C 
ATOM     27  C   UNL     1      -1.008   0.157  23.774  0.00  0.00    +0.036 C 
ATOM     28  C   UNL     1      -0.371   0.308  23.273  0.00  0.00    +0.153 C 
ATOM     29  O   UNL     1      -0.456   0.833  22.642  0.00  0.00    -0.223 OA
ENDROOT
BRANCH   3   2
ATOM      1  C   UNL     1       0.965  -0.161  22.115  0.00  0.00    +0.010 C 
ATOM      2  C   UNL     1       0.992   0.085  22.902  0.00  0.00    +0.079 C 
BRANCH   2  30
ATOM     30  C   UNL     1       1.656   0.482  23.187  0.00  0.00    +0.226 C 
ATOM     31  O   UNL     1       1.580   1.019  23.811  0.00  0.00    -0.275 OA
ATOM     32  N   UNL     1       2.396   0.343  22.851  0.00  0.00    -0.274 N 
ATOM     33  C   UNL     1       2.472  -0.193  22.228  0.00  0.00    +0.115 C 
BRANCH  32  34
ATOM     34  C   UNL     1       3.060   0.740  23.136  0.00  0.00    +0.120 C 
BRANCH  34  35
ATOM     35  C   UNL     1       3.786   0.662  22.749  0.00  0.00    -0.005 C 
ATOM     36  C   UNL     1       4.484   0.859  23.140  0.00  0.00    -0.003 C 
ENDBRANCH  34  35
ENDBRANCH  32  34
ENDBRANCH   2  30
ENDBRANCH   3   2
BRANCH  12  13
ATOM     13  C   UNL     1      -4.324   0.445  25.003  0.00  0.00    +0.208 C 
BRANCH  13  14
ATOM     14  S   UNL     1      -4.599   1.214  25.117  0.00  0.00    +0.015 S 
ATOM     15  O   UNL     1      -4.962   1.194  24.376  0.00  0.00    -0.168 OA
ATOM     16  O   UNL     1      -4.236   1.234  25.857  0.00  0.00    -0.168 OA
BRANCH  14  17
ATOM     17  C   UNL     1      -4.875   1.983  25.231  0.00  0.00    +0.106 A 
ATOM     18  C   UNL     1      -4.488   2.617  24.873  0.00  0.00    +0.019 A 
ATOM     19  C   UNL     1      -4.763   3.387  24.987  0.00  0.00    +0.013 A 
ATOM     20  C   UNL     1      -5.426   3.522  25.459  0.00  0.00    +0.058 A 
ATOM     21 CL   UNL     1      -5.701   4.291  25.574  0.00  0.00    -0.082 Cl
ATOM     22  C   UNL     1      -5.813   2.888  25.818  0.00  0.00    +0.013 A 
ATOM     23  C   UNL     1      -5.537   2.118  25.704  0.00  0.00    +0.019 A 
ENDBRANCH  14  17
ENDBRANCH  13  14
ENDBRANCH  12  13
TORSDOF 7
ENDMDL
MODEL 4
REMARK VINA RESULT:      -8.0      2.844      6.903
REMARK  Name = 
REMARK  7 active torsions:
REMARK  status: ('A' for Active; 'I' for Inactive)
REMARK    1  A    between atoms: C_2  and  C_3
REMARK    2  A    between atoms: C_2  and  C_30
REMARK    3  A    between atoms: C_12  and  C_13
REMARK    4  A    between atoms: C_13  and  S_14
REMARK    5  A    between atoms: S_14  and  C_17
REMARK    6  A    between atoms: N_32  and  C_34
REMARK    7  A    between atoms: C_34  and  C_35
REMARK                            x       y       z     vdW  Elec       q    Type
REMARK                         _______ _______ _______ _____ _____    ______ ____
ROOT
ATOM      3  C   UNL     1       0.542   1.203  23.891  0.00  0.00    +0.039 C 
ATOM      4  C   UNL     1       0.770   1.583  24.586  0.00  0.00    +0.003 C 
ATOM      5  C   UNL     1       0.244   2.086  24.973  0.00  0.00    +0.001 C 
ATOM      6  C   UNL     1      -0.513   2.208  24.665  0.00  0.00    +0.007 C 
ATOM      7  C   UNL     1      -0.284   2.589  25.361  0.00  0.00    +0.000 C 
ATOM      8  C   UNL     1      -1.039   2.711  25.053  0.00  0.00    +0.034 C 
ATOM      9  C   UNL     1      -1.795   2.834  24.745  0.00  0.00    +0.022 A 
ATOM     10  C   UNL     1      -2.024   2.453  24.049  0.00  0.00    +0.061 A 
ATOM     11  N   UNL     1      -2.799   2.679  23.878  0.00  0.00    -0.246 NA
ATOM     12  C   UNL     1      -3.049   3.199  24.469  0.00  0.00    +0.112 A 
ATOM     24  S   UNL     1      -2.428   3.294  25.004  0.00  0.00    -0.074 S 
ATOM     25  C   UNL     1      -1.497   1.950  23.662  0.00  0.00    +0.043 C 
ATOM     26  C   UNL     1      -1.726   1.570  22.967  0.00  0.00    +0.006 C 
ATOM     27  C   UNL     1      -0.741   1.828  23.970  0.00  0.00    +0.036 C 
ATOM     28  C   UNL     1      -0.215   1.325  23.583  0.00  0.00    +0.153 C 
ATOM     29  O   UNL     1      -0.443   0.945  22.887  0.00  0.00    -0.223 OA
ENDROOT
BRANCH   3   2
ATOM      1  C   UNL     1       0.838  -0.068  23.310  0.00  0.00    +0.010 C 
ATOM      2  C   UNL     1       1.069   0.700  23.503  0.00  0.00    +0.079 C 
BRANCH   2  30
ATOM     30  C   UNL     1       1.825   0.965  23.308  0.00  0.00    +0.226 C 
ATOM     31  O   UNL     1       2.035   1.751  23.447  0.00  0.00    -0.275 OA
ATOM     32  N   UNL     1       2.371   0.444  22.973  0.00  0.00    -0.274 N 
ATOM     33  C   UNL     1       2.160  -0.341  22.834  0.00  0.00    +0.115 C 
BRANCH  32  34
ATOM     34  C   UNL     1       3.127   0.709  22.778  0.00  0.00    +0.120 C 
BRANCH  34  35
ATOM     35  C   UNL     1       3.762   0.182  22.779  0.00  0.00    -0.005 C 
ATOM     36  C   UNL     1       4.535   0.467  22.800  0.00  0.00    -0.003 C 
ENDBRANCH  34  35
ENDBRANCH  32  34
ENDBRANCH   2  30
ENDBRANCH   3   2
BRANCH  12  13
ATOM     13  C   UNL     1      -3.789   3.559  24.514  0.00  0.00    +0.208 C 
BRANCH  13  14
ATOM     14  S   UNL     1      -4.415   3.171  24.886  0.00  0.00    +0.015 S 
ATOM     15  O   UNL     1      -4.648   2.854  24.161  0.00  0.00    -0.168 OA
ATOM     16  O   UNL     1      -4.181   3.488  25.611  0.00  0.00    -0.168 OA
BRANCH  14  17
ATOM     17  C   UNL     1      -5.040   2.782  25.257  0.00  0.00    +0.106 A 
ATOM     18  C   UNL     1      -5.293   3.027  26.003  0.00  0.00    +0.019 A 
ATOM     19  C   UNL     1      -5.920   2.638  26.374  0.00  0.00    +0.013 A 
ATOM     20  C   UNL     1      -6.292   2.004  26.000  0.00  0.00    +0.058 A 
ATOM     21 CL   UNL     1      -6.918   1.616  26.372  0.00  0.00    -0.082 Cl
ATOM     22  C   UNL     1      -6.039   1.759  25.254  0.00  0.00    +0.013 A 
ATOM     23  C   UNL     1      -5.412   2.148  24.882  0.00  0.00    +0.019 A 
ENDBRANCH  14  17
ENDBRANCH  13  14
ENDBRANCH  12  13
TORSDOF 7
ENDMDL
MODEL 5
REMARK VINA RESULT:      -7.5      2.985      6.462
REMARK  Name = 
REMARK  7 active torsions:
REMARK  status: ('A' for Active; 'I' for Inactive)
REMARK    1  A    between atoms: C_2  and  C_3
REMARK    2  A    between atoms: C_2  and  C_30
REMARK    3  A    between atoms: C_12  and  C_13
REMARK    4  A    between atoms: C_13  and  S_14
REMARK    5  A    between atoms: S_14  and  C_17
REMARK    6  A    between atoms: N_32  and  C_34
REMARK    7  A    between atoms: C_34  and  C_35
REMARK                            x       y       z     vdW  Elec       q    Type
REMARK                         _______ _______ _______ _____ _____    ______ ____
ROOT
ATOM      3  C   UNL     1       1.875   0.737  23.117  0.00  0.00    +0.039 C 
ATOM      4  C   UNL     1       1.803   1.506  23.407  0.00  0.00    +0.003 C 
ATOM      5  C   UNL     1       1.136   1.722  23.841  0.00  0.00    +0.001 C 
ATOM      6  C   UNL     1       0.541   1.168  23.987  0.00  0.00    +0.007 C 
ATOM      7  C   UNL     1       0.469   1.938  24.276  0.00  0.00    +0.000 C 
ATOM      8  C   UNL     1      -0.126   1.385  24.421  0.00  0.00    +0.034 C 
ATOM      9  C   UNL     1      -0.721   0.832  24.567  0.00  0.00    +0.022 A 
ATOM     10  C   UNL     1      -0.649   0.062  24.277  0.00  0.00    +0.061 A 
ATOM     11  N   UNL     1      -1.320  -0.360  24.506  0.00  0.00    -0.246 NA
ATOM     12  C   UNL     1      -1.806   0.149  24.937  0.00  0.00    +0.112 A 
ATOM     24  S   UNL     1      -1.436   0.885  24.974  0.00  0.00    -0.074 S 
ATOM     25  C   UNL     1       0.018  -0.153  23.842  0.00  0.00    +0.043 C 
ATOM     26  C   UNL     1       0.090  -0.922  23.553  0.00  0.00    +0.006 C 
ATOM     27  C   UNL     1       0.613   0.400  23.697  0.00  0.00    +0.036 C 
ATOM     28  C   UNL     1       1.280   0.184  23.263  0.00  0.00    +0.153 C 
ATOM     29  O   UNL     1       1.352  -0.586  22.973  0.00  0.00    -0.223 OA
ENDROOT
BRANCH   3   2
ATOM      1  C   UNL     1       2.463   0.028  22.025  0.00  0.00    +0.010 C 
ATOM      2  C   UNL     1       2.542   0.520  22.682  0.00  0.00    +0.079 C 
BRANCH   2  30
ATOM     30  C   UNL     1       3.287   0.796  22.904  0.00  0.00    +0.226 C 
ATOM     31  O   UNL     1       3.415   1.605  23.005  0.00  0.00    -0.275 OA
ATOM     32  N   UNL     1       3.905   0.263  23.025  0.00  0.00    -0.274 N 
ATOM     33  C   UNL     1       3.778  -0.546  22.924  0.00  0.00    +0.115 C 
BRANCH  32  34
ATOM     34  C   UNL     1       4.650   0.538  23.246  0.00  0.00    +0.120 C 
BRANCH  34  35
ATOM     35  C   UNL     1       5.236   0.005  23.477  0.00  0.00    -0.005 C 
ATOM     36  C   UNL     1       5.928   0.280  23.831  0.00  0.00    -0.003 C 
ENDBRANCH  34  35
ENDBRANCH  32  34
ENDBRANCH   2  30
ENDBRANCH   3   2
BRANCH  12  13
ATOM     13  C   UNL     1      -2.534  -0.046  25.272  0.00  0.00    +0.208 C 
BRANCH  13  14
ATOM     14  S   UNL     1      -2.980  -0.666  24.958  0.00  0.00    +0.015 S 
ATOM     15  O   UNL     1      -2.685  -1.171  25.539  0.00  0.00    -0.168 OA
ATOM     16  O   UNL     1      -3.275  -0.160  24.377  0.00  0.00    -0.168 OA
BRANCH  14  17
ATOM     17  C   UNL     1      -3.425  -1.285  24.645  0.00  0.00    +0.106 A 
ATOM     18  C   UNL     1      -4.018  -1.129  24.095  0.00  0.00    +0.019 A 
ATOM     19  C   UNL     1      -4.464  -1.749  23.781  0.00  0.00    +0.013 A 
ATOM     20  C   UNL     1      -4.316  -2.525  24.018  0.00  0.00    +0.058 A 
ATOM     21 CL   UNL     1      -4.761  -3.144  23.705  0.00  0.00    -0.082 Cl
ATOM     22  C   UNL     1      -3.722  -2.682  24.569  0.00  0.00    +0.013 A 
ATOM     23  C   UNL     1      -3.276  -2.061  24.883  0.00  0.00    +0.019 A 
ENDBRANCH  14  17
ENDBRANCH  13  14
ENDBRANCH  12  13
TORSDOF 7
ENDMDL
MODEL 6
REMARK VINA RESULT:      -6.8     17.409     18.502
REMARK  Name = 
REMARK  7 active torsions:
REMARK  status: ('A' for Active; 'I' for Inactive)
REMARK    1  A    between atoms: C_2  and  C_3
REMARK    2  A    between atoms: C_2  and  C_30
REMARK    3  A    between atoms: C_12  and  C_13
REMARK    4  A    between atoms: C_13  and  S_14
REMARK    5  A    between atoms: S_14  and  C_17
REMARK    6  A    between atoms: N_32  and  C_34
REMARK    7  A    between atoms: C_34  and  C_35
REMARK                            x       y       z     vdW  Elec       q    Type
REMARK                         _______ _______ _______ _____ _____    ______ ____
ROOT
ATOM      3  C   UNL     1      -7.719  -8.623   9.282  0.00  0.00    +0.039 C 
ATOM      4  C   UNL     1      -8.001  -8.597  10.056  0.00  0.00    +0.003 C 
ATOM      5  C   UNL     1      -7.543  -8.897  10.672  0.00  0.00    +0.001 C 
ATOM      6  C   UNL     1      -6.801  -9.224  10.514  0.00  0.00    +0.007 C 
ATOM      7  C   UNL     1      -7.083  -9.198  11.289  0.00  0.00    +0.000 C 
ATOM      8  C   UNL     1      -6.342  -9.524  11.131  0.00  0.00    +0.034 C 
ATOM      9  C   UNL     1      -5.601  -9.850  10.973  0.00  0.00    +0.022 A 
ATOM     10  C   UNL     1      -5.318  -9.876  10.197  0.00  0.00    +0.061 A 
ATOM     11  N   UNL     1      -4.572 -10.228  10.210  0.00  0.00    -0.246 NA
ATOM     12  C   UNL     1      -4.394 -10.420  10.993  0.00  0.00    +0.112 A 
ATOM     24  S   UNL     1      -5.030 -10.186  11.464  0.00  0.00    -0.074 S 
ATOM     25  C   UNL     1      -5.778  -9.576   9.581  0.00  0.00    +0.043 C 
ATOM     26  C   UNL     1      -5.495  -9.602   8.807  0.00  0.00    +0.006 C 
ATOM     27  C   UNL     1      -6.519  -9.250   9.740  0.00  0.00    +0.036 C 
ATOM     28  C   UNL     1      -6.977  -8.950   9.123  0.00  0.00    +0.153 C 
ATOM     29  O   UNL     1      -6.695  -8.976   8.348  0.00  0.00    -0.223 OA
ENDROOT
BRANCH   3   2
ATOM      1  C   UNL     1      -8.532  -8.838   8.127  0.00  0.00    +0.010 C 
ATOM      2  C   UNL     1      -8.177  -8.323   8.665  0.00  0.00    +0.079 C 
BRANCH   2  30
ATOM     30  C   UNL     1      -8.281  -7.509   8.585  0.00  0.00    +0.226 C 
ATOM     31  O   UNL     1      -7.626  -7.006   8.598  0.00  0.00    -0.275 OA
ATOM     32  N   UNL     1      -9.039  -7.196   8.494  0.00  0.00    -0.274 N 
ATOM     33  C   UNL     1      -9.693  -7.699   8.481  0.00  0.00    +0.115 C 
BRANCH  32  34
ATOM     34  C   UNL     1      -9.143  -6.382   8.414  0.00  0.00    +0.120 C 
BRANCH  34  35
ATOM     35  C   UNL     1      -9.903  -6.064   8.382  0.00  0.00    -0.005 C 
ATOM     36  C   UNL     1     -10.018  -5.255   8.494  0.00  0.00    -0.003 C 
ENDBRANCH  34  35
ENDBRANCH  32  34
ENDBRANCH   2  30
ENDBRANCH   3   2
BRANCH  12  13
ATOM     13  C   UNL     1      -3.702 -10.781  11.257  0.00  0.00    +0.208 C 
BRANCH  13  14
ATOM     14  S   UNL     1      -2.996 -10.354  11.279  0.00  0.00    +0.015 S 
ATOM     15  O   UNL     1      -2.757 -10.715  10.576  0.00  0.00    -0.168 OA
ATOM     16  O   UNL     1      -3.235  -9.994  11.981  0.00  0.00    -0.168 OA
BRANCH  14  17
ATOM     17  C   UNL     1      -2.290  -9.928  11.300  0.00  0.00    +0.106 A 
ATOM     18  C   UNL     1      -1.726 -10.092  11.878  0.00  0.00    +0.019 A 
ATOM     19  C   UNL     1      -1.020  -9.665  11.900  0.00  0.00    +0.013 A 
ATOM     20  C   UNL     1      -0.879  -9.074  11.342  0.00  0.00    +0.058 A 
ATOM     21 CL   UNL     1      -0.173  -8.648  11.363  0.00  0.00    -0.082 Cl
ATOM     22  C   UNL     1      -1.443  -8.909  10.763  0.00  0.00    +0.013 A 
ATOM     23  C   UNL     1      -2.149  -9.336  10.742  0.00  0.00    +0.019 A 
ENDBRANCH  14  17
ENDBRANCH  13  14
ENDBRANCH  12  13
TORSDOF 7
ENDMDL
MODEL 7
REMARK VINA RESULT:      -6.6     17.395     18.852
REMARK  Name = 
REMARK  7 active torsions:
REMARK  status: ('A' for Active; 'I' for Inactive)
REMARK    1  A    between atoms: C_2  and  C_3
REMARK    2  A    between atoms: C_2  and  C_30
REMARK    3  A    between atoms: C_12  and  C_13
REMARK    4  A    between atoms: C_13  and  S_14
REMARK    5  A    between atoms: S_14  and  C_17
REMARK    6  A    between atoms: N_32  and  C_34
REMARK    7  A    between atoms: C_34  and  C_35
REMARK                            x       y       z     vdW  Elec       q    Type
REMARK                         _______ _______ _______ _____ _____    ______ ____
ROOT
ATOM      3  C   UNL     1      -5.824 -10.096  12.354  0.00  0.00    +0.039 C 
ATOM      4  C   UNL     1      -6.470 -10.608  12.370  0.00  0.00    +0.003 C 
ATOM      5  C   UNL     1      -7.057 -10.550  11.794  0.00  0.00    +0.001 C 
ATOM      6  C   UNL     1      -6.999  -9.979  11.201  0.00  0.00    +0.007 C 
ATOM      7  C   UNL     1      -7.645 -10.492  11.218  0.00  0.00    +0.000 C 
ATOM      8  C   UNL     1      -7.587  -9.921  10.625  0.00  0.00    +0.034 C 
ATOM      9  C   UNL     1      -7.529  -9.350  10.032  0.00  0.00    +0.022 A 
ATOM     10  C   UNL     1      -6.882  -8.837  10.016  0.00  0.00    +0.061 A 
ATOM     11  N   UNL     1      -6.974  -8.333   9.368  0.00  0.00    -0.246 NA
ATOM     12  C   UNL     1      -7.676  -8.535   8.985  0.00  0.00    +0.112 A 
ATOM     24  S   UNL     1      -8.019  -9.164   9.396  0.00  0.00    -0.074 S 
ATOM     25  C   UNL     1      -6.295  -8.895  10.592  0.00  0.00    +0.043 C 
ATOM     26  C   UNL     1      -5.650  -8.382  10.575  0.00  0.00    +0.006 C 
ATOM     27  C   UNL     1      -6.353  -9.466  11.185  0.00  0.00    +0.036 C 
ATOM     28  C   UNL     1      -5.766  -9.524  11.760  0.00  0.00    +0.153 C 
ATOM     29  O   UNL     1      -5.120  -9.011  11.744  0.00  0.00    -0.223 OA
ENDROOT
BRANCH   3   2
ATOM      1  C   UNL     1      -4.457 -10.310  12.709  0.00  0.00    +0.010 C 
ATOM      2  C   UNL     1      -5.236 -10.153  12.930  0.00  0.00    +0.079 C 
BRANCH   2  30
ATOM     30  C   UNL     1      -5.427 -10.053  13.726  0.00  0.00    +0.226 C 
ATOM     31  O   UNL     1      -6.109  -9.639  13.938  0.00  0.00    -0.275 OA
ATOM     32  N   UNL     1      -4.936 -10.367  14.310  0.00  0.00    -0.274 N 
ATOM     33  C   UNL     1      -4.255 -10.781  14.098  0.00  0.00    +0.115 C 
BRANCH  32  34
ATOM     34  C   UNL     1      -5.127 -10.268  15.106  0.00  0.00    +0.120 C 
BRANCH  34  35
ATOM     35  C   UNL     1      -4.674 -10.638  15.689  0.00  0.00    -0.005 C 
ATOM     36  C   UNL     1      -4.759 -10.419  16.479  0.00  0.00    -0.003 C 
ENDBRANCH  34  35
ENDBRANCH  32  34
ENDBRANCH   2  30
ENDBRANCH   3   2
BRANCH  12  13
ATOM     13  C   UNL     1      -7.982  -8.172   8.311  0.00  0.00    +0.208 C 
BRANCH  13  14
ATOM     14  S   UNL     1      -8.405  -7.467   8.378  0.00  0.00    +0.015 S 
ATOM     15  O   UNL     1      -7.716  -7.039   8.230  0.00  0.00    -0.168 OA
ATOM     16  O   UNL     1      -9.095  -7.896   8.526  0.00  0.00    -0.168 OA
BRANCH  14  17
ATOM     17  C   UNL     1      -8.829  -6.763   8.445  0.00  0.00    +0.106 A 
ATOM     18  C   UNL     1      -8.444  -6.040   8.349  0.00  0.00    +0.019 A 
ATOM     19  C   UNL     1      -8.869  -5.334   8.416  0.00  0.00    +0.013 A 
ATOM     20  C   UNL     1      -9.677  -5.353   8.579  0.00  0.00    +0.058 A 
ATOM     21 CL   UNL     1     -10.100  -4.649   8.646  0.00  0.00    -0.082 Cl
ATOM     22  C   UNL     1     -10.062  -6.077   8.675  0.00  0.00    +0.013 A 
ATOM     23  C   UNL     1      -9.638  -6.782   8.607  0.00  0.00    +0.019 A 
ENDBRANCH  14  17
ENDBRANCH  13  14
ENDBRANCH  12  13
TORSDOF 7
ENDMDL
MODEL 8
REMARK VINA RESULT:      -6.4      3.165      5.349
REMARK  Name = 
REMARK  7 active torsions:
REMARK  status: ('A' for Active; 'I' for Inactive)
REMARK    1  A    between atoms: C_2  and  C_3
REMARK    2  A    between atoms: C_2  and  C_30
REMARK    3  A    between atoms: C_12  and  C_13
REMARK    4  A    between atoms: C_13  and  S_14
REMARK    5  A    between atoms: S_14  and  C_17
REMARK    6  A    between atoms: N_32  and  C_34
REMARK    7  A    between atoms: C_34  and  C_35
REMARK                            x       y       z     vdW  Elec       q    Type
REMARK                         _______ _______ _______ _____ _____    ______ ____
ROOT
ATOM      3  C   UNL     1      -1.333  -1.689  24.653  0.00  0.00    +0.039 C 
ATOM      4  C   UNL     1      -0.841  -1.728  23.993  0.00  0.00    +0.003 C 
ATOM      5  C   UNL     1      -0.392  -1.072  23.774  0.00  0.00    +0.001 C 
ATOM      6  C   UNL     1      -0.436  -0.376  24.215  0.00  0.00    +0.007 C 
ATOM      7  C   UNL     1       0.057  -0.415  23.554  0.00  0.00    +0.000 C 
ATOM      8  C   UNL     1       0.013   0.281  23.995  0.00  0.00    +0.034 C 
ATOM      9  C   UNL     1      -0.031   0.977  24.436  0.00  0.00    +0.022 A 
ATOM     10  C   UNL     1      -0.524   1.016  25.097  0.00  0.00    +0.061 A 
ATOM     11  N   UNL     1      -0.454   1.771  25.423  0.00  0.00    -0.246 NA
ATOM     12  C   UNL     1       0.082   2.198  24.963  0.00  0.00    +0.112 A 
ATOM     24  S   UNL     1       0.343   1.707  24.353  0.00  0.00    -0.074 S 
ATOM     25  C   UNL     1      -0.973   0.359  25.316  0.00  0.00    +0.043 C 
ATOM     26  C   UNL     1      -1.465   0.399  25.977  0.00  0.00    +0.006 C 
ATOM     27  C   UNL     1      -0.929  -0.336  24.875  0.00  0.00    +0.036 C 
ATOM     28  C   UNL     1      -1.377  -0.992  25.095  0.00  0.00    +0.153 C 
ATOM     29  O   UNL     1      -1.870  -0.954  25.755  0.00  0.00    -0.223 OA
ENDROOT
BRANCH   3   2
ATOM      1  C   UNL     1      -1.666  -2.696  25.611  0.00  0.00    +0.010 C 
ATOM      2  C   UNL     1      -1.782  -2.345  24.873  0.00  0.00    +0.079 C 
BRANCH   2  30
ATOM     30  C   UNL     1      -2.347  -2.652  24.357  0.00  0.00    +0.226 C 
ATOM     31  O   UNL     1      -2.123  -2.902  23.602  0.00  0.00    -0.275 OA
ATOM     32  N   UNL     1      -3.136  -2.708  24.593  0.00  0.00    -0.274 N 
ATOM     33  C   UNL     1      -3.359  -2.457  25.346  0.00  0.00    +0.115 C 
BRANCH  32  34
ATOM     34  C   UNL     1      -3.700  -3.014  24.076  0.00  0.00    +0.120 C 
BRANCH  34  35
ATOM     35  C   UNL     1      -4.416  -2.618  23.964  0.00  0.00    -0.005 C 
ATOM     36  C   UNL     1      -4.930  -2.855  23.365  0.00  0.00    -0.003 C 
ENDBRANCH  34  35
ENDBRANCH  32  34
ENDBRANCH   2  30
ENDBRANCH   3   2
BRANCH  12  13
ATOM     13  C   UNL     1       0.316   2.979  25.091  0.00  0.00    +0.208 C 
BRANCH  13  14
ATOM     14  S   UNL     1      -0.249   3.580  25.110  0.00  0.00    +0.015 S 
ATOM     15  O   UNL     1      -0.277   3.527  25.933  0.00  0.00    -0.168 OA
ATOM     16  O   UNL     1      -0.221   3.633  24.287  0.00  0.00    -0.168 OA
BRANCH  14  17
ATOM     17  C   UNL     1      -0.813   4.181  25.130  0.00  0.00    +0.106 A 
ATOM     18  C   UNL     1      -1.546   4.047  25.483  0.00  0.00    +0.019 A 
ATOM     19  C   UNL     1      -2.111   4.649  25.503  0.00  0.00    +0.013 A 
ATOM     20  C   UNL     1      -1.942   5.384  25.169  0.00  0.00    +0.058 A 
ATOM     21 CL   UNL     1      -2.507   5.985  25.189  0.00  0.00    -0.082 Cl
ATOM     22  C   UNL     1      -1.209   5.518  24.816  0.00  0.00    +0.013 A 
ATOM     23  C   UNL     1      -0.644   4.916  24.796  0.00  0.00    +0.019 A 
ENDBRANCH  14  17
ENDBRANCH  13  14
ENDBRANCH  12  13
TORSDOF 7
ENDMDL
MODEL 9
REMARK VINA RESULT:      -5.4     16.820     18.026
REMARK  Name = 
REMARK  7 active torsions:
REMARK  status: ('A' for Active; 'I' for Inactive)
REMARK    1  A    between atoms: C_2  and  C_3
REMARK    2  A    between atoms: C_2  and  C_30
REMARK    3  A    between atoms: C_12  and  C_13
REMARK    4  A    between atoms: C_13  and  S_14
REMARK    5  A    between atoms: S_14  and  C_17
REMARK    6  A    between atoms: N_32  and  C_34
REMARK    7  A    between atoms: C_34  and  C_35
REMARK                            x       y       z     vdW  Elec       q    Type
REMARK                         _______ _______ _______ _____ _____    ______ ____
ROOT
ATOM      3  C   UNL     1      -6.727  -8.758   9.811  0.00  0.00    +0.039 C 
ATOM      4  C   UNL     1      -6.973  -8.861  10.591  0.00  0.00    +0.003 C 
ATOM      5  C   UNL     1      -6.442  -9.140  11.157  0.00  0.00    +0.001 C 
ATOM      6  C   UNL     1      -5.664  -9.316  10.942  0.00  0.00    +0.007 C 
ATOM      7  C   UNL     1      -5.910  -9.419  11.724  0.00  0.00    +0.000 C 
ATOM      8  C   UNL     1      -5.133  -9.595  11.509  0.00  0.00    +0.034 C 
ATOM      9  C   UNL     1      -4.356  -9.771  11.294  0.00  0.00    +0.022 A 
ATOM     10  C   UNL     1      -4.110  -9.667  10.513  0.00  0.00    +0.061 A 
ATOM     11  N   UNL     1      -3.316  -9.885  10.465  0.00  0.00    -0.246 NA
ATOM     12  C   UNL     1      -3.071 -10.123  11.217  0.00  0.00    +0.112 A 
ATOM     24  S   UNL     1      -3.714 -10.052  11.729  0.00  0.00    -0.074 S 
ATOM     25  C   UNL     1      -4.642  -9.388   9.948  0.00  0.00    +0.043 C 
ATOM     26  C   UNL     1      -4.395  -9.285   9.167  0.00  0.00    +0.006 C 
ATOM     27  C   UNL     1      -5.419  -9.212  10.162  0.00  0.00    +0.036 C 
ATOM     28  C   UNL     1      -5.949  -8.933   9.596  0.00  0.00    +0.153 C 
ATOM     29  O   UNL     1      -5.704  -8.830   8.815  0.00  0.00    -0.223 OA
ENDROOT
BRANCH   3   2
ATOM      1  C   UNL     1      -7.135  -7.743   8.892  0.00  0.00    +0.010 C 
ATOM      2  C   UNL     1      -7.258  -8.478   9.245  0.00  0.00    +0.079 C 
BRANCH   2  30
ATOM     30  C   UNL     1      -7.911  -8.934   9.030  0.00  0.00    +0.226 C 
ATOM     31  O   UNL     1      -7.828  -9.748   8.921  0.00  0.00    -0.275 OA
ATOM     32  N   UNL     1      -8.647  -8.577   8.925  0.00  0.00    -0.274 N 
ATOM     33  C   UNL     1      -8.730  -7.763   9.034  0.00  0.00    +0.115 C 
BRANCH  32  34
ATOM     34  C   UNL     1      -9.300  -9.032   8.711  0.00  0.00    +0.120 C 
BRANCH  34  35
ATOM     35  C   UNL     1     -10.036  -8.675   8.602  0.00  0.00    -0.005 C 
ATOM     36  C   UNL     1     -10.717  -9.137   8.558  0.00  0.00    -0.003 C 
ENDBRANCH  34  35
ENDBRANCH  32  34
ENDBRANCH   2  30
ENDBRANCH   3   2
BRANCH  12  13
ATOM     13  C   UNL     1      -2.316 -10.386  11.419  0.00  0.00    +0.208 C 
BRANCH  13  14
ATOM     14  S   UNL     1      -1.712  -9.840  11.556  0.00  0.00    +0.015 S 
ATOM     15  O   UNL     1      -1.623  -9.734  10.743  0.00  0.00    -0.168 OA
ATOM     16  O   UNL     1      -1.802  -9.945  12.370  0.00  0.00    -0.168 OA
BRANCH  14  17
ATOM     17  C   UNL     1      -1.109  -9.294  11.693  0.00  0.00    +0.106 A 
ATOM     18  C   UNL     1      -0.593  -9.089  11.085  0.00  0.00    +0.019 A 
ATOM     19  C   UNL     1       0.011  -8.543  11.222  0.00  0.00    +0.013 A 
ATOM     20  C   UNL     1       0.097  -8.202  11.968  0.00  0.00    +0.058 A 
ATOM     21 CL   UNL     1       0.701  -7.657  12.105  0.00  0.00    -0.082 Cl
ATOM     22  C   UNL     1      -0.420  -8.407  12.578  0.00  0.00    +0.013 A 
ATOM     23  C   UNL     1      -1.024  -8.953  12.440  0.00  0.00    +0.019 A 
ENDBRANCH  14  17
ENDBRANCH  13  14
ENDBRANCH  12  13
TORSDOF 7
ENDMDL
MODEL 10
REMARK VINA RESULT:      -5.3     17.929     18.886
REMARK  Name = 
REMARK  7 active torsions:
REMARK  status: ('A' for Active; 'I' for Inactive)
REMARK    1  A    between atoms: C_2  and  C_3
REMARK    2  A    between atoms: C_2  and  C_30
REMARK    3  A    between atoms: C_12  and  C_13
REMARK    4  A    between atoms: C_13  and  S_14
REMARK    5  A    between atoms: S_14  and  C_17
REMARK    6  A    between atoms: N_32  and  C_34
REMARK    7  A    between atoms: C_34  and  C_35
REMARK                            x       y       z     vdW  Elec       q    Type
REMARK                         _______ _______ _______ _____ _____    ______ ____
ROOT
ATOM      3  C   UNL     1      -8.508  -7.549   8.712  0.00  0.00    +0.039 C 
ATOM      4  C   UNL     1      -7.951  -7.400   8.124  0.00  0.00    +0.003 C 
ATOM      5  C   UNL     1      -7.231  -7.803   8.126  0.00  0.00    +0.001 C 
ATOM      6  C   UNL     1      -7.069  -8.355   8.719  0.00  0.00    +0.007 C 
ATOM      7  C   UNL     1      -6.511  -8.206   8.129  0.00  0.00    +0.000 C 
ATOM      8  C   UNL     1      -6.349  -8.757   8.721  0.00  0.00    +0.034 C 
ATOM      9  C   UNL     1      -6.186  -9.308   9.313  0.00  0.00    +0.022 A 
ATOM     10  C   UNL     1      -6.745  -9.457   9.903  0.00  0.00    +0.061 A 
ATOM     11  N   UNL     1      -6.432 -10.027  10.411  0.00  0.00    -0.246 NA
ATOM     12  C   UNL     1      -5.681 -10.231  10.136  0.00  0.00    +0.112 A 
ATOM     24  S   UNL     1      -5.530  -9.786   9.457  0.00  0.00    -0.074 S 
ATOM     25  C   UNL     1      -7.464  -9.054   9.899  0.00  0.00    +0.043 C 
ATOM     26  C   UNL     1      -8.022  -9.203  10.489  0.00  0.00    +0.006 C 
ATOM     27  C   UNL     1      -7.627  -8.503   9.307  0.00  0.00    +0.036 C 
ATOM     28  C   UNL     1      -8.346  -8.101   9.305  0.00  0.00    +0.153 C 
ATOM     29  O   UNL     1      -8.905  -8.249   9.894  0.00  0.00    -0.223 OA
ENDROOT
BRANCH   3   2
ATOM      1  C   UNL     1      -9.936  -7.568   8.760  0.00  0.00    +0.010 C 
ATOM      2  C   UNL     1      -9.229  -7.146   8.710  0.00  0.00    +0.079 C 
BRANCH   2  30
ATOM     30  C   UNL     1      -9.242  -6.324   8.659  0.00  0.00    +0.226 C 
ATOM     31  O   UNL     1      -8.534  -5.902   8.598  0.00  0.00    -0.275 OA
ATOM     32  N   UNL     1      -9.962  -5.920   8.668  0.00  0.00    -0.274 N 
ATOM     33  C   UNL     1     -10.669  -6.341   8.728  0.00  0.00    +0.115 C 
BRANCH  32  34
ATOM     34  C   UNL     1      -9.975  -5.098   8.616  0.00  0.00    +0.120 C 
BRANCH  34  35
ATOM     35  C   UNL     1     -10.597  -4.673   8.953  0.00  0.00    -0.005 C 
ATOM     36  C   UNL     1     -10.540  -3.855   9.038  0.00  0.00    -0.003 C 
ENDBRANCH  34  35
ENDBRANCH  32  34
ENDBRANCH   2  30
ENDBRANCH   3   2
BRANCH  12  13
ATOM     13  C   UNL     1      -5.172 -10.781  10.479  0.00  0.00    +0.208 C 
BRANCH  13  14
ATOM     14  S   UNL     1      -4.421 -10.549  10.728  0.00  0.00    +0.015 S 
ATOM     15  O   UNL     1      -4.138 -10.637   9.958  0.00  0.00    -0.168 OA
ATOM     16  O   UNL     1      -4.704 -10.460  11.498  0.00  0.00    -0.168 OA
BRANCH  14  17
ATOM     17  C   UNL     1      -3.670 -10.316  10.977  0.00  0.00    +0.106 A 
ATOM     18  C   UNL     1      -3.193  -9.862  10.481  0.00  0.00    +0.019 A 
ATOM     19  C   UNL     1      -2.441  -9.630  10.731  0.00  0.00    +0.013 A 
ATOM     20  C   UNL     1      -2.167  -9.852  11.476  0.00  0.00    +0.058 A 
ATOM     21 CL   UNL     1      -1.416  -9.619  11.725  0.00  0.00    -0.082 Cl
ATOM     22  C   UNL     1      -2.644 -10.306  11.973  0.00  0.00    +0.013 A 
ATOM     23  C   UNL     1      -3.396 -10.539  11.723  0.00  0.00    +0.019 A 
ENDBRANCH  14  17
ENDBRANCH  13  14
ENDBRANCH  12  13
TORSDOF 7
ENDMDL
