MODEL 1
REMARK VINA RESULT:      -9.8      0.000      0.000
REMARK  Name = 
REMARK  4 active torsions:
REMARK  status: ('A' for Active; 'I' for Inactive)
REMARK    1  A    between atoms: O_2  and  C_3
REMARK    2  A    between atoms: C_8  and  C_10
REMARK    3  A    between atoms: N_13  and  C_14
REMARK    4  A    between atoms: C_14  and  C_15
REMARK                            x       y       z     vdW  Elec       q    Type
REMARK                         _______ _______ _______ _____ _____    ______ ____
ROOT
ATOM      3  C   UNL     1      -3.494  -1.992  24.773  0.00  0.00    +0.140 A 
ATOM      4  C   UNL     1      -3.391  -1.311  25.226  0.00  0.00    +0.058 A 
ATOM      5  C   UNL     1      -3.759  -0.607  25.002  0.00  0.00    +0.103 A 
ATOM      6  C   UNL     1      -4.230  -0.585  24.325  0.00  0.00    +0.100 A 
ATOM      7  N   UNL     1      -4.520   0.182  24.242  0.00  0.00    -0.229 NA
ATOM      8  C   UNL     1      -4.230   0.634  24.867  0.00  0.00    +0.140 A 
ATOM      9  N   UNL     1      -3.759   0.146  25.337  0.00  0.00    -0.229 NA
ATOM     19  C   UNL     1      -4.333  -1.267  23.872  0.00  0.00    +0.024 A 
ATOM     20  C   UNL     1      -3.965  -1.970  24.096  0.00  0.00    +0.039 A 
ENDROOT
BRANCH   8  10
ATOM     10  C   UNL     1      -4.383   1.434  24.999  0.00  0.00    +0.076 C 
ATOM     11  C   UNL     1      -5.065   1.748  25.339  0.00  0.00    +0.026 C 
ATOM     12  C   UNL     1      -4.985   2.568  25.366  0.00  0.00    +0.073 C 
ATOM     13  N   UNL     1      -4.252   2.762  25.042  0.00  0.00    -0.272 NA
ATOM     18  C   UNL     1      -3.879   2.061  24.815  0.00  0.00    +0.080 C 
BRANCH  13  14
ATOM     14  C   UNL     1      -3.944   3.523  24.958  0.00  0.00    +0.072 C 
BRANCH  14  15
ATOM     15  C   UNL     1      -3.357   3.790  25.474  0.00  0.00    +0.016 C 
ATOM     16  C   UNL     1      -2.561   3.855  25.677  0.00  0.00    +0.001 C 
ATOM     17  C   UNL     1      -3.139   4.188  26.162  0.00  0.00    +0.001 C 
ENDBRANCH  14  15
ENDBRANCH  13  14
ENDBRANCH   8  10
BRANCH   3   2
ATOM      1  C   UNL     1      -2.426  -2.931  24.628  0.00  0.00    +0.252 C 
ATOM      2  O   UNL     1      -3.126  -2.695  24.996  0.00  0.00    -0.471 OA
ENDBRANCH   3   2
TORSDOF 4
ENDMDL
MODEL 2
REMARK VINA RESULT:      -9.7      1.073      1.496
REMARK  Name = 
REMARK  4 active torsions:
REMARK  status: ('A' for Active; 'I' for Inactive)
REMARK    1  A    between atoms: O_2  and  C_3
REMARK    2  A    between atoms: C_8  and  C_10
REMARK    3  A    between atoms: N_13  and  C_14
REMARK    4  A    between atoms: C_14  and  C_15
REMARK                            x       y       z     vdW  Elec       q    Type
REMARK                         _______ _______ _______ _____ _____    ______ ____
ROOT
ATOM      3  C   UNL     1      -3.285  -1.138  24.446  0.00  0.00    +0.140 A 
ATOM      4  C   UNL     1      -2.793  -0.478  24.504  0.00  0.00    +0.058 A 
ATOM      5  C   UNL     1      -3.120   0.277  24.559  0.00  0.00    +0.103 A 
ATOM      6  C   UNL     1      -3.939   0.373  24.557  0.00  0.00    +0.100 A 
ATOM      7  N   UNL     1      -4.102   1.179  24.618  0.00  0.00    -0.229 NA
ATOM      8  C   UNL     1      -3.384   1.582  24.659  0.00  0.00    +0.140 A 
ATOM      9  N   UNL     1      -2.777   1.024  24.622  0.00  0.00    -0.229 NA
ATOM     19  C   UNL     1      -4.432  -0.287  24.499  0.00  0.00    +0.024 A 
ATOM     20  C   UNL     1      -4.104  -1.042  24.443  0.00  0.00    +0.039 A 
ENDROOT
BRANCH   8  10
ATOM     10  C   UNL     1      -3.289   2.399  24.724  0.00  0.00    +0.076 C 
ATOM     11  C   UNL     1      -3.647   2.968  24.248  0.00  0.00    +0.026 C 
ATOM     12  C   UNL     1      -3.398   3.712  24.506  0.00  0.00    +0.073 C 
ATOM     13  N   UNL     1      -2.886   3.601  25.143  0.00  0.00    -0.272 NA
ATOM     18  C   UNL     1      -2.818   2.789  25.278  0.00  0.00    +0.080 C 
BRANCH  13  14
ATOM     14  C   UNL     1      -2.508   4.196  25.571  0.00  0.00    +0.072 C 
BRANCH  14  15
ATOM     15  C   UNL     1      -1.790   4.504  25.304  0.00  0.00    +0.016 C 
ATOM     16  C   UNL     1      -0.995   4.400  25.116  0.00  0.00    +0.001 C 
ATOM     17  C   UNL     1      -1.345   5.143  25.031  0.00  0.00    +0.001 C 
ENDBRANCH  14  15
ENDBRANCH  13  14
ENDBRANCH   8  10
BRANCH   3   2
ATOM      1  C   UNL     1      -3.325  -2.530  24.764  0.00  0.00    +0.252 C 
ATOM      2  O   UNL     1      -2.958  -1.892  24.390  0.00  0.00    -0.471 OA
ENDBRANCH   3   2
TORSDOF 4
ENDMDL
MODEL 3
REMARK VINA RESULT:      -9.5      1.869      4.713
REMARK  Name = 
REMARK  4 active torsions:
REMARK  status: ('A' for Active; 'I' for Inactive)
REMARK    1  A    between atoms: O_2  and  C_3
REMARK    2  A    between atoms: C_8  and  C_10
REMARK    3  A    between atoms: N_13  and  C_14
REMARK    4  A    between atoms: C_14  and  C_15
REMARK                            x       y       z     vdW  Elec       q    Type
REMARK                         _______ _______ _______ _____ _____    ______ ____
ROOT
ATOM      3  C   UNL     1      -1.962   3.797  25.222  0.00  0.00    +0.140 A 
ATOM      4  C   UNL     1      -1.900   2.975  25.230  0.00  0.00    +0.058 A 
ATOM      5  C   UNL     1      -2.553   2.509  25.037  0.00  0.00    +0.103 A 
ATOM      6  C   UNL     1      -3.269   2.866  24.836  0.00  0.00    +0.100 A 
ATOM      7  N   UNL     1      -3.814   2.270  24.672  0.00  0.00    -0.229 NA
ATOM      8  C   UNL     1      -3.435   1.544  24.771  0.00  0.00    +0.140 A 
ATOM      9  N   UNL     1      -2.656   1.692  24.997  0.00  0.00    -0.229 NA
ATOM     19  C   UNL     1      -3.332   3.689  24.828  0.00  0.00    +0.024 A 
ATOM     20  C   UNL     1      -2.678   4.154  25.022  0.00  0.00    +0.039 A 
ENDROOT
BRANCH   8  10
ATOM     10  C   UNL     1      -3.776   0.800  24.664  0.00  0.00    +0.076 C 
ATOM     11  C   UNL     1      -4.446   0.513  25.050  0.00  0.00    +0.026 C 
ATOM     12  C   UNL     1      -4.591  -0.252  24.777  0.00  0.00    +0.073 C 
ATOM     13  N   UNL     1      -4.011  -0.437  24.221  0.00  0.00    -0.272 NA
ATOM     18  C   UNL     1      -3.507   0.213  24.151  0.00  0.00    +0.080 C 
BRANCH  13  14
ATOM     14  C   UNL     1      -3.945  -1.148  23.807  0.00  0.00    +0.072 C 
BRANCH  14  15
ATOM     15  C   UNL     1      -3.629  -1.814  24.178  0.00  0.00    +0.016 C 
ATOM     16  C   UNL     1      -3.735  -2.539  24.556  0.00  0.00    +0.001 C 
ATOM     17  C   UNL     1      -2.974  -2.241  24.440  0.00  0.00    +0.001 C 
ENDBRANCH  14  15
ENDBRANCH  13  14
ENDBRANCH   8  10
BRANCH   3   2
ATOM      1  C   UNL     1      -1.189   4.984  25.034  0.00  0.00    +0.252 C 
ATOM      2  O   UNL     1      -1.310   4.262  25.416  0.00  0.00    -0.471 OA
ENDBRANCH   3   2
TORSDOF 4
ENDMDL
MODEL 4
REMARK VINA RESULT:      -9.5      1.664      4.581
REMARK  Name = 
REMARK  4 active torsions:
REMARK  status: ('A' for Active; 'I' for Inactive)
REMARK    1  A    between atoms: O_2  and  C_3
REMARK    2  A    between atoms: C_8  and  C_10
REMARK    3  A    between atoms: N_13  and  C_14
REMARK    4  A    between atoms: C_14  and  C_15
REMARK                            x       y       z     vdW  Elec       q    Type
REMARK                         _______ _______ _______ _____ _____    ______ ____
ROOT
ATOM      3  C   UNL     1      -4.644   2.992  25.123  0.00  0.00    +0.140 A 
ATOM      4  C   UNL     1      -4.103   2.438  24.840  0.00  0.00    +0.058 A 
ATOM      5  C   UNL     1      -4.289   1.634  24.853  0.00  0.00    +0.103 A 
ATOM      6  C   UNL     1      -5.018   1.385  25.149  0.00  0.00    +0.100 A 
ATOM      7  N   UNL     1      -5.049   0.563  25.093  0.00  0.00    -0.229 NA
ATOM      8  C   UNL     1      -4.340   0.304  24.761  0.00  0.00    +0.140 A 
ATOM      9  N   UNL     1      -3.871   0.966  24.613  0.00  0.00    -0.229 NA
ATOM     19  C   UNL     1      -5.559   1.940  25.433  0.00  0.00    +0.024 A 
ATOM     20  C   UNL     1      -5.372   2.743  25.420  0.00  0.00    +0.039 A 
ENDROOT
BRANCH   8  10
ATOM     10  C   UNL     1      -4.135  -0.480  24.605  0.00  0.00    +0.076 C 
ATOM     11  C   UNL     1      -4.405  -0.935  23.972  0.00  0.00    +0.026 C 
ATOM     12  C   UNL     1      -4.062  -1.683  24.029  0.00  0.00    +0.073 C 
ATOM     13  N   UNL     1      -3.580  -1.691  24.699  0.00  0.00    -0.272 NA
ATOM     18  C   UNL     1      -3.625  -0.947  25.054  0.00  0.00    +0.080 C 
BRANCH  13  14
ATOM     14  C   UNL     1      -3.131  -2.329  24.966  0.00  0.00    +0.072 C 
BRANCH  14  15
ATOM     15  C   UNL     1      -2.336  -2.392  24.755  0.00  0.00    +0.016 C 
ATOM     16  C   UNL     1      -1.540  -2.257  24.922  0.00  0.00    +0.001 C 
ATOM     17  C   UNL     1      -1.756  -2.637  24.222  0.00  0.00    +0.001 C 
ENDBRANCH  14  15
ENDBRANCH  13  14
ENDBRANCH   8  10
BRANCH   3   2
ATOM      1  C   UNL     1      -3.837   4.083  25.572  0.00  0.00    +0.252 C 
ATOM      2  O   UNL     1      -4.457   3.795  25.110  0.00  0.00    -0.471 OA
ENDBRANCH   3   2
TORSDOF 4
ENDMDL
MODEL 5
REMARK VINA RESULT:      -9.2      2.501      5.126
REMARK  Name = 
REMARK  4 active torsions:
REMARK  status: ('A' for Active; 'I' for Inactive)
REMARK    1  A    between atoms: O_2  and  C_3
REMARK    2  A    between atoms: C_8  and  C_10
REMARK    3  A    between atoms: N_13  and  C_14
REMARK    4  A    between atoms: C_14  and  C_15
REMARK                            x       y       z     vdW  Elec       q    Type
REMARK                         _______ _______ _______ _____ _____    ______ ____
ROOT
ATOM      3  C   UNL     1      -1.274   3.330  25.451  0.00  0.00    +0.140 A 
ATOM      4  C   UNL     1      -1.830   2.769  25.215  0.00  0.00    +0.058 A 
ATOM      5  C   UNL     1      -1.653   1.965  25.264  0.00  0.00    +0.103 A 
ATOM      6  C   UNL     1      -0.917   1.722  25.549  0.00  0.00    +0.100 A 
ATOM      7  N   UNL     1      -0.898   0.898  25.534  0.00  0.00    -0.229 NA
ATOM      8  C   UNL     1      -1.620   0.631  25.240  0.00  0.00    +0.140 A 
ATOM      9  N   UNL     1      -2.086   1.291  25.073  0.00  0.00    -0.229 NA
ATOM     19  C   UNL     1      -0.360   2.284  25.786  0.00  0.00    +0.024 A 
ATOM     20  C   UNL     1      -0.539   3.087  25.736  0.00  0.00    +0.039 A 
ENDROOT
BRANCH   8  10
ATOM     10  C   UNL     1      -1.839  -0.157  25.132  0.00  0.00    +0.076 C 
ATOM     11  C   UNL     1      -1.356  -0.758  24.838  0.00  0.00    +0.026 C 
ATOM     12  C   UNL     1      -1.796  -1.456  24.823  0.00  0.00    +0.073 C 
ATOM     13  N   UNL     1      -2.552  -1.286  25.107  0.00  0.00    -0.272 NA
ATOM     18  C   UNL     1      -2.578  -0.483  25.298  0.00  0.00    +0.080 C 
BRANCH  13  14
ATOM     14  C   UNL     1      -3.172  -1.823  25.187  0.00  0.00    +0.072 C 
BRANCH  14  15
ATOM     15  C   UNL     1      -3.642  -2.012  24.535  0.00  0.00    +0.016 C 
ATOM     16  C   UNL     1      -4.209  -1.796  23.977  0.00  0.00    +0.001 C 
ATOM     17  C   UNL     1      -3.886  -2.556  23.965  0.00  0.00    +0.001 C 
ENDBRANCH  14  15
ENDBRANCH  13  14
ENDBRANCH   8  10
BRANCH   3   2
ATOM      1  C   UNL     1      -0.944   4.646  25.004  0.00  0.00    +0.252 C 
ATOM      2  O   UNL     1      -1.453   4.133  25.402  0.00  0.00    -0.471 OA
ENDBRANCH   3   2
TORSDOF 4
ENDMDL
