MODEL 1
REMARK VINA RESULT:     -12.3      0.000      0.000
REMARK  Name = 
REMARK  5 active torsions:
REMARK  status: ('A' for Active; 'I' for Inactive)
REMARK    1  A    between atoms: C_2  and  N_3
REMARK    2  A    between atoms: N_6  and  C_7
REMARK    3  A    between atoms: C_13  and  N_16
REMARK    4  A    between atoms: C_19  and  C_20
REMARK    5  A    between atoms: C_20  and  C_21
REMARK                            x       y       z     vdW  Elec       q    Type
REMARK                         _______ _______ _______ _____ _____    ______ ____
ROOT
ATOM      7  C   UNL     1      -3.361   2.723  25.091  0.00  0.00    +0.158 C 
ATOM      8  C   UNL     1      -4.189   2.628  24.680  0.00  0.00    +0.170 C 
ATOM      9  C   UNL     1      -4.385   1.898  24.496  0.00  0.00    +0.176 C 
ATOM     10  O   UNL     1      -4.892   1.471  24.199  0.00  0.00    -0.327 OA
ATOM     11  C   UNL     1      -4.517   2.222  24.472  0.00  0.00    +0.253 C 
ATOM     12  O   UNL     1      -4.744   3.015  24.460  0.00  0.00    -0.327 OA
ATOM     13  C   UNL     1      -3.650   2.306  24.901  0.00  0.00    +0.147 C 
ATOM     14  C   UNL     1      -3.135   1.926  25.102  0.00  0.00    +0.194 C 
ATOM     15  O   UNL     1      -2.677   1.254  25.241  0.00  0.00    -0.220 OA
ENDROOT
BRANCH  13  16
ATOM     16  N   UNL     1      -3.802   1.514  24.730  0.00  0.00    -0.268 NA
ATOM     17  C   UNL     1      -4.220   1.048  25.268  0.00  0.00    +0.072 C 
ATOM     18  C   UNL     1      -4.373   0.255  25.097  0.00  0.00    +0.018 C 
ATOM     19  C   UNL     1      -4.107  -0.071  24.388  0.00  0.00    +0.007 C 
ATOM     27  C   UNL     1      -3.689   0.393  23.850  0.00  0.00    +0.018 C 
ATOM     28  C   UNL     1      -3.537   1.186  24.021  0.00  0.00    +0.072 C 
BRANCH  19  20
ATOM     20  C   UNL     1      -4.259  -0.864  24.216  0.00  0.00    +0.026 C 
BRANCH  20  21
ATOM     21  C   UNL     1      -3.744  -1.451  24.482  0.00  0.00    -0.022 A 
ATOM     22  C   UNL     1      -3.136  -1.719  23.994  0.00  0.00    -0.004 A 
ATOM     23  C   UNL     1      -2.621  -2.306  24.259  0.00  0.00    -0.000 A 
ATOM     24  C   UNL     1      -2.714  -2.625  25.015  0.00  0.00    -0.000 A 
ATOM     25  C   UNL     1      -3.323  -2.358  25.503  0.00  0.00    -0.000 A 
ATOM     26  C   UNL     1      -3.838  -1.771  25.237  0.00  0.00    -0.004 A 
ENDBRANCH  20  21
ENDBRANCH  19  20
ENDBRANCH  13  16
BRANCH   7   6
ATOM      3  N   UNL     1      -1.884   4.321  25.266  0.00  0.00    -0.187 NA
ATOM      4  C   UNL     1      -2.275   3.648  24.994  0.00  0.00    +0.339 C 
ATOM      5  O   UNL     1      -1.972   3.224  24.354  0.00  0.00    -0.249 OA
ATOM      6  N   UNL     1      -2.970   3.397  25.363  0.00  0.00    -0.184 NA
BRANCH   3   2
ATOM      1  C   UNL     1      -0.934   5.351  24.983  0.00  0.00    +0.025 C 
ATOM      2  C   UNL     1      -1.190   4.571  24.897  0.00  0.00    +0.117 C 
ENDBRANCH   3   2
ENDBRANCH   7   6
TORSDOF 5
ENDMDL
MODEL 2
REMARK VINA RESULT:     -11.4      1.073      4.609
REMARK  Name = 
REMARK  5 active torsions:
REMARK  status: ('A' for Active; 'I' for Inactive)
REMARK    1  A    between atoms: C_2  and  N_3
REMARK    2  A    between atoms: N_6  and  C_7
REMARK    3  A    between atoms: C_13  and  N_16
REMARK    4  A    between atoms: C_19  and  C_20
REMARK    5  A    between atoms: C_20  and  C_21
REMARK                            x       y       z     vdW  Elec       q    Type
REMARK                         _______ _______ _______ _____ _____    ______ ____
ROOT
ATOM      7  C   UNL     1      -4.267   0.869  24.364  0.00  0.00    +0.158 C 
ATOM      8  C   UNL     1      -4.895   1.418  24.774  0.00  0.00    +0.170 C 
ATOM      9  C   UNL     1      -4.621   2.100  25.030  0.00  0.00    +0.176 C 
ATOM     10  O   UNL     1      -4.785   2.723  25.364  0.00  0.00    -0.327 OA
ATOM     11  C   UNL     1      -4.924   1.923  25.019  0.00  0.00    +0.253 C 
ATOM     12  O   UNL     1      -5.585   1.435  24.948  0.00  0.00    -0.327 OA
ATOM     13  C   UNL     1      -4.257   1.360  24.593  0.00  0.00    +0.147 C 
ATOM     14  C   UNL     1      -3.604   1.361  24.437  0.00  0.00    +0.194 C 
ATOM     15  O   UNL     1      -2.824   1.623  24.373  0.00  0.00    -0.220 OA
ENDROOT
BRANCH  13  16
ATOM     16  N   UNL     1      -3.910   2.065  24.843  0.00  0.00    -0.268 NA
ATOM     17  C   UNL     1      -3.891   2.718  24.338  0.00  0.00    +0.072 C 
ATOM     18  C   UNL     1      -3.544   3.423  24.588  0.00  0.00    +0.018 C 
ATOM     19  C   UNL     1      -3.215   3.476  25.343  0.00  0.00    +0.007 C 
ATOM     27  C   UNL     1      -3.233   2.824  25.848  0.00  0.00    +0.018 C 
ATOM     28  C   UNL     1      -3.581   2.119  25.598  0.00  0.00    +0.072 C 
BRANCH  19  20
ATOM     20  C   UNL     1      -2.867   4.181  25.593  0.00  0.00    +0.026 C 
BRANCH  20  21
ATOM     21  C   UNL     1      -2.094   4.363  25.372  0.00  0.00    -0.022 A 
ATOM     22  C   UNL     1      -1.467   3.907  25.650  0.00  0.00    -0.004 A 
ATOM     23  C   UNL     1      -0.693   4.088  25.428  0.00  0.00    -0.000 A 
ATOM     24  C   UNL     1      -0.548   4.728  24.927  0.00  0.00    -0.000 A 
ATOM     25  C   UNL     1      -1.175   5.185  24.648  0.00  0.00    -0.000 A 
ATOM     26  C   UNL     1      -1.948   5.002  24.870  0.00  0.00    -0.004 A 
ENDBRANCH  20  21
ENDBRANCH  19  20
ENDBRANCH  13  16
BRANCH   7   6
ATOM      3  N   UNL     1      -4.127  -1.292  24.087  0.00  0.00    -0.187 NA
ATOM      4  C   UNL     1      -4.048  -0.542  24.422  0.00  0.00    +0.339 C 
ATOM      5  O   UNL     1      -3.672  -0.453  25.151  0.00  0.00    -0.249 OA
ATOM      6  N   UNL     1      -4.346   0.119  24.028  0.00  0.00    -0.184 NA
BRANCH   3   2
ATOM      1  C   UNL     1      -3.866  -2.696  24.125  0.00  0.00    +0.025 C 
ATOM      2  C   UNL     1      -3.830  -1.953  24.481  0.00  0.00    +0.117 C 
ENDBRANCH   3   2
ENDBRANCH   7   6
TORSDOF 5
ENDMDL
MODEL 3
REMARK VINA RESULT:     -11.0      3.104      3.604
REMARK  Name = 
REMARK  5 active torsions:
REMARK  status: ('A' for Active; 'I' for Inactive)
REMARK    1  A    between atoms: C_2  and  N_3
REMARK    2  A    between atoms: N_6  and  C_7
REMARK    3  A    between atoms: C_13  and  N_16
REMARK    4  A    between atoms: C_19  and  C_20
REMARK    5  A    between atoms: C_20  and  C_21
REMARK                            x       y       z     vdW  Elec       q    Type
REMARK                         _______ _______ _______ _____ _____    ______ ____
ROOT
ATOM      7  C   UNL     1      -0.024   0.875  24.124  0.00  0.00    +0.158 C 
ATOM      8  C   UNL     1      -0.307   1.185  24.953  0.00  0.00    +0.170 C 
ATOM      9  C   UNL     1      -0.963   0.864  25.221  0.00  0.00    +0.176 C 
ATOM     10  O   UNL     1      -1.443   0.847  25.765  0.00  0.00    -0.327 OA
ATOM     11  C   UNL     1      -0.725   1.102  25.319  0.00  0.00    +0.253 C 
ATOM     12  O   UNL     1      -0.121   1.645  25.464  0.00  0.00    -0.327 OA
ATOM     13  C   UNL     1      -0.442   0.769  24.452  0.00  0.00    +0.147 C 
ATOM     14  C   UNL     1      -0.632   0.331  23.980  0.00  0.00    +0.194 C 
ATOM     15  O   UNL     1      -1.079  -0.246  23.595  0.00  0.00    -0.220 OA
ENDROOT
BRANCH  13  16
ATOM     16  N   UNL     1      -1.140   0.393  24.682  0.00  0.00    -0.268 NA
ATOM     17  C   UNL     1      -1.108  -0.274  25.167  0.00  0.00    +0.072 C 
ATOM     18  C   UNL     1      -1.806  -0.650  25.398  0.00  0.00    +0.018 C 
ATOM     19  C   UNL     1      -2.534  -0.358  25.143  0.00  0.00    +0.007 C 
ATOM     27  C   UNL     1      -2.566   0.308  24.659  0.00  0.00    +0.018 C 
ATOM     28  C   UNL     1      -1.869   0.684  24.428  0.00  0.00    +0.072 C 
BRANCH  19  20
ATOM     20  C   UNL     1      -3.232  -0.734  25.373  0.00  0.00    +0.026 C 
BRANCH  20  21
ATOM     21  C   UNL     1      -3.535  -1.355  24.924  0.00  0.00    -0.022 A 
ATOM     22  C   UNL     1      -4.056  -1.201  24.304  0.00  0.00    -0.004 A 
ATOM     23  C   UNL     1      -4.359  -1.823  23.854  0.00  0.00    -0.000 A 
ATOM     24  C   UNL     1      -4.141  -2.600  24.026  0.00  0.00    -0.000 A 
ATOM     25  C   UNL     1      -3.620  -2.755  24.647  0.00  0.00    -0.000 A 
ATOM     26  C   UNL     1      -3.317  -2.133  25.096  0.00  0.00    -0.004 A 
ENDBRANCH  20  21
ENDBRANCH  19  20
ENDBRANCH  13  16
BRANCH   7   6
ATOM      3  N   UNL     1       1.817   0.700  22.965  0.00  0.00    -0.187 NA
ATOM      4  C   UNL     1       1.160   0.496  23.419  0.00  0.00    +0.339 C 
ATOM      5  O   UNL     1       1.029  -0.293  23.625  0.00  0.00    -0.249 OA
ATOM      6  N   UNL     1       0.634   1.080  23.669  0.00  0.00    -0.184 NA
BRANCH   3   2
ATOM      1  C   UNL     1       3.070   0.328  22.385  0.00  0.00    +0.025 C 
ATOM      2  C   UNL     1       2.344   0.116  22.715  0.00  0.00    +0.117 C 
ENDBRANCH   3   2
ENDBRANCH   7   6
TORSDOF 5
ENDMDL
MODEL 4
REMARK VINA RESULT:     -10.9      2.030      2.831
REMARK  Name = 
REMARK  5 active torsions:
REMARK  status: ('A' for Active; 'I' for Inactive)
REMARK    1  A    between atoms: C_2  and  N_3
REMARK    2  A    between atoms: N_6  and  C_7
REMARK    3  A    between atoms: C_13  and  N_16
REMARK    4  A    between atoms: C_19  and  C_20
REMARK    5  A    between atoms: C_20  and  C_21
REMARK                            x       y       z     vdW  Elec       q    Type
REMARK                         _______ _______ _______ _____ _____    ______ ____
ROOT
ATOM      7  C   UNL     1      -0.911   2.187  24.345  0.00  0.00    +0.158 C 
ATOM      8  C   UNL     1      -0.132   1.682  24.377  0.00  0.00    +0.170 C 
ATOM      9  C   UNL     1      -0.232   0.928  24.540  0.00  0.00    +0.176 C 
ATOM     10  O   UNL     1       0.095   0.288  24.640  0.00  0.00    -0.327 OA
ATOM     11  C   UNL     1       0.028   1.152  24.470  0.00  0.00    +0.253 C 
ATOM     12  O   UNL     1       0.573   1.747  24.298  0.00  0.00    -0.327 OA
ATOM     13  C   UNL     1      -0.794   1.667  24.441  0.00  0.00    +0.147 C 
ATOM     14  C   UNL     1      -1.456   1.588  24.518  0.00  0.00    +0.194 C 
ATOM     15  O   UNL     1      -2.179   1.217  24.660  0.00  0.00    -0.220 OA
ENDROOT
BRANCH  13  16
ATOM     16  N   UNL     1      -0.963   0.879  24.617  0.00  0.00    -0.268 NA
ATOM     17  C   UNL     1      -1.067   0.333  24.007  0.00  0.00    +0.072 C 
ATOM     18  C   UNL     1      -1.236  -0.455  24.184  0.00  0.00    +0.018 C 
ATOM     19  C   UNL     1      -1.302  -0.697  24.970  0.00  0.00    +0.007 C 
ATOM     27  C   UNL     1      -1.199  -0.151  25.579  0.00  0.00    +0.018 C 
ATOM     28  C   UNL     1      -1.030   0.637  25.403  0.00  0.00    +0.072 C 
BRANCH  19  20
ATOM     20  C   UNL     1      -1.472  -1.485  25.147  0.00  0.00    +0.026 C 
BRANCH  20  21
ATOM     21  C   UNL     1      -2.231  -1.782  25.024  0.00  0.00    -0.022 A 
ATOM     22  C   UNL     1      -2.832  -1.617  25.563  0.00  0.00    -0.004 A 
ATOM     23  C   UNL     1      -3.591  -1.915  25.440  0.00  0.00    -0.000 A 
ATOM     24  C   UNL     1      -3.749  -2.379  24.776  0.00  0.00    -0.000 A 
ATOM     25  C   UNL     1      -3.148  -2.544  24.236  0.00  0.00    -0.000 A 
ATOM     26  C   UNL     1      -2.389  -2.246  24.360  0.00  0.00    -0.004 A 
ENDBRANCH  20  21
ENDBRANCH  19  20
ENDBRANCH  13  16
BRANCH   7   6
ATOM      3  N   UNL     1      -1.321   4.309  24.657  0.00  0.00    -0.187 NA
ATOM      4  C   UNL     1      -1.207   3.507  24.810  0.00  0.00    +0.339 C 
ATOM      5  O   UNL     1      -1.273   3.219  25.581  0.00  0.00    -0.249 OA
ATOM      6  N   UNL     1      -1.026   2.991  24.192  0.00  0.00    -0.184 NA
BRANCH   3   2
ATOM      1  C   UNL     1      -1.629   5.625  25.120  0.00  0.00    +0.025 C 
ATOM      2  C   UNL     1      -1.502   4.825  25.275  0.00  0.00    +0.117 C 
ENDBRANCH   3   2
ENDBRANCH   7   6
TORSDOF 5
ENDMDL
MODEL 5
REMARK VINA RESULT:     -10.9      2.206      5.269
REMARK  Name = 
REMARK  5 active torsions:
REMARK  status: ('A' for Active; 'I' for Inactive)
REMARK    1  A    between atoms: C_2  and  N_3
REMARK    2  A    between atoms: N_6  and  C_7
REMARK    3  A    between atoms: C_13  and  N_16
REMARK    4  A    between atoms: C_19  and  C_20
REMARK    5  A    between atoms: C_20  and  C_21
REMARK                            x       y       z     vdW  Elec       q    Type
REMARK                         _______ _______ _______ _____ _____    ______ ____
ROOT
ATOM      7  C   UNL     1      -1.580  -0.224  24.283  0.00  0.00    +0.158 C 
ATOM      8  C   UNL     1      -0.659  -0.117  24.331  0.00  0.00    +0.170 C 
ATOM      9  C   UNL     1      -0.419   0.576  24.590  0.00  0.00    +0.176 C 
ATOM     10  O   UNL     1       0.156   0.989  24.749  0.00  0.00    -0.327 OA
ATOM     11  C   UNL     1      -0.282   0.273  24.479  0.00  0.00    +0.253 C 
ATOM     12  O   UNL     1      -0.054  -0.472  24.206  0.00  0.00    -0.327 OA
ATOM     13  C   UNL     1      -1.247   0.175  24.434  0.00  0.00    +0.147 C 
ATOM     14  C   UNL     1      -1.807   0.524  24.558  0.00  0.00    +0.194 C 
ATOM     15  O   UNL     1      -2.295   1.149  24.784  0.00  0.00    -0.220 OA
ENDROOT
BRANCH  13  16
ATOM     16  N   UNL     1      -1.054   0.927  24.714  0.00  0.00    -0.268 NA
ATOM     17  C   UNL     1      -0.924   1.545  24.183  0.00  0.00    +0.072 C 
ATOM     18  C   UNL     1      -0.731   2.297  24.463  0.00  0.00    +0.018 C 
ATOM     19  C   UNL     1      -0.668   2.430  25.274  0.00  0.00    +0.007 C 
ATOM     27  C   UNL     1      -0.799   1.813  25.806  0.00  0.00    +0.018 C 
ATOM     28  C   UNL     1      -0.992   1.062  25.526  0.00  0.00    +0.072 C 
BRANCH  19  20
ATOM     20  C   UNL     1      -0.475   3.182  25.555  0.00  0.00    +0.026 C 
BRANCH  20  21
ATOM     21  C   UNL     1      -1.010   3.805  25.471  0.00  0.00    -0.022 A 
ATOM     22  C   UNL     1      -0.848   4.418  24.945  0.00  0.00    -0.004 A 
ATOM     23  C   UNL     1      -1.383   5.041  24.860  0.00  0.00    -0.000 A 
ATOM     24  C   UNL     1      -2.079   5.050  25.303  0.00  0.00    -0.000 A 
ATOM     25  C   UNL     1      -2.241   4.436  25.830  0.00  0.00    -0.000 A 
ATOM     26  C   UNL     1      -1.706   3.813  25.914  0.00  0.00    -0.004 A 
ENDBRANCH  20  21
ENDBRANCH  19  20
ENDBRANCH  13  16
BRANCH   7   6
ATOM      3  N   UNL     1      -2.905  -1.958  24.354  0.00  0.00    -0.187 NA
ATOM      4  C   UNL     1      -2.451  -1.314  24.597  0.00  0.00    +0.339 C 
ATOM      5  O   UNL     1      -2.411  -1.114  25.397  0.00  0.00    -0.249 OA
ATOM      6  N   UNL     1      -2.035  -0.869  24.040  0.00  0.00    -0.184 NA
BRANCH   3   2
ATOM      1  C   UNL     1      -3.717  -3.088  24.680  0.00  0.00    +0.025 C 
ATOM      2  C   UNL     1      -3.321  -2.403  24.912  0.00  0.00    +0.117 C 
ENDBRANCH   3   2
ENDBRANCH   7   6
TORSDOF 5
ENDMDL
