MODEL 1
REMARK VINA RESULT:     -13.3      0.000      0.000
REMARK  Name = 
REMARK  5 active torsions:
REMARK  status: ('A' for Active; 'I' for Inactive)
REMARK    1  A    between atoms: C_5  and  C_6
REMARK    2  A    between atoms: C_6  and  C_7
REMARK    3  A    between atoms: C_19  and  C_20
REMARK    4  A    between atoms: C_20  and  N_21
REMARK    5  A    between atoms: C_22  and  C_24
REMARK                            x       y       z     vdW  Elec       q    Type
REMARK                         _______ _______ _______ _____ _____    ______ ____
ROOT
ATOM      1  O   UNL     1      -5.780   2.734  25.008  0.00  0.00    -0.218 OA
ATOM      2  C   UNL     1      -5.166   2.184  25.038  0.00  0.00    +0.213 C 
ATOM      3  C   UNL     1      -5.234   1.373  24.901  0.00  0.00    +0.212 C 
ATOM      4  O   UNL     1      -5.928   0.970  24.710  0.00  0.00    -0.218 OA
ATOM      5  C   UNL     1      -4.486   1.036  24.989  0.00  0.00    +0.157 C 
ATOM     18  O   UNL     1      -3.955   1.638  25.179  0.00  0.00    -0.351 OA
ATOM     19  C   UNL     1      -4.376   2.348  25.210  0.00  0.00    +0.170 C 
ENDROOT
BRANCH   5   6
ATOM      6  C   UNL     1      -4.300   0.236  24.901  0.00  0.00    +0.118 C 
BRANCH   6   7
ATOM      7  C   UNL     1      -3.802  -0.133  25.444  0.00  0.00    +0.232 C 
ATOM      8  O   UNL     1      -3.512   0.287  26.091  0.00  0.00    -0.274 OA
ATOM      9  N   UNL     1      -3.592  -0.925  25.339  0.00  0.00    -0.259 N 
ATOM     10  C   UNL     1      -3.101  -1.366  25.834  0.00  0.00    +0.103 C 
ATOM     11  C   UNL     1      -3.043  -2.128  25.522  0.00  0.00    +0.049 C 
ATOM     12  C   UNL     1      -3.498  -2.157  24.836  0.00  0.00    -0.007 A 
ATOM     13  C   UNL     1      -3.647  -2.765  24.297  0.00  0.00    -0.003 A 
ATOM     14  C   UNL     1      -4.136  -2.629  23.647  0.00  0.00    -0.000 A 
ATOM     15  C   UNL     1      -4.475  -1.886  23.534  0.00  0.00    +0.001 A 
ATOM     16  C   UNL     1      -4.327  -1.278  24.071  0.00  0.00    +0.015 A 
ATOM     17  C   UNL     1      -3.837  -1.414  24.722  0.00  0.00    +0.050 A 
ENDBRANCH   6   7
ENDBRANCH   5   6
BRANCH  19  20
ATOM     20  C   UNL     1      -4.061   3.090  25.382  0.00  0.00    +0.148 C 
BRANCH  20  21
ATOM     21  N   UNL     1      -3.273   3.255  25.205  0.00  0.00    -0.199 NA
ATOM     22  C   UNL     1      -2.882   3.869  25.594  0.00  0.00    +0.265 C 
ATOM     23  O   UNL     1      -3.280   4.318  26.161  0.00  0.00    -0.268 OA
BRANCH  22  24
ATOM     24  C   UNL     1      -2.093   4.034  25.417  0.00  0.00    +0.057 A 
ATOM     25  C   UNL     1      -1.527   3.435  25.461  0.00  0.00    +0.005 A 
ATOM     26  C   UNL     1      -0.738   3.600  25.284  0.00  0.00    +0.002 A 
ATOM     27  C   UNL     1      -0.516   4.363  25.063  0.00  0.00    +0.030 A 
ATOM     28  C   UNL     1      -1.082   4.961  25.019  0.00  0.00    +0.140 A 
ATOM     29  F   UNL     1      -0.860   5.725  24.798  0.00  0.00    -0.204 F 
ATOM     30  C   UNL     1      -1.871   4.797  25.196  0.00  0.00    +0.034 A 
ENDBRANCH  22  24
ENDBRANCH  20  21
ENDBRANCH  19  20
TORSDOF 5
ENDMDL
MODEL 2
REMARK VINA RESULT:     -13.0      2.157      3.084
REMARK  Name = 
REMARK  5 active torsions:
REMARK  status: ('A' for Active; 'I' for Inactive)
REMARK    1  A    between atoms: C_5  and  C_6
REMARK    2  A    between atoms: C_6  and  C_7
REMARK    3  A    between atoms: C_19  and  C_20
REMARK    4  A    between atoms: C_20  and  N_21
REMARK    5  A    between atoms: C_22  and  C_24
REMARK                            x       y       z     vdW  Elec       q    Type
REMARK                         _______ _______ _______ _____ _____    ______ ____
ROOT
ATOM      1  O   UNL     1       0.839   0.865  23.954  0.00  0.00    -0.218 OA
ATOM      2  C   UNL     1       0.073   0.699  24.210  0.00  0.00    +0.213 C 
ATOM      3  C   UNL     1      -0.370   0.031  24.014  0.00  0.00    +0.212 C 
ATOM      4  O   UNL     1      -0.125  -0.588  23.527  0.00  0.00    -0.218 OA
ATOM      5  C   UNL     1      -1.102   0.092  24.390  0.00  0.00    +0.157 C 
ATOM     18  O   UNL     1      -1.112   0.796  24.819  0.00  0.00    -0.351 OA
ATOM     19  C   UNL     1      -0.385   1.172  24.708  0.00  0.00    +0.170 C 
ENDROOT
BRANCH   5   6
ATOM      6  C   UNL     1      -1.717  -0.457  24.346  0.00  0.00    +0.118 C 
BRANCH   6   7
ATOM      7  C   UNL     1      -2.484  -0.205  24.175  0.00  0.00    +0.232 C 
ATOM      8  O   UNL     1      -2.626   0.586  23.986  0.00  0.00    -0.274 OA
ATOM      9  N   UNL     1      -3.109  -0.743  24.194  0.00  0.00    -0.259 N 
ATOM     10  C   UNL     1      -3.901  -0.572  24.037  0.00  0.00    +0.103 C 
ATOM     11  C   UNL     1      -4.334  -1.269  24.119  0.00  0.00    +0.049 C 
ATOM     12  C   UNL     1      -3.810  -1.871  24.327  0.00  0.00    -0.007 A 
ATOM     13  C   UNL     1      -3.923  -2.674  24.481  0.00  0.00    -0.003 A 
ATOM     14  C   UNL     1      -3.281  -3.151  24.680  0.00  0.00    -0.000 A 
ATOM     15  C   UNL     1      -2.524  -2.825  24.726  0.00  0.00    +0.001 A 
ATOM     16  C   UNL     1      -2.410  -2.023  24.573  0.00  0.00    +0.015 A 
ATOM     17  C   UNL     1      -3.053  -1.546  24.373  0.00  0.00    +0.050 A 
ENDBRANCH   6   7
ENDBRANCH   5   6
BRANCH  19  20
ATOM     20  C   UNL     1      -0.158   1.893  25.036  0.00  0.00    +0.148 C 
BRANCH  20  21
ATOM     21  N   UNL     1      -0.659   2.546  24.985  0.00  0.00    -0.199 NA
ATOM     22  C   UNL     1      -0.532   3.203  25.467  0.00  0.00    +0.265 C 
ATOM     23  O   UNL     1       0.098   3.208  26.001  0.00  0.00    -0.268 OA
BRANCH  22  24
ATOM     24  C   UNL     1      -1.033   3.856  25.416  0.00  0.00    +0.057 A 
ATOM     25  C   UNL     1      -0.792   4.531  25.007  0.00  0.00    +0.005 A 
ATOM     26  C   UNL     1      -1.294   5.184  24.956  0.00  0.00    +0.002 A 
ATOM     27  C   UNL     1      -2.037   5.162  25.314  0.00  0.00    +0.030 A 
ATOM     28  C   UNL     1      -2.278   4.488  25.724  0.00  0.00    +0.140 A 
ATOM     29  F   UNL     1      -3.020   4.466  26.082  0.00  0.00    -0.204 F 
ATOM     30  C   UNL     1      -1.776   3.834  25.775  0.00  0.00    +0.034 A 
ENDBRANCH  22  24
ENDBRANCH  20  21
ENDBRANCH  19  20
TORSDOF 5
ENDMDL
MODEL 3
REMARK VINA RESULT:     -12.9      1.826      5.397
REMARK  Name = 
REMARK  5 active torsions:
REMARK  status: ('A' for Active; 'I' for Inactive)
REMARK    1  A    between atoms: C_5  and  C_6
REMARK    2  A    between atoms: C_6  and  C_7
REMARK    3  A    between atoms: C_19  and  C_20
REMARK    4  A    between atoms: C_20  and  N_21
REMARK    5  A    between atoms: C_22  and  C_24
REMARK                            x       y       z     vdW  Elec       q    Type
REMARK                         _______ _______ _______ _____ _____    ______ ____
ROOT
ATOM      1  O   UNL     1      -5.519   1.350  24.648  0.00  0.00    -0.218 OA
ATOM      2  C   UNL     1      -4.713   1.514  24.707  0.00  0.00    +0.213 C 
ATOM      3  C   UNL     1      -4.343   2.217  24.486  0.00  0.00    +0.212 C 
ATOM      4  O   UNL     1      -4.714   2.880  24.165  0.00  0.00    -0.218 OA
ATOM      5  C   UNL     1      -3.536   2.140  24.641  0.00  0.00    +0.157 C 
ATOM     18  O   UNL     1      -3.407   1.390  24.958  0.00  0.00    -0.351 OA
ATOM     19  C   UNL     1      -4.135   1.002  25.000  0.00  0.00    +0.170 C 
ENDROOT
BRANCH   5   6
ATOM      6  C   UNL     1      -2.959   2.714  24.503  0.00  0.00    +0.118 C 
BRANCH   6   7
ATOM      7  C   UNL     1      -2.209   2.490  24.242  0.00  0.00    +0.232 C 
ATOM      8  O   UNL     1      -2.096   1.750  23.895  0.00  0.00    -0.274 OA
ATOM      9  N   UNL     1      -1.571   3.007  24.327  0.00  0.00    -0.259 N 
ATOM     10  C   UNL     1      -0.794   2.860  24.094  0.00  0.00    +0.103 C 
ATOM     11  C   UNL     1      -0.341   3.524  24.284  0.00  0.00    +0.049 C 
ATOM     12  C   UNL     1      -0.839   4.080  24.634  0.00  0.00    -0.007 A 
ATOM     13  C   UNL     1      -0.699   4.836  24.933  0.00  0.00    -0.003 A 
ATOM     14  C   UNL     1      -1.318   5.273  25.257  0.00  0.00    -0.000 A 
ATOM     15  C   UNL     1      -2.078   4.954  25.284  0.00  0.00    +0.001 A 
ATOM     16  C   UNL     1      -2.219   4.198  24.986  0.00  0.00    +0.015 A 
ATOM     17  C   UNL     1      -1.599   3.761  24.661  0.00  0.00    +0.050 A 
ENDBRANCH   6   7
ENDBRANCH   5   6
BRANCH  19  20
ATOM     20  C   UNL     1      -4.261   0.239  25.283  0.00  0.00    +0.148 C 
BRANCH  20  21
ATOM     21  N   UNL     1      -3.915  -0.405  24.901  0.00  0.00    -0.199 NA
ATOM     22  C   UNL     1      -3.751  -1.096  25.322  0.00  0.00    +0.265 C 
ATOM     23  O   UNL     1      -3.932  -1.142  26.126  0.00  0.00    -0.268 OA
BRANCH  22  24
ATOM     24  C   UNL     1      -3.405  -1.740  24.940  0.00  0.00    +0.057 A 
ATOM     25  C   UNL     1      -3.878  -2.282  24.536  0.00  0.00    +0.005 A 
ATOM     26  C   UNL     1      -3.533  -2.927  24.153  0.00  0.00    +0.002 A 
ATOM     27  C   UNL     1      -2.714  -3.028  24.175  0.00  0.00    +0.030 A 
ATOM     28  C   UNL     1      -2.241  -2.486  24.579  0.00  0.00    +0.140 A 
ATOM     29  F   UNL     1      -1.423  -2.588  24.601  0.00  0.00    -0.204 F 
ATOM     30  C   UNL     1      -2.587  -1.841  24.962  0.00  0.00    +0.034 A 
ENDBRANCH  22  24
ENDBRANCH  20  21
ENDBRANCH  19  20
TORSDOF 5
ENDMDL
MODEL 4
REMARK VINA RESULT:     -12.4      2.629      5.770
REMARK  Name = 
REMARK  5 active torsions:
REMARK  status: ('A' for Active; 'I' for Inactive)
REMARK    1  A    between atoms: C_5  and  C_6
REMARK    2  A    between atoms: C_6  and  C_7
REMARK    3  A    between atoms: C_19  and  C_20
REMARK    4  A    between atoms: C_20  and  N_21
REMARK    5  A    between atoms: C_22  and  C_24
REMARK                            x       y       z     vdW  Elec       q    Type
REMARK                         _______ _______ _______ _____ _____    ______ ____
ROOT
ATOM      1  O   UNL     1       0.779   0.728  23.959  0.00  0.00    -0.218 OA
ATOM      2  C   UNL     1       0.017   1.005  24.111  0.00  0.00    +0.213 C 
ATOM      3  C   UNL     1      -0.229   1.791  24.075  0.00  0.00    +0.212 C 
ATOM      4  O   UNL     1       0.242   2.439  23.879  0.00  0.00    -0.218 OA
ATOM      5  C   UNL     1      -1.031   1.816  24.268  0.00  0.00    +0.157 C 
ATOM     18  O   UNL     1      -1.280   1.046  24.425  0.00  0.00    -0.351 OA
ATOM     19  C   UNL     1      -0.632   0.544  24.328  0.00  0.00    +0.170 C 
ENDROOT
BRANCH   5   6
ATOM      6  C   UNL     1      -1.502   2.494  24.300  0.00  0.00    +0.118 C 
BRANCH   6   7
ATOM      7  C   UNL     1      -2.215   2.520  23.886  0.00  0.00    +0.232 C 
ATOM      8  O   UNL     1      -2.292   2.120  23.169  0.00  0.00    -0.274 OA
ATOM      9  N   UNL     1      -2.853   2.947  24.191  0.00  0.00    -0.259 N 
ATOM     10  C   UNL     1      -3.596   3.022  23.841  0.00  0.00    +0.103 C 
ATOM     11  C   UNL     1      -4.062   3.495  24.332  0.00  0.00    +0.049 C 
ATOM     12  C   UNL     1      -3.606   3.711  24.984  0.00  0.00    -0.007 A 
ATOM     13  C   UNL     1      -3.774   4.172  25.648  0.00  0.00    -0.003 A 
ATOM     14  C   UNL     1      -3.196   4.294  26.223  0.00  0.00    -0.000 A 
ATOM     15  C   UNL     1      -2.449   3.956  26.135  0.00  0.00    +0.001 A 
ATOM     16  C   UNL     1      -2.280   3.494  25.473  0.00  0.00    +0.015 A 
ATOM     17  C   UNL     1      -2.859   3.372  24.897  0.00  0.00    +0.050 A 
ENDBRANCH   6   7
ENDBRANCH   5   6
BRANCH  19  20
ATOM     20  C   UNL     1      -0.633  -0.274  24.429  0.00  0.00    +0.148 C 
BRANCH  20  21
ATOM     21  N   UNL     1      -1.348  -0.683  24.474  0.00  0.00    -0.199 NA
ATOM     22  C   UNL     1      -1.365  -1.455  24.765  0.00  0.00    +0.265 C 
ATOM     23  O   UNL     1      -0.666  -1.819  25.011  0.00  0.00    -0.268 OA
BRANCH  22  24
ATOM     24  C   UNL     1      -2.080  -1.864  24.810  0.00  0.00    +0.057 A 
ATOM     25  C   UNL     1      -2.239  -2.477  24.280  0.00  0.00    +0.005 A 
ATOM     26  C   UNL     1      -2.954  -2.885  24.325  0.00  0.00    +0.002 A 
ATOM     27  C   UNL     1      -3.510  -2.681  24.900  0.00  0.00    +0.030 A 
ATOM     28  C   UNL     1      -3.352  -2.069  25.429  0.00  0.00    +0.140 A 
ATOM     29  F   UNL     1      -3.908  -1.865  26.003  0.00  0.00    -0.204 F 
ATOM     30  C   UNL     1      -2.636  -1.660  25.384  0.00  0.00    +0.034 A 
ENDBRANCH  22  24
ENDBRANCH  20  21
ENDBRANCH  19  20
TORSDOF 5
ENDMDL
