REMARK  Name = 
REMARK  6 active torsions:
REMARK  status: ('A' for Active; 'I' for Inactive)
REMARK    1  A    between atoms: O_2  and  C_3
REMARK    2  A    between atoms: C_6  and  S_9
REMARK    3  A    between atoms: S_9  and  N_12
REMARK    4  A    between atoms: N_12  and  C_13
REMARK    5  A    between atoms: C_15  and  C_19
REMARK    6  A    between atoms: C_21  and  C_24
REMARK                            x       y       z     vdW  Elec       q    Type
REMARK                         _______ _______ _______ _____ _____    ______ ____
ROOT
ATOM     13  C   UNL     1      -0.596  -3.041   0.000  0.00  0.00    +0.115 C 
ATOM     14  C   UNL     1       0.072  -3.525   0.000  0.00  0.00    +0.046 C 
ATOM     15  C   UNL     1      -0.183  -4.310   0.000  0.00  0.00    +0.139 C 
ATOM     16  N   UNL     1      -1.008  -4.310   0.000  0.00  0.00    -0.264 NA
ATOM     17  C   UNL     1      -1.493  -4.977   0.000  0.00  0.00    +0.090 C 
ATOM     18  C   UNL     1      -1.263  -3.525   0.000  0.00  0.00    +0.092 C 
ENDROOT
BRANCH  15  19
ATOM     19  C   UNL     1       0.302  -4.977   0.000  0.00  0.00    +0.251 A 
ATOM     20  N   UNL     1       1.127  -4.977   0.000  0.00  0.00    -0.188 NA
ATOM     21  C   UNL     1       1.382  -5.762   0.000  0.00  0.00    +0.223 A 
ATOM     22  N   UNL     1       0.715  -6.247   0.000  0.00  0.00    -0.054 NA
ATOM     23  O   UNL     1       0.047  -5.762   0.000  0.00  0.00    -0.336 OA
BRANCH  21  24
ATOM     24  C   UNL     1       2.167  -6.017   0.000  0.00  0.00    +0.139 A 
ATOM     25  C   UNL     1       2.780  -5.465   0.000  0.00  0.00    +0.121 A 
ATOM     26  N   UNL     1       3.564  -5.720   0.000  0.00  0.00    -0.239 NA
ATOM     27  C   UNL     1       3.736  -6.527   0.000  0.00  0.00    +0.120 A 
ATOM     28  C   UNL     1       3.123  -7.079   0.000  0.00  0.00    +0.120 A 
ATOM     29  N   UNL     1       2.338  -6.824   0.000  0.00  0.00    -0.237 NA
ENDBRANCH  21  24
ENDBRANCH  15  19
BRANCH  13  12
ATOM     12  N   UNL     1      -0.596  -2.216   0.000  0.00  0.00    -0.078 NA
BRANCH  12   9
ATOM      9  S   UNL     1      -1.310  -1.803   0.000  0.00  0.00    +0.077 S 
ATOM     10  O   UNL     1      -1.722  -2.517   0.000  0.00  0.00    -0.152 OA
ATOM     11  O   UNL     1      -0.897  -1.089   0.000  0.00  0.00    -0.152 OA
BRANCH   9   6
ATOM      3  C   UNL     1      -3.453  -0.566   0.000  0.00  0.00    +0.139 A 
ATOM      4  C   UNL     1      -2.739  -0.153   0.000  0.00  0.00    +0.038 A 
ATOM      5  C   UNL     1      -2.024  -0.566   0.000  0.00  0.00    +0.023 A 
ATOM      6  C   UNL     1      -2.024  -1.391   0.000  0.00  0.00    +0.124 A 
ATOM      7  C   UNL     1      -2.739  -1.803   0.000  0.00  0.00    +0.023 A 
ATOM      8  C   UNL     1      -3.453  -1.391   0.000  0.00  0.00    +0.038 A 
BRANCH   3   2
ATOM      1  C   UNL     1      -4.882  -0.566   0.000  0.00  0.00    +0.252 C 
ATOM      2  O   UNL     1      -4.168  -0.153   0.000  0.00  0.00    -0.471 OA
ENDBRANCH   3   2
ENDBRANCH   9   6
ENDBRANCH  12   9
ENDBRANCH  13  12
TORSDOF 6
