MODEL 1
REMARK VINA RESULT:      -7.7      0.000      0.000
REMARK  Name = 
REMARK  7 active torsions:
REMARK  status: ('A' for Active; 'I' for Inactive)
REMARK    1  A    between atoms: C_2  and  C_4
REMARK    2  A    between atoms: C_6  and  C_7
REMARK    3  A    between atoms: C_7  and  C_8
REMARK    4  A    between atoms: C_22  and  C_23
REMARK    5  A    between atoms: C_23  and  N_24
REMARK    6  A    between atoms: N_24  and  S_25
REMARK    7  A    between atoms: S_25  and  C_28
REMARK                            x       y       z     vdW  Elec       q    Type
REMARK                         _______ _______ _______ _____ _____    ______ ____
ROOT
ATOM      4  C   UNL     1      -1.451   1.315  23.697  0.00  0.00    +0.006 C 
ATOM      5  C   UNL     1      -0.679   1.033  23.630  0.00  0.00    +0.005 C 
ATOM      6  C   UNL     1      -0.449   0.359  24.046  0.00  0.00    +0.027 C 
ATOM     19  C   UNL     1      -0.991  -0.034  24.529  0.00  0.00    -0.048 C 
ATOM     20  C   UNL     1      -0.760  -0.708  24.945  0.00  0.00    +0.026 C 
ATOM     21  C   UNL     1      -1.763   0.249  24.595  0.00  0.00    -0.033 C 
ATOM     22  C   UNL     1      -1.993   0.923  24.179  0.00  0.00    +0.041 C 
ENDROOT
BRANCH   4   2
ATOM      1  C   UNL     1      -2.080   1.915  22.563  0.00  0.00    +0.000 C 
ATOM      2  C   UNL     1      -1.682   1.989  23.281  0.00  0.00    +0.000 C 
ATOM      3  C   UNL     1      -1.514   2.738  23.583  0.00  0.00    +0.000 C 
ENDBRANCH   4   2
BRANCH   6   7
ATOM      7  C   UNL     1       0.324   0.077  23.979  0.00  0.00    +0.089 C 
BRANCH   7   8
ATOM      8  C   UNL     1       0.632  -0.111  23.238  0.00  0.00    +0.226 C 
ATOM      9  O   UNL     1       0.159  -0.492  22.678  0.00  0.00    -0.275 OA
ATOM     10  N   UNL     1       1.413   0.082  23.054  0.00  0.00    -0.276 N 
ATOM     11  C   UNL     1       1.886   0.463  23.613  0.00  0.00    +0.115 C 
ATOM     12  C   UNL     1       2.667   0.656  23.430  0.00  0.00    +0.115 C 
ATOM     13  N   UNL     1       2.975   0.468  22.688  0.00  0.00    -0.276 N 
ATOM     14  C   UNL     1       2.502   0.088  22.129  0.00  0.00    +0.115 C 
ATOM     15  C   UNL     1       1.721  -0.106  22.312  0.00  0.00    +0.115 C 
ATOM     16  C   UNL     1       3.756   0.661  22.505  0.00  0.00    +0.226 C 
ATOM     17  C   UNL     1       4.064   0.474  21.763  0.00  0.00    +0.095 C 
ATOM     18  O   UNL     1       4.228   1.042  23.064  0.00  0.00    -0.275 OA
ENDBRANCH   7   8
ENDBRANCH   6   7
BRANCH  22  23
ATOM     23  C   UNL     1      -2.766   1.205  24.246  0.00  0.00    +0.120 C 
BRANCH  23  24
ATOM     24  N   UNL     1      -3.280   0.873  24.800  0.00  0.00    -0.077 NA
BRANCH  24  25
ATOM     25  S   UNL     1      -4.026   1.203  24.920  0.00  0.00    +0.077 S 
ATOM     26  O   UNL     1      -4.331   0.732  24.316  0.00  0.00    -0.152 OA
ATOM     27  O   UNL     1      -3.720   1.674  25.524  0.00  0.00    -0.152 OA
BRANCH  25  28
ATOM     28  C   UNL     1      -4.772   1.534  25.040  0.00  0.00    +0.124 A 
ATOM     29  C   UNL     1      -4.843   2.328  25.251  0.00  0.00    +0.022 A 
ATOM     30  C   UNL     1      -5.589   2.659  25.371  0.00  0.00    +0.031 A 
ATOM     31  C   UNL     1      -6.265   2.194  25.281  0.00  0.00    +0.140 A 
ATOM     32  F   UNL     1      -7.012   2.525  25.402  0.00  0.00    -0.204 F 
ATOM     33  C   UNL     1      -6.195   1.400  25.071  0.00  0.00    +0.031 A 
ATOM     34  C   UNL     1      -5.449   1.069  24.950  0.00  0.00    +0.022 A 
ENDBRANCH  25  28
ENDBRANCH  24  25
ENDBRANCH  23  24
ENDBRANCH  22  23
TORSDOF 7
ENDMDL
MODEL 2
REMARK VINA RESULT:      -7.5      2.646      6.924
REMARK  Name = 
REMARK  7 active torsions:
REMARK  status: ('A' for Active; 'I' for Inactive)
REMARK    1  A    between atoms: C_2  and  C_4
REMARK    2  A    between atoms: C_6  and  C_7
REMARK    3  A    between atoms: C_7  and  C_8
REMARK    4  A    between atoms: C_22  and  C_23
REMARK    5  A    between atoms: C_23  and  N_24
REMARK    6  A    between atoms: N_24  and  S_25
REMARK    7  A    between atoms: S_25  and  C_28
REMARK                            x       y       z     vdW  Elec       q    Type
REMARK                         _______ _______ _______ _____ _____    ______ ____
ROOT
ATOM      4  C   UNL     1      -0.605   0.183  24.214  0.00  0.00    +0.006 C 
ATOM      5  C   UNL     1      -1.320   0.521  24.445  0.00  0.00    +0.005 C 
ATOM      6  C   UNL     1      -1.464   1.321  24.299  0.00  0.00    +0.027 C 
ATOM     19  C   UNL     1      -0.893   1.781  23.923  0.00  0.00    -0.048 C 
ATOM     20  C   UNL     1      -1.037   2.581  23.778  0.00  0.00    +0.026 C 
ATOM     21  C   UNL     1      -0.178   1.442  23.692  0.00  0.00    -0.033 C 
ATOM     22  C   UNL     1      -0.034   0.643  23.837  0.00  0.00    +0.041 C 
ENDROOT
BRANCH   4   2
ATOM      1  C   UNL     1      -0.204  -0.861  25.104  0.00  0.00    +0.000 C 
ATOM      2  C   UNL     1      -0.461  -0.616  24.359  0.00  0.00    +0.000 C 
ATOM      3  C   UNL     1      -0.574  -1.172  23.760  0.00  0.00    +0.000 C 
ENDBRANCH   4   2
BRANCH   6   7
ATOM      7  C   UNL     1      -2.181   1.660  24.531  0.00  0.00    +0.089 C 
BRANCH   7   8
ATOM      8  C   UNL     1      -2.894   1.332  24.276  0.00  0.00    +0.226 C 
ATOM      9  O   UNL     1      -2.896   0.762  23.679  0.00  0.00    -0.275 OA
ATOM     10  N   UNL     1      -3.605   1.574  24.617  0.00  0.00    -0.276 N 
ATOM     11  C   UNL     1      -3.602   2.145  25.214  0.00  0.00    +0.115 C 
ATOM     12  C   UNL     1      -4.313   2.387  25.555  0.00  0.00    +0.115 C 
ATOM     13  N   UNL     1      -5.026   2.059  25.301  0.00  0.00    -0.276 N 
ATOM     14  C   UNL     1      -5.028   1.490  24.705  0.00  0.00    +0.115 C 
ATOM     15  C   UNL     1      -4.318   1.247  24.363  0.00  0.00    +0.115 C 
ATOM     16  C   UNL     1      -5.736   2.302  25.643  0.00  0.00    +0.226 C 
ATOM     17  C   UNL     1      -6.450   1.975  25.388  0.00  0.00    +0.095 C 
ATOM     18  O   UNL     1      -5.734   2.872  26.239  0.00  0.00    -0.275 OA
ENDBRANCH   7   8
ENDBRANCH   6   7
BRANCH  22  23
ATOM     23  C   UNL     1       0.683   0.305  23.606  0.00  0.00    +0.120 C 
BRANCH  23  24
ATOM     24  N   UNL     1       1.149   0.674  23.034  0.00  0.00    -0.077 NA
BRANCH  24  25
ATOM     25  S   UNL     1       1.961   0.533  23.009  0.00  0.00    +0.077 S 
ATOM     26  O   UNL     1       1.838  -0.075  22.465  0.00  0.00    -0.152 OA
ATOM     27  O   UNL     1       2.083   1.140  23.552  0.00  0.00    -0.152 OA
BRANCH  25  28
ATOM     28  C   UNL     1       2.773   0.392  22.984  0.00  0.00    +0.124 A 
ATOM     29  C   UNL     1       3.068  -0.357  23.164  0.00  0.00    +0.022 A 
ATOM     30  C   UNL     1       3.880  -0.498  23.140  0.00  0.00    +0.031 A 
ATOM     31  C   UNL     1       4.398   0.111  22.934  0.00  0.00    +0.140 A 
ATOM     32  F   UNL     1       5.211  -0.031  22.909  0.00  0.00    -0.204 F 
ATOM     33  C   UNL     1       4.104   0.859  22.753  0.00  0.00    +0.031 A 
ATOM     34  C   UNL     1       3.291   1.001  22.778  0.00  0.00    +0.022 A 
ENDBRANCH  25  28
ENDBRANCH  24  25
ENDBRANCH  23  24
ENDBRANCH  22  23
TORSDOF 7
ENDMDL
