MODEL 1
REMARK VINA RESULT:     -11.7      0.000      0.000
REMARK  Name = 
REMARK  7 active torsions:
REMARK  status: ('A' for Active; 'I' for Inactive)
REMARK    1  A    between atoms: O_2  and  C_3
REMARK    2  A    between atoms: C_3  and  C_5
REMARK    3  A    between atoms: N_10  and  S_11
REMARK    4  A    between atoms: S_11  and  C_14
REMARK    5  A    between atoms: C_19  and  N_20
REMARK    6  A    between atoms: N_27  and  C_28
REMARK    7  A    between atoms: C_28  and  C_29
REMARK                            x       y       z     vdW  Elec       q    Type
REMARK                         _______ _______ _______ _____ _____    ______ ____
ROOT
ATOM      5  C   UNL     1      -0.608   0.793  24.868  0.00  0.00    +0.184 C 
ATOM      6  C   UNL     1      -0.294   0.031  24.807  0.00  0.00    +0.076 C 
ATOM      7  C   UNL     1      -0.774  -0.624  24.946  0.00  0.00    +0.076 A 
ATOM      8  C   UNL     1      -1.567  -0.520  25.147  0.00  0.00    +0.070 A 
ATOM      9  C   UNL     1      -1.881   0.242  25.208  0.00  0.00    +0.141 C 
ATOM     10  N   UNL     1      -1.401   0.897  25.068  0.00  0.00    -0.140 NA
ATOM     27  N   UNL     1      -1.904  -1.265  25.252  0.00  0.00    -0.307 N 
ATOM     36  C   UNL     1      -1.320  -1.831  25.116  0.00  0.00    +0.178 A 
ATOM     37  N   UNL     1      -0.622  -1.435  24.927  0.00  0.00    -0.229 NA
ENDROOT
BRANCH  10  11
ATOM     11  S   UNL     1      -1.714   1.658  25.130  0.00  0.00    +0.064 S 
ATOM     12  O   UNL     1      -1.767   1.702  24.308  0.00  0.00    -0.153 OA
ATOM     13  O   UNL     1      -1.660   1.614  25.952  0.00  0.00    -0.153 OA
BRANCH  11  14
ATOM     14  C   UNL     1      -2.027   2.419  25.191  0.00  0.00    +0.122 A 
ATOM     15  C   UNL     1      -2.792   2.572  24.925  0.00  0.00    +0.020 A 
ATOM     16  C   UNL     1      -3.245   1.965  24.598  0.00  0.00    +0.001 A 
ATOM     17  C   UNL     1      -4.010   2.118  24.332  0.00  0.00    +0.001 A 
ATOM     18  C   UNL     1      -4.324   2.880  24.393  0.00  0.00    +0.015 A 
ATOM     19  C   UNL     1      -3.871   3.487  24.720  0.00  0.00    +0.048 A 
ATOM     23  C   UNL     1      -3.105   3.334  24.986  0.00  0.00    +0.015 A 
ATOM     24  C   UNL     1      -2.653   3.941  25.313  0.00  0.00    +0.001 A 
ATOM     25  C   UNL     1      -1.888   3.787  25.579  0.00  0.00    +0.001 A 
ATOM     26  C   UNL     1      -1.574   3.026  25.518  0.00  0.00    +0.020 A 
BRANCH  19  20
ATOM     20  N   UNL     1      -4.185   4.248  24.781  0.00  0.00    -0.304 N 
ATOM     21  C   UNL     1      -4.027   4.807  24.196  0.00  0.00    +0.112 C 
ATOM     22  C   UNL     1      -4.656   4.450  25.429  0.00  0.00    +0.112 C 
ENDBRANCH  19  20
ENDBRANCH  11  14
ENDBRANCH  10  11
BRANCH   5   3
ATOM      3  C   UNL     1      -0.127   1.449  24.728  0.00  0.00    +0.334 C 
ATOM      4  O   UNL     1       0.164   1.891  25.361  0.00  0.00    -0.249 OA
BRANCH   3   2
ATOM      1  C   UNL     1       0.837   1.876  23.763  0.00  0.00    +0.256 C 
ATOM      2  O   UNL     1       0.063   1.663  23.954  0.00  0.00    -0.443 OA
ENDBRANCH   3   2
ENDBRANCH   5   3
BRANCH  27  28
ATOM     28  C   UNL     1      -2.689  -1.418  25.457  0.00  0.00    +0.134 C 
BRANCH  28  29
ATOM     29  C   UNL     1      -3.177  -1.831  24.936  0.00  0.00    +0.000 A 
ATOM     30  C   UNL     1      -3.700  -1.420  24.448  0.00  0.00    -0.002 A 
ATOM     31  C   UNL     1      -4.189  -1.833  23.926  0.00  0.00    +0.011 A 
ATOM     32  C   UNL     1      -4.155  -2.657  23.894  0.00  0.00    +0.058 A 
ATOM     33 CL   UNL     1      -4.643  -3.069  23.373  0.00  0.00    -0.082 Cl
ATOM     34  C   UNL     1      -3.632  -3.067  24.383  0.00  0.00    +0.011 A 
ATOM     35  C   UNL     1      -3.144  -2.655  24.904  0.00  0.00    -0.002 A 
ENDBRANCH  28  29
ENDBRANCH  27  28
TORSDOF 7
ENDMDL
MODEL 2
REMARK VINA RESULT:     -11.4      1.477      4.521
REMARK  Name = 
REMARK  7 active torsions:
REMARK  status: ('A' for Active; 'I' for Inactive)
REMARK    1  A    between atoms: O_2  and  C_3
REMARK    2  A    between atoms: C_3  and  C_5
REMARK    3  A    between atoms: N_10  and  S_11
REMARK    4  A    between atoms: S_11  and  C_14
REMARK    5  A    between atoms: C_19  and  N_20
REMARK    6  A    between atoms: N_27  and  C_28
REMARK    7  A    between atoms: C_28  and  C_29
REMARK                            x       y       z     vdW  Elec       q    Type
REMARK                         _______ _______ _______ _____ _____    ______ ____
ROOT
ATOM      5  C   UNL     1      -1.081   2.629  25.288  0.00  0.00    +0.184 C 
ATOM      6  C   UNL     1      -1.346   3.396  25.441  0.00  0.00    +0.076 C 
ATOM      7  C   UNL     1      -2.104   3.624  25.210  0.00  0.00    +0.076 A 
ATOM      8  C   UNL     1      -2.598   3.086  24.827  0.00  0.00    +0.070 A 
ATOM      9  C   UNL     1      -2.332   2.319  24.674  0.00  0.00    +0.141 C 
ATOM     10  N   UNL     1      -1.574   2.091  24.904  0.00  0.00    -0.140 NA
ATOM     27  N   UNL     1      -3.312   3.464  24.665  0.00  0.00    -0.307 N 
ATOM     36  C   UNL     1      -3.261   4.237  24.949  0.00  0.00    +0.178 A 
ATOM     37  N   UNL     1      -2.515   4.336  25.285  0.00  0.00    -0.229 NA
ENDROOT
BRANCH  10  11
ATOM     11  S   UNL     1      -1.309   1.325  24.752  0.00  0.00    +0.064 S 
ATOM     12  O   UNL     1      -1.377   1.142  25.553  0.00  0.00    -0.153 OA
ATOM     13  O   UNL     1      -1.240   1.509  23.950  0.00  0.00    -0.153 OA
BRANCH  11  14
ATOM     14  C   UNL     1      -1.044   0.559  24.599  0.00  0.00    +0.122 A 
ATOM     15  C   UNL     1      -1.507  -0.088  24.815  0.00  0.00    +0.020 A 
ATOM     16  C   UNL     1      -2.235   0.030  25.183  0.00  0.00    +0.001 A 
ATOM     17  C   UNL     1      -2.699  -0.617  25.399  0.00  0.00    +0.001 A 
ATOM     18  C   UNL     1      -2.433  -1.384  25.246  0.00  0.00    +0.015 A 
ATOM     19  C   UNL     1      -1.705  -1.502  24.878  0.00  0.00    +0.048 A 
ATOM     23  C   UNL     1      -1.241  -0.855  24.662  0.00  0.00    +0.015 A 
ATOM     24  C   UNL     1      -0.513  -0.973  24.293  0.00  0.00    +0.001 A 
ATOM     25  C   UNL     1      -0.050  -0.326  24.078  0.00  0.00    +0.001 A 
ATOM     26  C   UNL     1      -0.316   0.441  24.231  0.00  0.00    +0.020 A 
BRANCH  19  20
ATOM     20  N   UNL     1      -1.440  -2.269  24.725  0.00  0.00    -0.304 N 
ATOM     21  C   UNL     1      -0.870  -2.613  25.212  0.00  0.00    +0.112 C 
ATOM     22  C   UNL     1      -1.745  -2.691  24.085  0.00  0.00    +0.112 C 
ENDBRANCH  19  20
ENDBRANCH  11  14
ENDBRANCH  10  11
BRANCH   5   3
ATOM      3  C   UNL     1      -0.322   2.402  25.519  0.00  0.00    +0.334 C 
ATOM      4  O   UNL     1       0.289   2.377  24.965  0.00  0.00    -0.249 OA
BRANCH   3   2
ATOM      1  C   UNL     1       0.488   2.505  26.693  0.00  0.00    +0.256 C 
ATOM      2  O   UNL     1      -0.174   2.200  26.305  0.00  0.00    -0.443 OA
ENDBRANCH   3   2
ENDBRANCH   5   3
BRANCH  27  28
ATOM     28  C   UNL     1      -3.964   3.130  24.286  0.00  0.00    +0.134 C 
BRANCH  28  29
ATOM     29  C   UNL     1      -4.612   2.875  24.729  0.00  0.00    +0.000 A 
ATOM     30  C   UNL     1      -4.900   2.107  24.634  0.00  0.00    -0.002 A 
ATOM     31  C   UNL     1      -5.548   1.852  25.077  0.00  0.00    +0.011 A 
ATOM     32  C   UNL     1      -5.907   2.364  25.614  0.00  0.00    +0.058 A 
ATOM     33 CL   UNL     1      -6.554   2.109  26.057  0.00  0.00    -0.082 Cl
ATOM     34  C   UNL     1      -5.618   3.131  25.709  0.00  0.00    +0.011 A 
ATOM     35  C   UNL     1      -4.971   3.387  25.267  0.00  0.00    -0.002 A 
ENDBRANCH  28  29
ENDBRANCH  27  28
TORSDOF 7
ENDMDL
MODEL 3
REMARK VINA RESULT:     -11.0      2.014      2.992
REMARK  Name = 
REMARK  7 active torsions:
REMARK  status: ('A' for Active; 'I' for Inactive)
REMARK    1  A    between atoms: O_2  and  C_3
REMARK    2  A    between atoms: C_3  and  C_5
REMARK    3  A    between atoms: N_10  and  S_11
REMARK    4  A    between atoms: S_11  and  C_14
REMARK    5  A    between atoms: C_19  and  N_20
REMARK    6  A    between atoms: N_27  and  C_28
REMARK    7  A    between atoms: C_28  and  C_29
REMARK                            x       y       z     vdW  Elec       q    Type
REMARK                         _______ _______ _______ _____ _____    ______ ____
ROOT
ATOM      5  C   UNL     1      -1.418   3.296  25.013  0.00  0.00    +0.184 C 
ATOM      6  C   UNL     1      -0.611   3.164  24.896  0.00  0.00    +0.076 C 
ATOM      7  C   UNL     1      -0.352   2.442  24.593  0.00  0.00    +0.076 A 
ATOM      8  C   UNL     1      -0.898   1.853  24.407  0.00  0.00    +0.070 A 
ATOM      9  C   UNL     1      -1.705   1.985  24.524  0.00  0.00    +0.141 C 
ATOM     10  N   UNL     1      -1.964   2.707  24.827  0.00  0.00    -0.140 NA
ATOM     27  N   UNL     1      -0.482   1.202  24.119  0.00  0.00    -0.307 N 
ATOM     36  C   UNL     1       0.321   1.388  24.127  0.00  0.00    +0.178 A 
ATOM     37  N   UNL     1       0.402   2.155  24.420  0.00  0.00    -0.229 NA
ENDROOT
BRANCH  10  11
ATOM     11  S   UNL     1      -2.770   2.839  24.943  0.00  0.00    +0.064 S 
ATOM     12  O   UNL     1      -2.855   3.026  24.144  0.00  0.00    -0.153 OA
ATOM     13  O   UNL     1      -2.685   2.653  25.742  0.00  0.00    -0.153 OA
BRANCH  11  14
ATOM     14  C   UNL     1      -3.576   2.972  25.060  0.00  0.00    +0.122 A 
ATOM     15  C   UNL     1      -4.099   2.335  25.083  0.00  0.00    +0.020 A 
ATOM     16  C   UNL     1      -3.817   1.565  24.990  0.00  0.00    +0.001 A 
ATOM     17  C   UNL     1      -4.340   0.928  25.013  0.00  0.00    +0.001 A 
ATOM     18  C   UNL     1      -5.147   1.061  25.130  0.00  0.00    +0.015 A 
ATOM     19  C   UNL     1      -5.429   1.830  25.223  0.00  0.00    +0.048 A 
ATOM     23  C   UNL     1      -4.906   2.468  25.200  0.00  0.00    +0.015 A 
ATOM     24  C   UNL     1      -5.187   3.237  25.294  0.00  0.00    +0.001 A 
ATOM     25  C   UNL     1      -4.664   3.873  25.270  0.00  0.00    +0.001 A 
ATOM     26  C   UNL     1      -3.858   3.741  25.154  0.00  0.00    +0.020 A 
BRANCH  19  20
ATOM     20  N   UNL     1      -6.235   1.962  25.340  0.00  0.00    -0.304 N 
ATOM     21  C   UNL     1      -6.744   2.007  24.692  0.00  0.00    +0.112 C 
ATOM     22  C   UNL     1      -6.532   2.050  26.105  0.00  0.00    +0.112 C 
ENDBRANCH  19  20
ENDBRANCH  11  14
ENDBRANCH  10  11
BRANCH   5   3
ATOM      3  C   UNL     1      -1.677   4.019  25.316  0.00  0.00    +0.334 C 
ATOM      4  O   UNL     1      -1.898   4.080  26.109  0.00  0.00    -0.249 OA
BRANCH   3   2
ATOM      1  C   UNL     1      -1.391   5.398  25.074  0.00  0.00    +0.256 C 
ATOM      2  O   UNL     1      -1.716   4.681  24.825  0.00  0.00    -0.443 OA
ENDBRANCH   3   2
ENDBRANCH   5   3
BRANCH  27  28
ATOM     28  C   UNL     1      -0.811   0.488  23.867  0.00  0.00    +0.134 C 
BRANCH  28  29
ATOM     29  C   UNL     1      -0.627  -0.213  24.262  0.00  0.00    +0.000 A 
ATOM     30  C   UNL     1       0.002  -0.679  24.002  0.00  0.00    -0.002 A 
ATOM     31  C   UNL     1       0.186  -1.380  24.397  0.00  0.00    +0.011 A 
ATOM     32  C   UNL     1      -0.259  -1.614  25.051  0.00  0.00    +0.058 A 
ATOM     33 CL   UNL     1      -0.075  -2.314  25.445  0.00  0.00    -0.082 Cl
ATOM     34  C   UNL     1      -0.888  -1.147  25.310  0.00  0.00    +0.011 A 
ATOM     35  C   UNL     1      -1.072  -0.447  24.916  0.00  0.00    -0.002 A 
ENDBRANCH  28  29
ENDBRANCH  27  28
TORSDOF 7
ENDMDL
MODEL 4
REMARK VINA RESULT:     -10.9      2.296      5.595
REMARK  Name = 
REMARK  7 active torsions:
REMARK  status: ('A' for Active; 'I' for Inactive)
REMARK    1  A    between atoms: O_2  and  C_3
REMARK    2  A    between atoms: C_3  and  C_5
REMARK    3  A    between atoms: N_10  and  S_11
REMARK    4  A    between atoms: S_11  and  C_14
REMARK    5  A    between atoms: C_19  and  N_20
REMARK    6  A    between atoms: N_27  and  C_28
REMARK    7  A    between atoms: C_28  and  C_29
REMARK                            x       y       z     vdW  Elec       q    Type
REMARK                         _______ _______ _______ _____ _____    ______ ____
ROOT
ATOM      5  C   UNL     1      -4.712   2.161  25.147  0.00  0.00    +0.184 C 
ATOM      6  C   UNL     1      -4.745   2.952  25.381  0.00  0.00    +0.076 C 
ATOM      7  C   UNL     1      -4.050   3.359  25.557  0.00  0.00    +0.076 A 
ATOM      8  C   UNL     1      -3.322   2.977  25.499  0.00  0.00    +0.070 A 
ATOM      9  C   UNL     1      -3.289   2.185  25.265  0.00  0.00    +0.141 C 
ATOM     10  N   UNL     1      -3.984   1.778  25.089  0.00  0.00    -0.140 NA
ATOM     27  N   UNL     1      -2.733   3.515  25.706  0.00  0.00    -0.307 N 
ATOM     36  C   UNL     1      -3.097   4.232  25.892  0.00  0.00    +0.178 A 
ATOM     37  N   UNL     1      -3.911   4.135  25.800  0.00  0.00    -0.229 NA
ENDROOT
BRANCH  10  11
ATOM     11  S   UNL     1      -3.951   0.988  24.855  0.00  0.00    +0.064 S 
ATOM     12  O   UNL     1      -3.711   1.221  24.101  0.00  0.00    -0.153 OA
ATOM     13  O   UNL     1      -4.190   0.755  25.610  0.00  0.00    -0.153 OA
BRANCH  11  14
ATOM     14  C   UNL     1      -3.918   0.197  24.622  0.00  0.00    +0.122 A 
ATOM     15  C   UNL     1      -3.329  -0.296  24.920  0.00  0.00    +0.020 A 
ATOM     16  C   UNL     1      -2.772  -0.001  25.453  0.00  0.00    +0.001 A 
ATOM     17  C   UNL     1      -2.184  -0.495  25.751  0.00  0.00    +0.001 A 
ATOM     18  C   UNL     1      -2.151  -1.286  25.517  0.00  0.00    +0.015 A 
ATOM     19  C   UNL     1      -2.707  -1.582  24.985  0.00  0.00    +0.048 A 
ATOM     23  C   UNL     1      -3.296  -1.088  24.686  0.00  0.00    +0.015 A 
ATOM     24  C   UNL     1      -3.852  -1.384  24.154  0.00  0.00    +0.001 A 
ATOM     25  C   UNL     1      -4.441  -0.890  23.855  0.00  0.00    +0.001 A 
ATOM     26  C   UNL     1      -4.474  -0.098  24.090  0.00  0.00    +0.020 A 
BRANCH  19  20
ATOM     20  N   UNL     1      -2.674  -2.372  24.751  0.00  0.00    -0.304 N 
ATOM     21  C   UNL     1      -3.220  -2.914  25.048  0.00  0.00    +0.112 C 
ATOM     22  C   UNL     1      -2.093  -2.622  24.219  0.00  0.00    +0.112 C 
ENDBRANCH  19  20
ENDBRANCH  11  14
ENDBRANCH  10  11
BRANCH   5   3
ATOM      3  C   UNL     1      -5.408   1.754  24.971  0.00  0.00    +0.334 C 
ATOM      4  O   UNL     1      -5.632   1.638  24.185  0.00  0.00    -0.249 OA
BRANCH   3   2
ATOM      1  C   UNL     1      -6.692   1.616  25.585  0.00  0.00    +0.256 C 
ATOM      2  O   UNL     1      -5.880   1.463  25.581  0.00  0.00    -0.443 OA
ENDBRANCH   3   2
ENDBRANCH   5   3
BRANCH  27  28
ATOM     28  C   UNL     1      -1.922   3.365  25.725  0.00  0.00    +0.134 C 
BRANCH  28  29
ATOM     29  C   UNL     1      -1.412   3.799  25.243  0.00  0.00    +0.000 A 
ATOM     30  C   UNL     1      -1.330   4.612  25.356  0.00  0.00    -0.002 A 
ATOM     31  C   UNL     1      -0.819   5.046  24.875  0.00  0.00    +0.011 A 
ATOM     32  C   UNL     1      -0.391   4.666  24.280  0.00  0.00    +0.058 A 
ATOM     33 CL   UNL     1       0.119   5.100  23.799  0.00  0.00    -0.082 Cl
ATOM     34  C   UNL     1      -0.473   3.853  24.168  0.00  0.00    +0.011 A 
ATOM     35  C   UNL     1      -0.983   3.419  24.649  0.00  0.00    -0.002 A 
ENDBRANCH  28  29
ENDBRANCH  27  28
TORSDOF 7
ENDMDL
MODEL 5
REMARK VINA RESULT:     -10.9      1.862      3.250
REMARK  Name = 
REMARK  7 active torsions:
REMARK  status: ('A' for Active; 'I' for Inactive)
REMARK    1  A    between atoms: O_2  and  C_3
REMARK    2  A    between atoms: C_3  and  C_5
REMARK    3  A    between atoms: N_10  and  S_11
REMARK    4  A    between atoms: S_11  and  C_14
REMARK    5  A    between atoms: C_19  and  N_20
REMARK    6  A    between atoms: N_27  and  C_28
REMARK    7  A    between atoms: C_28  and  C_29
REMARK                            x       y       z     vdW  Elec       q    Type
REMARK                         _______ _______ _______ _____ _____    ______ ____
ROOT
ATOM      5  C   UNL     1      -4.574   1.065  24.824  0.00  0.00    +0.184 C 
ATOM      6  C   UNL     1      -4.791   0.269  24.852  0.00  0.00    +0.076 C 
ATOM      7  C   UNL     1      -4.247  -0.314  24.643  0.00  0.00    +0.076 A 
ATOM      8  C   UNL     1      -3.486  -0.102  24.407  0.00  0.00    +0.070 A 
ATOM      9  C   UNL     1      -3.269   0.695  24.379  0.00  0.00    +0.141 C 
ATOM     10  N   UNL     1      -3.814   1.277  24.588  0.00  0.00    -0.140 NA
ATOM     27  N   UNL     1      -3.070  -0.792  24.234  0.00  0.00    -0.307 N 
ATOM     36  C   UNL     1      -3.574  -1.433  24.364  0.00  0.00    +0.178 A 
ATOM     37  N   UNL     1      -4.301  -1.137  24.617  0.00  0.00    -0.229 NA
ENDROOT
BRANCH  10  11
ATOM     11  S   UNL     1      -3.597   2.073  24.560  0.00  0.00    +0.064 S 
ATOM     12  O   UNL     1      -3.637   2.055  23.736  0.00  0.00    -0.153 OA
ATOM     13  O   UNL     1      -3.557   2.091  25.384  0.00  0.00    -0.153 OA
BRANCH  11  14
ATOM     14  C   UNL     1      -3.381   2.869  24.532  0.00  0.00    +0.122 A 
ATOM     15  C   UNL     1      -2.661   3.111  24.852  0.00  0.00    +0.020 A 
ATOM     16  C   UNL     1      -2.156   2.558  25.200  0.00  0.00    +0.001 A 
ATOM     17  C   UNL     1      -1.436   2.801  25.519  0.00  0.00    +0.001 A 
ATOM     18  C   UNL     1      -1.219   3.597  25.492  0.00  0.00    +0.015 A 
ATOM     19  C   UNL     1      -1.723   4.150  25.144  0.00  0.00    +0.048 A 
ATOM     23  C   UNL     1      -2.444   3.907  24.824  0.00  0.00    +0.015 A 
ATOM     24  C   UNL     1      -2.948   4.460  24.477  0.00  0.00    +0.001 A 
ATOM     25  C   UNL     1      -3.668   4.217  24.157  0.00  0.00    +0.001 A 
ATOM     26  C   UNL     1      -3.885   3.421  24.185  0.00  0.00    +0.020 A 
BRANCH  19  20
ATOM     20  N   UNL     1      -1.506   4.945  25.116  0.00  0.00    -0.304 N 
ATOM     21  C   UNL     1      -1.950   5.509  25.524  0.00  0.00    +0.112 C 
ATOM     22  C   UNL     1      -0.845   5.178  24.680  0.00  0.00    +0.112 C 
ENDBRANCH  19  20
ENDBRANCH  11  14
ENDBRANCH  10  11
BRANCH   5   3
ATOM      3  C   UNL     1      -5.120   1.648  25.033  0.00  0.00    +0.334 C 
ATOM      4  O   UNL     1      -5.513   2.076  24.447  0.00  0.00    -0.249 OA
BRANCH   3   2
ATOM      1  C   UNL     1      -6.040   1.982  26.076  0.00  0.00    +0.256 C 
ATOM      2  O   UNL     1      -5.272   1.804  25.829  0.00  0.00    -0.443 OA
ENDBRANCH   3   2
ENDBRANCH   5   3
BRANCH  27  28
ATOM     28  C   UNL     1      -2.288  -0.837  23.977  0.00  0.00    +0.134 C 
BRANCH  28  29
ATOM     29  C   UNL     1      -1.734  -1.264  24.414  0.00  0.00    +0.000 A 
ATOM     30  C   UNL     1      -1.207  -0.869  24.911  0.00  0.00    -0.002 A 
ATOM     31  C   UNL     1      -0.653  -1.296  25.349  0.00  0.00    +0.011 A 
ATOM     32  C   UNL     1      -0.626  -2.118  25.289  0.00  0.00    +0.058 A 
ATOM     33 CL   UNL     1      -0.072  -2.545  25.727  0.00  0.00    -0.082 Cl
ATOM     34  C   UNL     1      -1.153  -2.513  24.792  0.00  0.00    +0.011 A 
ATOM     35  C   UNL     1      -1.707  -2.087  24.355  0.00  0.00    -0.002 A 
ENDBRANCH  28  29
ENDBRANCH  27  28
TORSDOF 7
ENDMDL
MODEL 6
REMARK VINA RESULT:     -10.8      1.834      4.687
REMARK  Name = 
REMARK  7 active torsions:
REMARK  status: ('A' for Active; 'I' for Inactive)
REMARK    1  A    between atoms: O_2  and  C_3
REMARK    2  A    between atoms: C_3  and  C_5
REMARK    3  A    between atoms: N_10  and  S_11
REMARK    4  A    between atoms: S_11  and  C_14
REMARK    5  A    between atoms: C_19  and  N_20
REMARK    6  A    between atoms: N_27  and  C_28
REMARK    7  A    between atoms: C_28  and  C_29
REMARK                            x       y       z     vdW  Elec       q    Type
REMARK                         _______ _______ _______ _____ _____    ______ ____
ROOT
ATOM      5  C   UNL     1      -0.114   0.785  24.253  0.00  0.00    +0.184 C 
ATOM      6  C   UNL     1       0.193   1.552  24.263  0.00  0.00    +0.076 C 
ATOM      7  C   UNL     1      -0.195   2.146  24.683  0.00  0.00    +0.076 A 
ATOM      8  C   UNL     1      -0.890   1.975  25.091  0.00  0.00    +0.070 A 
ATOM      9  C   UNL     1      -1.198   1.209  25.081  0.00  0.00    +0.141 C 
ATOM     10  N   UNL     1      -0.809   0.615  24.662  0.00  0.00    -0.140 NA
ATOM     27  N   UNL     1      -1.150   2.669  25.454  0.00  0.00    -0.307 N 
ATOM     36  C   UNL     1      -0.615   3.269  25.269  0.00  0.00    +0.178 A 
ATOM     37  N   UNL     1      -0.025   2.946  24.793  0.00  0.00    -0.229 NA
ENDROOT
BRANCH  10  11
ATOM     11  S   UNL     1      -1.117  -0.151  24.651  0.00  0.00    +0.064 S 
ATOM     12  O   UNL     1      -0.835  -0.275  25.417  0.00  0.00    -0.153 OA
ATOM     13  O   UNL     1      -1.399  -0.027  23.886  0.00  0.00    -0.153 OA
BRANCH  11  14
ATOM     14  C   UNL     1      -1.424  -0.916  24.641  0.00  0.00    +0.122 A 
ATOM     15  C   UNL     1      -2.238  -1.033  24.580  0.00  0.00    +0.020 A 
ATOM     16  C   UNL     1      -2.746  -0.385  24.529  0.00  0.00    +0.001 A 
ATOM     17  C   UNL     1      -3.559  -0.501  24.468  0.00  0.00    +0.001 A 
ATOM     18  C   UNL     1      -3.867  -1.268  24.457  0.00  0.00    +0.015 A 
ATOM     19  C   UNL     1      -3.360  -1.916  24.508  0.00  0.00    +0.048 A 
ATOM     23  C   UNL     1      -2.545  -1.799  24.569  0.00  0.00    +0.015 A 
ATOM     24  C   UNL     1      -2.039  -2.448  24.620  0.00  0.00    +0.001 A 
ATOM     25  C   UNL     1      -1.225  -2.331  24.681  0.00  0.00    +0.001 A 
ATOM     26  C   UNL     1      -0.917  -1.565  24.691  0.00  0.00    +0.020 A 
BRANCH  19  20
ATOM     20  N   UNL     1      -3.667  -2.681  24.498  0.00  0.00    -0.304 N 
ATOM     21  C   UNL     1      -3.966  -2.997  23.796  0.00  0.00    +0.112 C 
ATOM     22  C   UNL     1      -3.676  -3.132  25.189  0.00  0.00    +0.112 C 
ENDBRANCH  19  20
ENDBRANCH  11  14
ENDBRANCH  10  11
BRANCH   5   3
ATOM      3  C   UNL     1       0.275   0.191  23.833  0.00  0.00    +0.334 C 
ATOM      4  O   UNL     1       0.699  -0.391  24.237  0.00  0.00    -0.249 OA
BRANCH   3   2
ATOM      1  C   UNL     1       0.908  -0.031  22.571  0.00  0.00    +0.256 C 
ATOM      2  O   UNL     1       0.240   0.178  23.009  0.00  0.00    -0.443 OA
ENDBRANCH   3   2
ENDBRANCH   5   3
BRANCH  27  28
ATOM     28  C   UNL     1      -1.826   2.749  25.919  0.00  0.00    +0.134 C 
BRANCH  28  29
ATOM     29  C   UNL     1      -2.438   3.247  25.675  0.00  0.00    +0.000 A 
ATOM     30  C   UNL     1      -3.056   2.946  25.219  0.00  0.00    -0.002 A 
ATOM     31  C   UNL     1      -3.668   3.443  24.974  0.00  0.00    +0.011 A 
ATOM     32  C   UNL     1      -3.661   4.240  25.186  0.00  0.00    +0.058 A 
ATOM     33 CL   UNL     1      -4.272   4.737  24.942  0.00  0.00    -0.082 Cl
ATOM     34  C   UNL     1      -3.042   4.540  25.643  0.00  0.00    +0.011 A 
ATOM     35  C   UNL     1      -2.431   4.044  25.887  0.00  0.00    -0.002 A 
ENDBRANCH  28  29
ENDBRANCH  27  28
TORSDOF 7
ENDMDL
MODEL 7
REMARK VINA RESULT:     -10.3      2.072      3.783
REMARK  Name = 
REMARK  7 active torsions:
REMARK  status: ('A' for Active; 'I' for Inactive)
REMARK    1  A    between atoms: O_2  and  C_3
REMARK    2  A    between atoms: C_3  and  C_5
REMARK    3  A    between atoms: N_10  and  S_11
REMARK    4  A    between atoms: S_11  and  C_14
REMARK    5  A    between atoms: C_19  and  N_20
REMARK    6  A    between atoms: N_27  and  C_28
REMARK    7  A    between atoms: C_28  and  C_29
REMARK                            x       y       z     vdW  Elec       q    Type
REMARK                         _______ _______ _______ _____ _____    ______ ____
ROOT
ATOM      5  C   UNL     1      -2.143  -0.886  24.993  0.00  0.00    +0.184 C 
ATOM      6  C   UNL     1      -1.491  -1.391  24.954  0.00  0.00    +0.076 C 
ATOM      7  C   UNL     1      -0.804  -1.148  24.568  0.00  0.00    +0.076 A 
ATOM      8  C   UNL     1      -0.768  -0.401  24.221  0.00  0.00    +0.070 A 
ATOM      9  C   UNL     1      -1.421   0.104  24.260  0.00  0.00    +0.141 C 
ATOM     10  N   UNL     1      -2.108  -0.139  24.646  0.00  0.00    -0.140 NA
ATOM     27  N   UNL     1      -0.023  -0.313  23.881  0.00  0.00    -0.307 N 
ATOM     36  C   UNL     1       0.403  -1.006  24.017  0.00  0.00    +0.178 A 
ATOM     37  N   UNL     1      -0.079  -1.522  24.442  0.00  0.00    -0.229 NA
ENDROOT
BRANCH  10  11
ATOM     11  S   UNL     1      -2.759   0.365  24.685  0.00  0.00    +0.064 S 
ATOM     12  O   UNL     1      -2.917   0.222  23.888  0.00  0.00    -0.153 OA
ATOM     13  O   UNL     1      -2.601   0.508  25.482  0.00  0.00    -0.153 OA
BRANCH  11  14
ATOM     14  C   UNL     1      -3.411   0.869  24.724  0.00  0.00    +0.122 A 
ATOM     15  C   UNL     1      -3.301   1.675  24.860  0.00  0.00    +0.020 A 
ATOM     16  C   UNL     1      -2.540   1.977  24.958  0.00  0.00    +0.001 A 
ATOM     17  C   UNL     1      -2.430   2.783  25.094  0.00  0.00    +0.001 A 
ATOM     18  C   UNL     1      -3.083   3.288  25.133  0.00  0.00    +0.015 A 
ATOM     19  C   UNL     1      -3.843   2.986  25.035  0.00  0.00    +0.048 A 
ATOM     23  C   UNL     1      -3.954   2.180  24.899  0.00  0.00    +0.015 A 
ATOM     24  C   UNL     1      -4.715   1.878  24.801  0.00  0.00    +0.001 A 
ATOM     25  C   UNL     1      -4.825   1.072  24.665  0.00  0.00    +0.001 A 
ATOM     26  C   UNL     1      -4.172   0.567  24.626  0.00  0.00    +0.020 A 
BRANCH  19  20
ATOM     20  N   UNL     1      -4.495   3.490  25.074  0.00  0.00    -0.304 N 
ATOM     21  C   UNL     1      -4.920   3.563  25.778  0.00  0.00    +0.112 C 
ATOM     22  C   UNL     1      -4.723   3.923  24.409  0.00  0.00    +0.112 C 
ENDBRANCH  19  20
ENDBRANCH  11  14
ENDBRANCH  10  11
BRANCH   5   3
ATOM      3  C   UNL     1      -2.830  -1.130  25.379  0.00  0.00    +0.334 C 
ATOM      4  O   UNL     1      -2.979  -0.886  26.153  0.00  0.00    -0.249 OA
BRANCH   3   2
ATOM      1  C   UNL     1      -3.616  -2.324  25.344  0.00  0.00    +0.256 C 
ATOM      2  O   UNL     1      -3.370  -1.619  24.991  0.00  0.00    -0.443 OA
ENDBRANCH   3   2
ENDBRANCH   5   3
BRANCH  27  28
ATOM     28  C   UNL     1       0.250   0.351  23.474  0.00  0.00    +0.134 C 
BRANCH  28  29
ATOM     29  C   UNL     1       1.029   0.376  23.202  0.00  0.00    +0.000 A 
ATOM     30  C   UNL     1       1.249  -0.069  22.543  0.00  0.00    -0.002 A 
ATOM     31  C   UNL     1       2.028  -0.044  22.271  0.00  0.00    +0.011 A 
ATOM     32  C   UNL     1       2.585   0.426  22.656  0.00  0.00    +0.058 A 
ATOM     33 CL   UNL     1       3.363   0.451  22.384  0.00  0.00    -0.082 Cl
ATOM     34  C   UNL     1       2.364   0.871  23.315  0.00  0.00    +0.011 A 
ATOM     35  C   UNL     1       1.586   0.846  23.588  0.00  0.00    -0.002 A 
ENDBRANCH  28  29
ENDBRANCH  27  28
TORSDOF 7
ENDMDL
