REMARK  Name = 
REMARK  4 active torsions:
REMARK  status: ('A' for Active; 'I' for Inactive)
REMARK    1  A    between atoms: N_4  and  C_5
REMARK    2  A    between atoms: C_5  and  C_6
REMARK    3  A    between atoms: C_8  and  C_9
REMARK    4  A    between atoms: C_9  and  C_10
REMARK                            x       y       z     vdW  Elec       q    Type
REMARK                         _______ _______ _______ _____ _____    ______ ____
ROOT
ATOM      6  C   UNL     1      -0.963  -4.186   0.000  0.00  0.00    +0.170 C 
ATOM      7  O   UNL     1      -0.963  -3.361   0.000  0.00  0.00    -0.351 OA
ATOM      8  C   UNL     1      -0.178  -3.106   0.000  0.00  0.00    +0.157 C 
ATOM     21  C   UNL     1       0.307  -3.774   0.000  0.00  0.00    +0.212 C 
ATOM     22  O   UNL     1       1.132  -3.774   0.000  0.00  0.00    -0.218 OA
ATOM     23  C   UNL     1      -0.178  -4.441   0.000  0.00  0.00    +0.213 C 
ATOM     24  O   UNL     1       0.077  -5.226   0.000  0.00  0.00    -0.218 OA
ENDROOT
BRANCH   6   5
ATOM      5  C   UNL     1      -1.630  -4.671   0.000  0.00  0.00    +0.147 C 
BRANCH   5   4
ATOM      1  C   UNL     1      -2.125  -6.797   0.000  0.00  0.00    +0.096 C 
ATOM      2  C   UNL     1      -2.211  -5.976   0.000  0.00  0.00    +0.242 C 
ATOM      3  O   UNL     1      -2.965  -5.641   0.000  0.00  0.00    -0.273 OA
ATOM      4  N   UNL     1      -1.544  -5.492   0.000  0.00  0.00    -0.203 NA
ENDBRANCH   5   4
ENDBRANCH   6   5
BRANCH   8   9
ATOM      9  C   UNL     1       0.077  -2.321   0.000  0.00  0.00    +0.118 C 
BRANCH   9  10
ATOM     10  C   UNL     1       0.884  -2.150   0.000  0.00  0.00    +0.232 C 
ATOM     11  O   UNL     1       1.436  -2.763   0.000  0.00  0.00    -0.274 OA
ATOM     12  N   UNL     1       1.139  -1.365   0.000  0.00  0.00    -0.259 N 
ATOM     13  C   UNL     1       0.654  -0.698   0.000  0.00  0.00    +0.103 C 
ATOM     14  C   UNL     1       1.139  -0.030   0.000  0.00  0.00    +0.049 C 
ATOM     15  C   UNL     1       1.923  -0.285   0.000  0.00  0.00    -0.007 A 
ATOM     16  C   UNL     1       2.638   0.127   0.000  0.00  0.00    -0.003 A 
ATOM     17  C   UNL     1       3.352  -0.285   0.000  0.00  0.00    -0.000 A 
ATOM     18  C   UNL     1       3.352  -1.110   0.000  0.00  0.00    +0.001 A 
ATOM     19  C   UNL     1       2.638  -1.523   0.000  0.00  0.00    +0.015 A 
ATOM     20  C   UNL     1       1.923  -1.110   0.000  0.00  0.00    +0.050 A 
ENDBRANCH   9  10
ENDBRANCH   8   9
TORSDOF 4
