MODEL 1
REMARK VINA RESULT:     -13.9      0.000      0.000
REMARK  Name = 
REMARK  5 active torsions:
REMARK  status: ('A' for Active; 'I' for Inactive)
REMARK    1  A    between atoms: C_7  and  C_8
REMARK    2  A    between atoms: C_11  and  C_13
REMARK    3  A    between atoms: N_16  and  C_17
REMARK    4  A    between atoms: C_17  and  C_18
REMARK    5  A    between atoms: C_21  and  C_24
REMARK                            x       y       z     vdW  Elec       q    Type
REMARK                         _______ _______ _______ _____ _____    ______ ____
ROOT
ATOM     13  C   UNL     1      -0.820   0.809  25.324  0.00  0.00    +0.096 C 
ATOM     14  C   UNL     1      -0.522   0.450  24.643  0.00  0.00    +0.028 C 
ATOM     15  C   UNL     1      -0.744  -0.345  24.655  0.00  0.00    +0.073 C 
ATOM     16  N   UNL     1      -1.179  -0.477  25.343  0.00  0.00    -0.268 NA
ATOM     28  C   UNL     1      -1.227   0.236  25.757  0.00  0.00    +0.082 C 
ENDROOT
BRANCH  13  11
ATOM      8  C   UNL     1      -0.867   2.928  25.575  0.00  0.00    +0.252 A 
ATOM      9  N   UNL     1      -0.308   2.712  26.142  0.00  0.00    -0.107 NA
ATOM     10  N   UNL     1      -0.222   1.892  26.117  0.00  0.00    -0.111 NA
ATOM     11  C   UNL     1      -0.728   1.601  25.535  0.00  0.00    +0.227 A 
ATOM     12  O   UNL     1      -1.127   2.241  25.200  0.00  0.00    -0.419 OA
BRANCH   8   7
ATOM      1  F   UNL     1      -2.311   3.462  26.168  0.00  0.00    -0.204 F 
ATOM      2  C   UNL     1      -1.842   3.963  25.708  0.00  0.00    +0.145 A 
ATOM      3  C   UNL     1      -2.097   4.730  25.545  0.00  0.00    +0.030 A 
ATOM      4  C   UNL     1      -1.629   5.231  25.086  0.00  0.00    +0.002 A 
ATOM      5  C   UNL     1      -0.907   4.964  24.789  0.00  0.00    +0.000 A 
ATOM      6  C   UNL     1      -0.652   4.196  24.952  0.00  0.00    +0.007 A 
ATOM      7  C   UNL     1      -1.121   3.696  25.412  0.00  0.00    +0.083 A 
ENDBRANCH   8   7
ENDBRANCH  13  11
BRANCH  16  17
ATOM     17  C   UNL     1      -1.510  -1.196  25.577  0.00  0.00    +0.099 C 
BRANCH  17  18
ATOM     18  C   UNL     1      -2.167  -1.497  25.179  0.00  0.00    -0.006 A 
ATOM     19  C   UNL     1      -2.922  -1.215  25.357  0.00  0.00    -0.003 A 
ATOM     20  C   UNL     1      -3.579  -1.516  24.959  0.00  0.00    +0.004 A 
ATOM     21  C   UNL     1      -3.481  -2.099  24.384  0.00  0.00    +0.071 A 
ATOM     22  C   UNL     1      -2.727  -2.380  24.206  0.00  0.00    +0.004 A 
ATOM     23  C   UNL     1      -2.069  -2.080  24.604  0.00  0.00    -0.003 A 
BRANCH  21  24
ATOM     24  C   UNL     1      -4.138  -2.399  23.986  0.00  0.00    +0.419 C 
ATOM     25  F   UNL     1      -4.796  -2.700  23.587  0.00  0.00    -0.166 F 
ATOM     26  F   UNL     1      -4.265  -1.662  23.638  0.00  0.00    -0.166 F 
ATOM     27  F   UNL     1      -4.011  -3.137  24.333  0.00  0.00    -0.166 F 
ENDBRANCH  21  24
ENDBRANCH  17  18
ENDBRANCH  16  17
TORSDOF 5
ENDMDL
MODEL 2
REMARK VINA RESULT:     -13.7      2.160      6.123
REMARK  Name = 
REMARK  5 active torsions:
REMARK  status: ('A' for Active; 'I' for Inactive)
REMARK    1  A    between atoms: C_7  and  C_8
REMARK    2  A    between atoms: C_11  and  C_13
REMARK    3  A    between atoms: N_16  and  C_17
REMARK    4  A    between atoms: C_17  and  C_18
REMARK    5  A    between atoms: C_21  and  C_24
REMARK                            x       y       z     vdW  Elec       q    Type
REMARK                         _______ _______ _______ _____ _____    ______ ____
ROOT
ATOM     13  C   UNL     1      -4.213   1.576  24.744  0.00  0.00    +0.096 C 
ATOM     14  C   UNL     1      -4.986   1.858  24.684  0.00  0.00    +0.028 C 
ATOM     15  C   UNL     1      -5.016   2.597  25.051  0.00  0.00    +0.073 C 
ATOM     16  N   UNL     1      -4.263   2.771  25.336  0.00  0.00    -0.268 NA
ATOM     28  C   UNL     1      -3.766   2.140  25.146  0.00  0.00    +0.082 C 
ENDROOT
BRANCH  13  11
ATOM      8  C   UNL     1      -3.672  -0.447  24.329  0.00  0.00    +0.252 A 
ATOM      9  N   UNL     1      -3.349  -0.058  23.677  0.00  0.00    -0.107 NA
ATOM     10  N   UNL     1      -3.511   0.747  23.753  0.00  0.00    -0.111 NA
ATOM     11  C   UNL     1      -3.936   0.856  24.452  0.00  0.00    +0.227 A 
ATOM     12  O   UNL     1      -4.035   0.118  24.808  0.00  0.00    -0.419 OA
BRANCH   8   7
ATOM      1  F   UNL     1      -4.520  -1.494  23.377  0.00  0.00    -0.204 F 
ATOM      2  C   UNL     1      -4.062  -1.781  24.000  0.00  0.00    +0.145 A 
ATOM      3  C   UNL     1      -4.028  -2.592  24.148  0.00  0.00    +0.030 A 
ATOM      4  C   UNL     1      -3.570  -2.880  24.770  0.00  0.00    +0.002 A 
ATOM      5  C   UNL     1      -3.146  -2.356  25.247  0.00  0.00    +0.000 A 
ATOM      6  C   UNL     1      -3.180  -1.545  25.100  0.00  0.00    +0.007 A 
ATOM      7  C   UNL     1      -3.638  -1.258  24.476  0.00  0.00    +0.083 A 
ENDBRANCH   8   7
ENDBRANCH  13  11
BRANCH  16  17
ATOM     17  C   UNL     1      -4.043   3.457  25.740  0.00  0.00    +0.099 C 
BRANCH  17  18
ATOM     18  C   UNL     1      -3.326   3.826  25.568  0.00  0.00    -0.006 A 
ATOM     19  C   UNL     1      -2.681   3.732  26.074  0.00  0.00    -0.003 A 
ATOM     20  C   UNL     1      -1.964   4.101  25.902  0.00  0.00    +0.004 A 
ATOM     21  C   UNL     1      -1.891   4.564  25.223  0.00  0.00    +0.071 A 
ATOM     22  C   UNL     1      -2.535   4.658  24.717  0.00  0.00    +0.004 A 
ATOM     23  C   UNL     1      -3.253   4.289  24.889  0.00  0.00    -0.003 A 
BRANCH  21  24
ATOM     24  C   UNL     1      -1.174   4.933  25.051  0.00  0.00    +0.419 C 
ATOM     25  F   UNL     1      -0.456   5.303  24.879  0.00  0.00    -0.166 F 
ATOM     26  F   UNL     1      -1.443   5.624  25.412  0.00  0.00    -0.166 F 
ATOM     27  F   UNL     1      -0.905   4.241  24.690  0.00  0.00    -0.166 F 
ENDBRANCH  21  24
ENDBRANCH  17  18
ENDBRANCH  16  17
TORSDOF 5
ENDMDL
MODEL 3
REMARK VINA RESULT:     -13.2      1.227      5.718
REMARK  Name = 
REMARK  5 active torsions:
REMARK  status: ('A' for Active; 'I' for Inactive)
REMARK    1  A    between atoms: C_7  and  C_8
REMARK    2  A    between atoms: C_11  and  C_13
REMARK    3  A    between atoms: N_16  and  C_17
REMARK    4  A    between atoms: C_17  and  C_18
REMARK    5  A    between atoms: C_21  and  C_24
REMARK                            x       y       z     vdW  Elec       q    Type
REMARK                         _______ _______ _______ _____ _____    ______ ____
ROOT
ATOM     13  C   UNL     1      -1.062   0.414  24.946  0.00  0.00    +0.096 C 
ATOM     14  C   UNL     1      -0.583   0.465  24.276  0.00  0.00    +0.028 C 
ATOM     15  C   UNL     1      -0.105   1.134  24.354  0.00  0.00    +0.073 C 
ATOM     16  N   UNL     1      -0.288   1.496  25.071  0.00  0.00    -0.268 NA
ATOM     28  C   UNL     1      -0.880   1.051  25.438  0.00  0.00    +0.082 C 
ENDROOT
BRANCH  13  11
ATOM      8  C   UNL     1      -2.578  -1.087  24.927  0.00  0.00    +0.252 A 
ATOM      9  N   UNL     1      -2.398  -1.053  25.731  0.00  0.00    -0.107 NA
ATOM     10  N   UNL     1      -1.808  -0.486  25.837  0.00  0.00    -0.111 NA
ATOM     11  C   UNL     1      -1.623  -0.170  25.097  0.00  0.00    +0.227 A 
ATOM     12  O   UNL     1      -2.100  -0.542  24.535  0.00  0.00    -0.419 OA
BRANCH   8   7
ATOM      1  F   UNL     1      -2.287  -2.706  24.799  0.00  0.00    -0.204 F 
ATOM      2  C   UNL     1      -2.994  -2.390  24.512  0.00  0.00    +0.145 A 
ATOM      3  C   UNL     1      -3.554  -2.883  24.162  0.00  0.00    +0.030 A 
ATOM      4  C   UNL     1      -4.261  -2.567  23.875  0.00  0.00    +0.002 A 
ATOM      5  C   UNL     1      -4.406  -1.757  23.940  0.00  0.00    +0.000 A 
ATOM      6  C   UNL     1      -3.845  -1.264  24.290  0.00  0.00    +0.007 A 
ATOM      7  C   UNL     1      -3.139  -1.581  24.576  0.00  0.00    +0.083 A 
ENDBRANCH   8   7
ENDBRANCH  13  11
BRANCH  16  17
ATOM     17  C   UNL     1       0.059   2.182  25.371  0.00  0.00    +0.099 C 
BRANCH  17  18
ATOM     18  C   UNL     1      -0.326   2.907  25.291  0.00  0.00    -0.006 A 
ATOM     19  C   UNL     1      -0.835   3.173  25.884  0.00  0.00    -0.003 A 
ATOM     20  C   UNL     1      -1.219   3.898  25.803  0.00  0.00    +0.004 A 
ATOM     21  C   UNL     1      -1.094   4.358  25.130  0.00  0.00    +0.071 A 
ATOM     22  C   UNL     1      -0.586   4.094  24.537  0.00  0.00    +0.004 A 
ATOM     23  C   UNL     1      -0.201   3.368  24.617  0.00  0.00    -0.003 A 
BRANCH  21  24
ATOM     24  C   UNL     1      -1.479   5.084  25.049  0.00  0.00    +0.419 C 
ATOM     25  F   UNL     1      -1.863   5.810  24.969  0.00  0.00    -0.166 F 
ATOM     26  F   UNL     1      -0.757   5.475  25.134  0.00  0.00    -0.166 F 
ATOM     27  F   UNL     1      -2.200   4.692  24.965  0.00  0.00    -0.166 F 
ENDBRANCH  21  24
ENDBRANCH  17  18
ENDBRANCH  16  17
TORSDOF 5
ENDMDL
MODEL 4
REMARK VINA RESULT:     -12.9      1.967      2.496
REMARK  Name = 
REMARK  5 active torsions:
REMARK  status: ('A' for Active; 'I' for Inactive)
REMARK    1  A    between atoms: C_7  and  C_8
REMARK    2  A    between atoms: C_11  and  C_13
REMARK    3  A    between atoms: N_16  and  C_17
REMARK    4  A    between atoms: C_17  and  C_18
REMARK    5  A    between atoms: C_21  and  C_24
REMARK                            x       y       z     vdW  Elec       q    Type
REMARK                         _______ _______ _______ _____ _____    ______ ____
ROOT
ATOM     13  C   UNL     1      -4.070   2.211  25.029  0.00  0.00    +0.096 C 
ATOM     14  C   UNL     1      -4.548   2.179  24.357  0.00  0.00    +0.028 C 
ATOM     15  C   UNL     1      -4.895   1.431  24.326  0.00  0.00    +0.073 C 
ATOM     16  N   UNL     1      -4.633   1.002  24.980  0.00  0.00    -0.268 NA
ATOM     28  C   UNL     1      -4.123   1.483  25.414  0.00  0.00    +0.082 C 
ENDROOT
BRANCH  13  11
ATOM      8  C   UNL     1      -2.641   3.761  25.364  0.00  0.00    +0.252 A 
ATOM      9  N   UNL     1      -3.209   3.942  25.933  0.00  0.00    -0.107 NA
ATOM     10  N   UNL     1      -3.814   3.384  25.878  0.00  0.00    -0.111 NA
ATOM     11  C   UNL     1      -3.620   2.857  25.274  0.00  0.00    +0.227 A 
ATOM     12  O   UNL     1      -2.895   3.091  24.956  0.00  0.00    -0.419 OA
BRANCH   8   7
ATOM      1  F   UNL     1      -1.185   2.996  25.496  0.00  0.00    -0.204 F 
ATOM      2  C   UNL     1      -1.215   3.795  25.292  0.00  0.00    +0.145 A 
ATOM      3  C   UNL     1      -0.516   4.212  25.154  0.00  0.00    +0.030 A 
ATOM      4  C   UNL     1      -0.545   5.011  24.951  0.00  0.00    +0.002 A 
ATOM      5  C   UNL     1      -1.274   5.393  24.884  0.00  0.00    +0.000 A 
ATOM      6  C   UNL     1      -1.972   4.977  25.022  0.00  0.00    +0.007 A 
ATOM      7  C   UNL     1      -1.942   4.178  25.226  0.00  0.00    +0.083 A 
ENDBRANCH   8   7
ENDBRANCH  13  11
BRANCH  16  17
ATOM     17  C   UNL     1      -4.844   0.226  25.166  0.00  0.00    +0.099 C 
BRANCH  17  18
ATOM     18  C   UNL     1      -4.331  -0.395  24.986  0.00  0.00    -0.006 A 
ATOM     19  C   UNL     1      -3.801  -0.670  25.556  0.00  0.00    -0.003 A 
ATOM     20  C   UNL     1      -3.288  -1.291  25.376  0.00  0.00    +0.004 A 
ATOM     21  C   UNL     1      -3.306  -1.637  24.627  0.00  0.00    +0.071 A 
ATOM     22  C   UNL     1      -3.835  -1.362  24.058  0.00  0.00    +0.004 A 
ATOM     23  C   UNL     1      -4.349  -0.741  24.237  0.00  0.00    -0.003 A 
BRANCH  21  24
ATOM     24  C   UNL     1      -2.793  -2.258  24.448  0.00  0.00    +0.419 C 
ATOM     25  F   UNL     1      -2.280  -2.879  24.268  0.00  0.00    -0.166 F 
ATOM     26  F   UNL     1      -2.203  -1.715  24.254  0.00  0.00    -0.166 F 
ATOM     27  F   UNL     1      -3.383  -2.801  24.642  0.00  0.00    -0.166 F 
ENDBRANCH  21  24
ENDBRANCH  17  18
ENDBRANCH  16  17
TORSDOF 5
ENDMDL
