MODEL 1
REMARK VINA RESULT:      -7.9      0.000      0.000
REMARK  Name = 
REMARK  6 active torsions:
REMARK  status: ('A' for Active; 'I' for Inactive)
REMARK    1  A    between atoms: C_2  and  C_4
REMARK    2  A    between atoms: C_6  and  C_7
REMARK    3  A    between atoms: C_7  and  C_8
REMARK    4  A    between atoms: C_25  and  C_26
REMARK    5  A    between atoms: C_26  and  N_27
REMARK    6  A    between atoms: C_28  and  C_30
REMARK                            x       y       z     vdW  Elec       q    Type
REMARK                         _______ _______ _______ _____ _____    ______ ____
ROOT
ATOM      4  C   UNL     1      -1.540   0.064  24.664  0.00  0.00    +0.006 C 
ATOM      5  C   UNL     1      -0.800   0.211  24.331  0.00  0.00    +0.005 C 
ATOM      6  C   UNL     1      -0.696   0.855  23.827  0.00  0.00    +0.027 C 
ATOM     22  C   UNL     1      -1.331   1.352  23.655  0.00  0.00    -0.048 C 
ATOM     23  C   UNL     1      -1.226   1.997  23.151  0.00  0.00    +0.026 C 
ATOM     24  C   UNL     1      -2.071   1.205  23.989  0.00  0.00    -0.033 C 
ATOM     25  C   UNL     1      -2.176   0.562  24.493  0.00  0.00    +0.043 C 
ENDROOT
BRANCH   4   2
ATOM      1  C   UNL     1      -1.447  -0.515  25.967  0.00  0.00    +0.000 C 
ATOM      2  C   UNL     1      -1.644  -0.581  25.169  0.00  0.00    +0.000 C 
ATOM      3  C   UNL     1      -1.946  -1.289  24.875  0.00  0.00    +0.000 C 
ENDBRANCH   4   2
BRANCH   6   7
ATOM      7  C   UNL     1       0.045   1.002  23.493  0.00  0.00    +0.089 C 
BRANCH   7   8
ATOM      8  C   UNL     1       0.447   0.399  23.099  0.00  0.00    +0.226 C 
ATOM      9  O   UNL     1       0.024  -0.190  22.705  0.00  0.00    -0.275 OA
ATOM     10  N   UNL     1       1.272   0.385  23.100  0.00  0.00    -0.276 N 
ATOM     11  C   UNL     1       1.695   0.974  23.494  0.00  0.00    +0.115 C 
ATOM     12  C   UNL     1       2.519   0.960  23.495  0.00  0.00    +0.114 C 
ATOM     13  N   UNL     1       2.922   0.356  23.101  0.00  0.00    -0.290 N 
ATOM     14  C   UNL     1       2.500  -0.233  22.707  0.00  0.00    +0.114 C 
ATOM     15  C   UNL     1       1.675  -0.219  22.706  0.00  0.00    +0.115 C 
ATOM     16  C   UNL     1       3.747   0.342  23.102  0.00  0.00    +0.132 A 
ATOM     17  N   UNL     1       4.169   0.930  23.496  0.00  0.00    -0.229 NA
ATOM     18  C   UNL     1       4.994   0.917  23.497  0.00  0.00    +0.100 A 
ATOM     19  C   UNL     1       5.397   0.314  23.103  0.00  0.00    +0.021 A 
ATOM     20  C   UNL     1       4.974  -0.276  22.709  0.00  0.00    +0.004 A 
ATOM     21  C   UNL     1       4.150  -0.261  22.708  0.00  0.00    +0.034 A 
ENDBRANCH   7   8
ENDBRANCH   6   7
BRANCH  25  26
ATOM     26  C   UNL     1      -2.915   0.414  24.827  0.00  0.00    +0.120 C 
BRANCH  26  27
ATOM     27  N   UNL     1      -3.462   1.027  24.908  0.00  0.00    -0.201 NA
ATOM     28  C   UNL     1      -4.247   0.857  25.091  0.00  0.00    +0.265 C 
ATOM     29  O   UNL     1      -4.488   0.075  25.194  0.00  0.00    -0.268 OA
BRANCH  28  30
ATOM     30  C   UNL     1      -4.794   1.471  25.173  0.00  0.00    +0.058 A 
ATOM     31  C   UNL     1      -5.585   1.348  24.971  0.00  0.00    +0.025 A 
ATOM     32  C   UNL     1      -6.131   1.961  25.052  0.00  0.00    +0.099 A 
ATOM     33  N   UNL     1      -5.887   2.697  25.335  0.00  0.00    -0.242 NA
ATOM     34  C   UNL     1      -5.096   2.819  25.536  0.00  0.00    +0.099 A 
ATOM     35  C   UNL     1      -4.550   2.206  25.455  0.00  0.00    +0.025 A 
ENDBRANCH  28  30
ENDBRANCH  26  27
ENDBRANCH  25  26
TORSDOF 6
ENDMDL
MODEL 2
REMARK VINA RESULT:      -7.7      1.021      1.760
REMARK  Name = 
REMARK  6 active torsions:
REMARK  status: ('A' for Active; 'I' for Inactive)
REMARK    1  A    between atoms: C_2  and  C_4
REMARK    2  A    between atoms: C_6  and  C_7
REMARK    3  A    between atoms: C_7  and  C_8
REMARK    4  A    between atoms: C_25  and  C_26
REMARK    5  A    between atoms: C_26  and  N_27
REMARK    6  A    between atoms: C_28  and  C_30
REMARK                            x       y       z     vdW  Elec       q    Type
REMARK                         _______ _______ _______ _____ _____    ______ ____
ROOT
ATOM      4  C   UNL     1      -2.298   1.622  23.532  0.00  0.00    +0.006 C 
ATOM      5  C   UNL     1      -1.533   1.323  23.616  0.00  0.00    +0.005 C 
ATOM      6  C   UNL     1      -1.345   0.846  24.260  0.00  0.00    +0.027 C 
ATOM     22  C   UNL     1      -1.921   0.666  24.823  0.00  0.00    -0.048 C 
ATOM     23  C   UNL     1      -1.732   0.188  25.468  0.00  0.00    +0.026 C 
ATOM     24  C   UNL     1      -2.686   0.965  24.740  0.00  0.00    -0.033 C 
ATOM     25  C   UNL     1      -2.874   1.443  24.095  0.00  0.00    +0.043 C 
ENDROOT
BRANCH   4   2
ATOM      1  C   UNL     1      -2.394   2.919  22.940  0.00  0.00    +0.000 C 
ATOM      2  C   UNL     1      -2.486   2.101  22.887  0.00  0.00    +0.000 C 
ATOM      3  C   UNL     1      -2.766   1.761  22.190  0.00  0.00    +0.000 C 
ENDBRANCH   4   2
BRANCH   6   7
ATOM      7  C   UNL     1      -0.580   0.546  24.343  0.00  0.00    +0.089 C 
BRANCH   7   8
ATOM      8  C   UNL     1      -0.254   0.076  23.749  0.00  0.00    +0.226 C 
ATOM      9  O   UNL     1      -0.710  -0.514  23.394  0.00  0.00    -0.275 OA
ATOM     10  N   UNL     1       0.525   0.195  23.510  0.00  0.00    -0.276 N 
ATOM     11  C   UNL     1       0.981   0.785  23.864  0.00  0.00    +0.115 C 
ATOM     12  C   UNL     1       1.761   0.904  23.625  0.00  0.00    +0.114 C 
ATOM     13  N   UNL     1       2.087   0.432  23.030  0.00  0.00    -0.290 N 
ATOM     14  C   UNL     1       1.632  -0.157  22.676  0.00  0.00    +0.114 C 
ATOM     15  C   UNL     1       0.851  -0.277  22.915  0.00  0.00    +0.115 C 
ATOM     16  C   UNL     1       2.868   0.552  22.792  0.00  0.00    +0.132 A 
ATOM     17  N   UNL     1       3.322   1.141  23.146  0.00  0.00    -0.229 NA
ATOM     18  C   UNL     1       4.103   1.261  22.907  0.00  0.00    +0.100 A 
ATOM     19  C   UNL     1       4.429   0.790  22.313  0.00  0.00    +0.021 A 
ATOM     20  C   UNL     1       3.974   0.200  21.958  0.00  0.00    +0.004 A 
ATOM     21  C   UNL     1       3.193   0.081  22.197  0.00  0.00    +0.034 A 
ENDBRANCH   7   8
ENDBRANCH   6   7
BRANCH  25  26
ATOM     26  C   UNL     1      -3.638   1.742  24.012  0.00  0.00    +0.120 C 
BRANCH  26  27
ATOM     27  N   UNL     1      -4.081   1.936  24.681  0.00  0.00    -0.201 NA
ATOM     28  C   UNL     1      -4.886   2.098  24.609  0.00  0.00    +0.265 C 
ATOM     29  O   UNL     1      -5.250   2.066  23.869  0.00  0.00    -0.268 OA
BRANCH  28  30
ATOM     30  C   UNL     1      -5.329   2.293  25.278  0.00  0.00    +0.058 A 
ATOM     31  C   UNL     1      -5.827   1.730  25.621  0.00  0.00    +0.025 A 
ATOM     32  C   UNL     1      -6.270   1.925  26.289  0.00  0.00    +0.099 A 
ATOM     33  N   UNL     1      -6.214   2.681  26.615  0.00  0.00    -0.242 NA
ATOM     34  C   UNL     1      -5.716   3.242  26.272  0.00  0.00    +0.099 A 
ATOM     35  C   UNL     1      -5.274   3.048  25.604  0.00  0.00    +0.025 A 
ENDBRANCH  28  30
ENDBRANCH  26  27
ENDBRANCH  25  26
TORSDOF 6
ENDMDL
MODEL 3
REMARK VINA RESULT:      -6.8      1.286      7.039
REMARK  Name = 
REMARK  6 active torsions:
REMARK  status: ('A' for Active; 'I' for Inactive)
REMARK    1  A    between atoms: C_2  and  C_4
REMARK    2  A    between atoms: C_6  and  C_7
REMARK    3  A    between atoms: C_7  and  C_8
REMARK    4  A    between atoms: C_25  and  C_26
REMARK    5  A    between atoms: C_26  and  N_27
REMARK    6  A    between atoms: C_28  and  C_30
REMARK                            x       y       z     vdW  Elec       q    Type
REMARK                         _______ _______ _______ _____ _____    ______ ____
ROOT
ATOM      4  C   UNL     1      -0.178   0.206  23.793  0.00  0.00    +0.006 C 
ATOM      5  C   UNL     1      -0.797   0.696  24.032  0.00  0.00    +0.005 C 
ATOM      6  C   UNL     1      -0.680   1.510  24.087  0.00  0.00    +0.027 C 
ATOM     22  C   UNL     1       0.055   1.835  23.902  0.00  0.00    -0.048 C 
ATOM     23  C   UNL     1       0.172   2.650  23.956  0.00  0.00    +0.026 C 
ATOM     24  C   UNL     1       0.674   1.345  23.662  0.00  0.00    -0.033 C 
ATOM     25  C   UNL     1       0.558   0.531  23.608  0.00  0.00    +0.043 C 
ENDROOT
BRANCH   4   2
ATOM      1  C   UNL     1      -0.217  -1.082  24.410  0.00  0.00    +0.000 C 
ATOM      2  C   UNL     1      -0.295  -0.609  23.738  0.00  0.00    +0.000 C 
ATOM      3  C   UNL     1      -0.490  -0.950  23.013  0.00  0.00    +0.000 C 
ENDBRANCH   4   2
BRANCH   6   7
ATOM      7  C   UNL     1      -1.299   2.001  24.326  0.00  0.00    +0.089 C 
BRANCH   7   8
ATOM      8  C   UNL     1      -1.958   2.101  23.841  0.00  0.00    +0.226 C 
ATOM      9  O   UNL     1      -1.860   2.198  23.027  0.00  0.00    -0.275 OA
ATOM     10  N   UNL     1      -2.715   2.104  24.168  0.00  0.00    -0.276 N 
ATOM     11  C   UNL     1      -2.813   2.007  24.982  0.00  0.00    +0.115 C 
ATOM     12  C   UNL     1      -3.570   2.009  25.309  0.00  0.00    +0.114 C 
ATOM     13  N   UNL     1      -4.230   2.109  24.823  0.00  0.00    -0.290 N 
ATOM     14  C   UNL     1      -4.132   2.206  24.010  0.00  0.00    +0.114 C 
ATOM     15  C   UNL     1      -3.375   2.204  23.682  0.00  0.00    +0.115 C 
ATOM     16  C   UNL     1      -4.987   2.112  25.151  0.00  0.00    +0.132 A 
ATOM     17  N   UNL     1      -5.085   2.015  25.964  0.00  0.00    -0.229 NA
ATOM     18  C   UNL     1      -5.842   2.017  26.292  0.00  0.00    +0.100 A 
ATOM     19  C   UNL     1      -6.502   2.117  25.806  0.00  0.00    +0.021 A 
ATOM     20  C   UNL     1      -6.404   2.214  24.992  0.00  0.00    +0.004 A 
ATOM     21  C   UNL     1      -5.646   2.211  24.665  0.00  0.00    +0.034 A 
ENDBRANCH   7   8
ENDBRANCH   6   7
BRANCH  25  26
ATOM     26  C   UNL     1       1.176   0.040  23.368  0.00  0.00    +0.120 C 
BRANCH  26  27
ATOM     27  N   UNL     1       1.955   0.310  23.402  0.00  0.00    -0.201 NA
ATOM     28  C   UNL     1       2.532  -0.035  22.924  0.00  0.00    +0.265 C 
ATOM     29  O   UNL     1       2.331  -0.650  22.413  0.00  0.00    -0.268 OA
BRANCH  28  30
ATOM     30  C   UNL     1       3.311   0.236  22.958  0.00  0.00    +0.058 A 
ATOM     31  C   UNL     1       3.883  -0.202  23.360  0.00  0.00    +0.025 A 
ATOM     32  C   UNL     1       4.661   0.068  23.394  0.00  0.00    +0.099 A 
ATOM     33  N   UNL     1       4.869   0.777  23.025  0.00  0.00    -0.242 NA
ATOM     34  C   UNL     1       4.297   1.214  22.622  0.00  0.00    +0.099 A 
ATOM     35  C   UNL     1       3.518   0.944  22.589  0.00  0.00    +0.025 A 
ENDBRANCH  28  30
ENDBRANCH  26  27
ENDBRANCH  25  26
TORSDOF 6
ENDMDL
MODEL 4
REMARK VINA RESULT:      -6.1     17.207     18.766
REMARK  Name = 
REMARK  6 active torsions:
REMARK  status: ('A' for Active; 'I' for Inactive)
REMARK    1  A    between atoms: C_2  and  C_4
REMARK    2  A    between atoms: C_6  and  C_7
REMARK    3  A    between atoms: C_7  and  C_8
REMARK    4  A    between atoms: C_25  and  C_26
REMARK    5  A    between atoms: C_26  and  N_27
REMARK    6  A    between atoms: C_28  and  C_30
REMARK                            x       y       z     vdW  Elec       q    Type
REMARK                         _______ _______ _______ _____ _____    ______ ____
ROOT
ATOM      4  C   UNL     1      -5.905  -9.347  10.883  0.00  0.00    +0.006 C 
ATOM      5  C   UNL     1      -6.293  -8.978  10.256  0.00  0.00    +0.005 C 
ATOM      6  C   UNL     1      -5.885  -8.806   9.562  0.00  0.00    +0.027 C 
ATOM     22  C   UNL     1      -5.087  -9.002   9.492  0.00  0.00    -0.048 C 
ATOM     23  C   UNL     1      -4.678  -8.830   8.797  0.00  0.00    +0.026 C 
ATOM     24  C   UNL     1      -4.697  -9.372  10.119  0.00  0.00    -0.033 C 
ATOM     25  C   UNL     1      -5.106  -9.545  10.814  0.00  0.00    +0.043 C 
ENDROOT
BRANCH   4   2
ATOM      1  C   UNL     1      -6.400  -8.941  12.160  0.00  0.00    +0.000 C 
ATOM      2  C   UNL     1      -6.314  -9.520  11.578  0.00  0.00    +0.000 C 
ATOM      3  C   UNL     1      -6.635 -10.270  11.692  0.00  0.00    +0.000 C 
ENDBRANCH   4   2
BRANCH   6   7
ATOM      7  C   UNL     1      -6.274  -8.436   8.934  0.00  0.00    +0.089 C 
BRANCH   7   8
ATOM      8  C   UNL     1      -7.050  -8.646   8.749  0.00  0.00    +0.226 C 
ATOM      9  O   UNL     1      -7.249  -9.441   8.651  0.00  0.00    -0.275 OA
ATOM     10  N   UNL     1      -7.625  -8.062   8.661  0.00  0.00    -0.276 N 
ATOM     11  C   UNL     1      -7.426  -7.268   8.759  0.00  0.00    +0.115 C 
ATOM     12  C   UNL     1      -8.001  -6.684   8.671  0.00  0.00    +0.114 C 
ATOM     13  N   UNL     1      -8.778  -6.894   8.485  0.00  0.00    -0.290 N 
ATOM     14  C   UNL     1      -8.978  -7.688   8.387  0.00  0.00    +0.114 C 
ATOM     15  C   UNL     1      -8.402  -8.273   8.475  0.00  0.00    +0.115 C 
ATOM     16  C   UNL     1      -9.354  -6.310   8.397  0.00  0.00    +0.132 A 
ATOM     17  N   UNL     1      -9.154  -5.516   8.495  0.00  0.00    -0.229 NA
ATOM     18  C   UNL     1      -9.730  -4.931   8.407  0.00  0.00    +0.100 A 
ATOM     19  C   UNL     1     -10.506  -5.141   8.221  0.00  0.00    +0.021 A 
ATOM     20  C   UNL     1     -10.706  -5.936   8.124  0.00  0.00    +0.004 A 
ATOM     21  C   UNL     1     -10.129  -6.520   8.212  0.00  0.00    +0.034 A 
ENDBRANCH   7   8
ENDBRANCH   6   7
BRANCH  25  26
ATOM     26  C   UNL     1      -4.717  -9.914  11.441  0.00  0.00    +0.120 C 
BRANCH  26  27
ATOM     27  N   UNL     1      -3.895  -9.871  11.500  0.00  0.00    -0.201 NA
ATOM     28  C   UNL     1      -3.501 -10.304  12.080  0.00  0.00    +0.265 C 
ATOM     29  O   UNL     1      -3.928 -10.781  12.602  0.00  0.00    -0.268 OA
BRANCH  28  30
ATOM     30  C   UNL     1      -2.678 -10.262  12.140  0.00  0.00    +0.058 A 
ATOM     31  C   UNL     1      -2.221 -10.154  11.461  0.00  0.00    +0.025 A 
ATOM     32  C   UNL     1      -1.400 -10.111  11.520  0.00  0.00    +0.099 A 
ATOM     33  N   UNL     1      -1.035 -10.176  12.258  0.00  0.00    -0.242 NA
ATOM     34  C   UNL     1      -1.493 -10.284  12.936  0.00  0.00    +0.099 A 
ATOM     35  C   UNL     1      -2.315 -10.327  12.877  0.00  0.00    +0.025 A 
ENDBRANCH  28  30
ENDBRANCH  26  27
ENDBRANCH  25  26
TORSDOF 6
ENDMDL
MODEL 5
REMARK VINA RESULT:      -4.8     15.520     17.265
REMARK  Name = 
REMARK  6 active torsions:
REMARK  status: ('A' for Active; 'I' for Inactive)
REMARK    1  A    between atoms: C_2  and  C_4
REMARK    2  A    between atoms: C_6  and  C_7
REMARK    3  A    between atoms: C_7  and  C_8
REMARK    4  A    between atoms: C_25  and  C_26
REMARK    5  A    between atoms: C_26  and  N_27
REMARK    6  A    between atoms: C_28  and  C_30
REMARK                            x       y       z     vdW  Elec       q    Type
REMARK                         _______ _______ _______ _____ _____    ______ ____
ROOT
ATOM      4  C   UNL     1      -5.822 -10.147  14.642  0.00  0.00    +0.006 C 
ATOM      5  C   UNL     1      -6.270 -10.024  13.961  0.00  0.00    +0.005 C 
ATOM      6  C   UNL     1      -5.943 -10.176  13.220  0.00  0.00    +0.027 C 
ATOM     22  C   UNL     1      -5.169 -10.452  13.158  0.00  0.00    -0.048 C 
ATOM     23  C   UNL     1      -4.842 -10.604  12.416  0.00  0.00    +0.026 C 
ATOM     24  C   UNL     1      -4.720 -10.575  13.840  0.00  0.00    -0.033 C 
ATOM     25  C   UNL     1      -5.046 -10.424  14.581  0.00  0.00    +0.043 C 
ENDROOT
BRANCH   4   2
ATOM      1  C   UNL     1      -6.610 -10.569  15.757  0.00  0.00    +0.000 C 
ATOM      2  C   UNL     1      -6.148  -9.995  15.385  0.00  0.00    +0.000 C 
ATOM      3  C   UNL     1      -6.013  -9.270  15.753  0.00  0.00    +0.000 C 
ENDBRANCH   4   2
BRANCH   6   7
ATOM      7  C   UNL     1      -6.392 -10.052  12.538  0.00  0.00    +0.089 C 
BRANCH   7   8
ATOM      8  C   UNL     1      -7.195 -10.243  12.531  0.00  0.00    +0.226 C 
ATOM      9  O   UNL     1      -7.494 -10.780  13.081  0.00  0.00    -0.275 OA
ATOM     10  N   UNL     1      -7.696  -9.898  11.976  0.00  0.00    -0.276 N 
ATOM     11  C   UNL     1      -7.397  -9.361  11.426  0.00  0.00    +0.115 C 
ATOM     12  C   UNL     1      -7.898  -9.016  10.870  0.00  0.00    +0.114 C 
ATOM     13  N   UNL     1      -8.702  -9.207  10.863  0.00  0.00    -0.290 N 
ATOM     14  C   UNL     1      -9.001  -9.744  11.413  0.00  0.00    +0.114 C 
ATOM     15  C   UNL     1      -8.500 -10.090  11.969  0.00  0.00    +0.115 C 
ATOM     16  C   UNL     1      -9.203  -8.862  10.307  0.00  0.00    +0.132 A 
ATOM     17  N   UNL     1      -8.903  -8.325   9.758  0.00  0.00    -0.229 NA
ATOM     18  C   UNL     1      -9.405  -7.979   9.201  0.00  0.00    +0.100 A 
ATOM     19  C   UNL     1     -10.208  -8.171   9.195  0.00  0.00    +0.021 A 
ATOM     20  C   UNL     1     -10.508  -8.708   9.745  0.00  0.00    +0.004 A 
ATOM     21  C   UNL     1     -10.006  -9.053  10.301  0.00  0.00    +0.034 A 
ENDBRANCH   7   8
ENDBRANCH   6   7
BRANCH  25  26
ATOM     26  C   UNL     1      -4.598 -10.547  15.263  0.00  0.00    +0.120 C 
BRANCH  26  27
ATOM     27  N   UNL     1      -3.774 -10.535  15.223  0.00  0.00    -0.201 NA
ATOM     28  C   UNL     1      -3.328 -10.560  15.916  0.00  0.00    +0.265 C 
ATOM     29  O   UNL     1      -3.705 -10.599  16.649  0.00  0.00    -0.268 OA
BRANCH  28  30
ATOM     30  C   UNL     1      -2.503 -10.548  15.877  0.00  0.00    +0.058 A 
ATOM     31  C   UNL     1      -2.127 -10.307  15.182  0.00  0.00    +0.025 A 
ATOM     32  C   UNL     1      -1.303 -10.295  15.143  0.00  0.00    +0.099 A 
ATOM     33  N   UNL     1      -0.855 -10.523  15.798  0.00  0.00    -0.242 NA
ATOM     34  C   UNL     1      -1.232 -10.764  16.491  0.00  0.00    +0.099 A 
ATOM     35  C   UNL     1      -2.056 -10.776  16.530  0.00  0.00    +0.025 A 
ENDBRANCH  28  30
ENDBRANCH  26  27
ENDBRANCH  25  26
TORSDOF 6
ENDMDL
MODEL 6
REMARK VINA RESULT:      -4.4     14.805     16.647
REMARK  Name = 
REMARK  6 active torsions:
REMARK  status: ('A' for Active; 'I' for Inactive)
REMARK    1  A    between atoms: C_2  and  C_4
REMARK    2  A    between atoms: C_6  and  C_7
REMARK    3  A    between atoms: C_7  and  C_8
REMARK    4  A    between atoms: C_25  and  C_26
REMARK    5  A    between atoms: C_26  and  N_27
REMARK    6  A    between atoms: C_28  and  C_30
REMARK                            x       y       z     vdW  Elec       q    Type
REMARK                         _______ _______ _______ _____ _____    ______ ____
ROOT
ATOM      4  C   UNL     1      -3.523 -10.410  13.405  0.00  0.00    +0.006 C 
ATOM      5  C   UNL     1      -3.931 -10.565  14.105  0.00  0.00    +0.005 C 
ATOM      6  C   UNL     1      -4.753 -10.624  14.099  0.00  0.00    +0.027 C 
ATOM     22  C   UNL     1      -5.169 -10.527  13.393  0.00  0.00    -0.048 C 
ATOM     23  C   UNL     1      -5.992 -10.585  13.387  0.00  0.00    +0.026 C 
ATOM     24  C   UNL     1      -4.761 -10.371  12.692  0.00  0.00    -0.033 C 
ATOM     25  C   UNL     1      -3.939 -10.313  12.698  0.00  0.00    +0.043 C 
ENDROOT
BRANCH   4   2
ATOM      1  C   UNL     1      -2.326  -9.864  13.962  0.00  0.00    +0.000 C 
ATOM      2  C   UNL     1      -2.700 -10.351  13.411  0.00  0.00    +0.000 C 
ATOM      3  C   UNL     1      -2.253 -10.779  12.867  0.00  0.00    +0.000 C 
ENDBRANCH   4   2
BRANCH   6   7
ATOM      7  C   UNL     1      -5.161 -10.779  14.800  0.00  0.00    +0.089 C 
BRANCH   7   8
ATOM      8  C   UNL     1      -4.759 -10.778  15.520  0.00  0.00    +0.226 C 
ATOM      9  O   UNL     1      -3.934 -10.780  15.532  0.00  0.00    -0.275 OA
ATOM     10  N   UNL     1      -5.182 -10.775  16.228  0.00  0.00    -0.276 N 
ATOM     11  C   UNL     1      -6.008 -10.773  16.216  0.00  0.00    +0.115 C 
ATOM     12  C   UNL     1      -6.430 -10.771  16.924  0.00  0.00    +0.114 C 
ATOM     13  N   UNL     1      -6.028 -10.770  17.645  0.00  0.00    -0.290 N 
ATOM     14  C   UNL     1      -5.204 -10.772  17.657  0.00  0.00    +0.114 C 
ATOM     15  C   UNL     1      -4.780 -10.774  16.949  0.00  0.00    +0.115 C 
ATOM     16  C   UNL     1      -6.452 -10.767  18.353  0.00  0.00    +0.132 A 
ATOM     17  N   UNL     1      -7.276 -10.765  18.341  0.00  0.00    -0.229 NA
ATOM     18  C   UNL     1      -7.700 -10.762  19.049  0.00  0.00    +0.100 A 
ATOM     19  C   UNL     1      -7.298 -10.761  19.770  0.00  0.00    +0.021 A 
ATOM     20  C   UNL     1      -6.473 -10.763  19.782  0.00  0.00    +0.004 A 
ATOM     21  C   UNL     1      -6.050 -10.766  19.074  0.00  0.00    +0.034 A 
ENDBRANCH   7   8
ENDBRANCH   6   7
BRANCH  25  26
ATOM     26  C   UNL     1      -3.531 -10.157  11.999  0.00  0.00    +0.120 C 
BRANCH  26  27
ATOM     27  N   UNL     1      -3.941  -9.911  11.327  0.00  0.00    -0.201 NA
ATOM     28  C   UNL     1      -3.641 -10.076  10.577  0.00  0.00    +0.265 C 
ATOM     29  O   UNL     1      -2.930 -10.487  10.498  0.00  0.00    -0.268 OA
BRANCH  28  30
ATOM     30  C   UNL     1      -4.052  -9.829   9.904  0.00  0.00    +0.058 A 
ATOM     31  C   UNL     1      -4.075  -9.029   9.706  0.00  0.00    +0.025 A 
ATOM     32  C   UNL     1      -4.486  -8.782   9.034  0.00  0.00    +0.099 A 
ATOM     33  N   UNL     1      -4.874  -9.337   8.561  0.00  0.00    -0.242 NA
ATOM     34  C   UNL     1      -4.850 -10.137   8.760  0.00  0.00    +0.099 A 
ATOM     35  C   UNL     1      -4.439 -10.383   9.432  0.00  0.00    +0.025 A 
ENDBRANCH  28  30
ENDBRANCH  26  27
ENDBRANCH  25  26
TORSDOF 6
ENDMDL
