MODEL 1
REMARK VINA RESULT:     -14.2      0.000      0.000
REMARK  Name = 
REMARK  4 active torsions:
REMARK  status: ('A' for Active; 'I' for Inactive)
REMARK    1  A    between atoms: C_1  and  C_2
REMARK    2  A    between atoms: C_1  and  C_18
REMARK    3  A    between atoms: C_5  and  C_7
REMARK    4  A    between atoms: N_10  and  C_12
REMARK                            x       y       z     vdW  Elec       q    Type
REMARK                         _______ _______ _______ _____ _____    ______ ____
ROOT
ATOM      2  C   UNL     1      -4.454   0.791  24.709  0.00  0.00    +0.231 A 
ATOM      3  N   UNL     1      -5.120   1.084  25.099  0.00  0.00    -0.111 NA
ATOM      4  N   UNL     1      -4.957   1.856  25.339  0.00  0.00    -0.112 NA
ATOM      5  C   UNL     1      -4.189   2.040  25.098  0.00  0.00    +0.227 A 
ATOM      6  O   UNL     1      -3.879   1.382  24.709  0.00  0.00    -0.423 OA
ENDROOT
BRANCH   5   7
ATOM      7  C   UNL     1      -3.801   2.756  25.224  0.00  0.00    +0.095 C 
ATOM      8  C   UNL     1      -4.127   3.431  25.569  0.00  0.00    +0.028 C 
ATOM      9  C   UNL     1      -3.545   4.016  25.586  0.00  0.00    +0.073 C 
ATOM     10  N   UNL     1      -2.859   3.703  25.251  0.00  0.00    -0.274 NA
ATOM     11  C   UNL     1      -3.018   2.925  25.028  0.00  0.00    +0.081 C 
BRANCH  10  12
ATOM     12  C   UNL     1      -2.142   4.099  25.157  0.00  0.00    +0.058 C 
ATOM     13  C   UNL     1      -1.445   3.673  25.047  0.00  0.00    +0.016 C 
ATOM     14  C   UNL     1      -0.728   4.069  24.953  0.00  0.00    +0.001 C 
ATOM     15  C   UNL     1      -0.709   4.894  24.969  0.00  0.00    +0.000 C 
ATOM     16  C   UNL     1      -1.406   5.321  25.079  0.00  0.00    +0.001 C 
ATOM     17  C   UNL     1      -2.123   4.924  25.173  0.00  0.00    +0.016 C 
ENDBRANCH  10  12
ENDBRANCH   5   7
BRANCH   2   1
ATOM      1  C   UNL     1      -4.378   0.039  24.378  0.00  0.00    +0.115 C 
BRANCH   1  18
ATOM     18  C   UNL     1      -4.037  -0.572  24.814  0.00  0.00    +0.008 A 
ATOM     19  C   UNL     1      -3.718  -0.506  25.573  0.00  0.00    +0.095 A 
ATOM     20  N   UNL     1      -3.439  -1.249  25.797  0.00  0.00    -0.244 NA
ATOM     21  C   UNL     1      -3.584  -1.773  25.178  0.00  0.00    +0.081 A 
ATOM     22  C   UNL     1      -3.953  -1.355  24.570  0.00  0.00    +0.016 A 
ATOM     23  C   UNL     1      -4.166  -1.741  23.873  0.00  0.00    +0.001 A 
ATOM     24  C   UNL     1      -4.009  -2.546  23.783  0.00  0.00    +0.000 A 
ATOM     25  C   UNL     1      -3.640  -2.965  24.390  0.00  0.00    +0.002 A 
ATOM     26  C   UNL     1      -3.427  -2.579  25.088  0.00  0.00    +0.019 A 
ENDBRANCH   1  18
ENDBRANCH   2   1
TORSDOF 4
ENDMDL
MODEL 2
REMARK VINA RESULT:     -13.5      1.568      2.317
REMARK  Name = 
REMARK  4 active torsions:
REMARK  status: ('A' for Active; 'I' for Inactive)
REMARK    1  A    between atoms: C_1  and  C_2
REMARK    2  A    between atoms: C_1  and  C_18
REMARK    3  A    between atoms: C_5  and  C_7
REMARK    4  A    between atoms: N_10  and  C_12
REMARK                            x       y       z     vdW  Elec       q    Type
REMARK                         _______ _______ _______ _____ _____    ______ ____
ROOT
ATOM      2  C   UNL     1      -1.760  -0.290  25.397  0.00  0.00    +0.231 A 
ATOM      3  N   UNL     1      -1.042  -0.400  25.004  0.00  0.00    -0.111 NA
ATOM      4  N   UNL     1      -0.633   0.315  25.015  0.00  0.00    -0.112 NA
ATOM      5  C   UNL     1      -1.097   0.869  25.414  0.00  0.00    +0.227 A 
ATOM      6  O   UNL     1      -1.793   0.495  25.650  0.00  0.00    -0.423 OA
ENDROOT
BRANCH   5   7
ATOM      7  C   UNL     1      -0.899   1.657  25.552  0.00  0.00    +0.095 C 
ATOM      8  C   UNL     1      -0.261   1.926  26.002  0.00  0.00    +0.028 C 
ATOM      9  C   UNL     1      -0.272   2.751  25.992  0.00  0.00    +0.073 C 
ATOM     10  N   UNL     1      -0.917   2.992  25.538  0.00  0.00    -0.274 NA
ATOM     11  C   UNL     1      -1.304   2.317  25.266  0.00  0.00    +0.081 C 
BRANCH  10  12
ATOM     12  C   UNL     1      -1.135   3.773  25.383  0.00  0.00    +0.058 C 
ATOM     13  C   UNL     1      -0.615   4.277  24.988  0.00  0.00    +0.016 C 
ATOM     14  C   UNL     1      -0.834   5.057  24.833  0.00  0.00    +0.001 C 
ATOM     15  C   UNL     1      -1.573   5.333  25.074  0.00  0.00    +0.000 C 
ATOM     16  C   UNL     1      -2.092   4.829  25.469  0.00  0.00    +0.001 C 
ATOM     17  C   UNL     1      -1.874   4.049  25.624  0.00  0.00    +0.016 C 
ENDBRANCH  10  12
ENDBRANCH   5   7
BRANCH   2   1
ATOM      1  C   UNL     1      -2.341  -0.863  25.516  0.00  0.00    +0.115 C 
BRANCH   1  18
ATOM     18  C   UNL     1      -2.976  -0.922  24.993  0.00  0.00    +0.008 A 
ATOM     19  C   UNL     1      -3.397  -0.290  24.668  0.00  0.00    +0.095 A 
ATOM     20  N   UNL     1      -3.983  -0.600  24.177  0.00  0.00    -0.244 NA
ATOM     21  C   UNL     1      -3.924  -1.422  24.198  0.00  0.00    +0.081 A 
ATOM     22  C   UNL     1      -3.302  -1.621  24.702  0.00  0.00    +0.016 A 
ATOM     23  C   UNL     1      -3.113  -2.414  24.831  0.00  0.00    +0.001 A 
ATOM     24  C   UNL     1      -3.545  -3.007  24.456  0.00  0.00    +0.000 A 
ATOM     25  C   UNL     1      -4.167  -2.809  23.952  0.00  0.00    +0.002 A 
ATOM     26  C   UNL     1      -4.357  -2.017  23.822  0.00  0.00    +0.019 A 
ENDBRANCH   1  18
ENDBRANCH   2   1
TORSDOF 4
ENDMDL
MODEL 3
REMARK VINA RESULT:     -12.9      0.863      5.575
REMARK  Name = 
REMARK  4 active torsions:
REMARK  status: ('A' for Active; 'I' for Inactive)
REMARK    1  A    between atoms: C_1  and  C_2
REMARK    2  A    between atoms: C_1  and  C_18
REMARK    3  A    between atoms: C_5  and  C_7
REMARK    4  A    between atoms: N_10  and  C_12
REMARK                            x       y       z     vdW  Elec       q    Type
REMARK                         _______ _______ _______ _____ _____    ______ ____
ROOT
ATOM      2  C   UNL     1      -3.279   2.750  24.900  0.00  0.00    +0.231 A 
ATOM      3  N   UNL     1      -3.617   2.791  24.147  0.00  0.00    -0.111 NA
ATOM      4  N   UNL     1      -3.975   2.066  23.988  0.00  0.00    -0.112 NA
ATOM      5  C   UNL     1      -3.859   1.576  24.642  0.00  0.00    +0.227 A 
ATOM      6  O   UNL     1      -3.429   1.998  25.204  0.00  0.00    -0.423 OA
ENDROOT
BRANCH   5   7
ATOM      7  C   UNL     1      -4.127   0.799  24.719  0.00  0.00    +0.095 C 
ATOM      8  C   UNL     1      -4.866   0.566  25.001  0.00  0.00    +0.028 C 
ATOM      9  C   UNL     1      -4.898  -0.258  24.983  0.00  0.00    +0.073 C 
ATOM     10  N   UNL     1      -4.178  -0.535  24.690  0.00  0.00    -0.274 NA
ATOM     11  C   UNL     1      -3.702   0.118  24.527  0.00  0.00    +0.081 C 
BRANCH  10  12
ATOM     12  C   UNL     1      -3.972  -1.326  24.580  0.00  0.00    +0.058 C 
ATOM     13  C   UNL     1      -3.538  -1.724  25.157  0.00  0.00    +0.016 C 
ATOM     14  C   UNL     1      -3.332  -2.515  25.047  0.00  0.00    +0.001 C 
ATOM     15  C   UNL     1      -3.561  -2.908  24.359  0.00  0.00    +0.000 C 
ATOM     16  C   UNL     1      -3.995  -2.510  23.782  0.00  0.00    +0.001 C 
ATOM     17  C   UNL     1      -4.201  -1.719  23.892  0.00  0.00    +0.016 C 
ENDBRANCH  10  12
ENDBRANCH   5   7
BRANCH   2   1
ATOM      1  C   UNL     1      -2.864   3.354  25.279  0.00  0.00    +0.115 C 
BRANCH   1  18
ATOM     18  C   UNL     1      -2.062   3.463  25.126  0.00  0.00    +0.008 A 
ATOM     19  C   UNL     1      -1.504   2.865  25.011  0.00  0.00    +0.095 A 
ATOM     20  N   UNL     1      -0.773   3.221  24.875  0.00  0.00    -0.244 NA
ATOM     21  C   UNL     1      -0.878   4.039  24.906  0.00  0.00    +0.081 A 
ATOM     22  C   UNL     1      -1.674   4.188  25.061  0.00  0.00    +0.016 A 
ATOM     23  C   UNL     1      -1.943   4.965  25.123  0.00  0.00    +0.001 A 
ATOM     24  C   UNL     1      -1.417   5.593  25.030  0.00  0.00    +0.000 A 
ATOM     25  C   UNL     1      -0.621   5.444  24.875  0.00  0.00    +0.002 A 
ATOM     26  C   UNL     1      -0.351   4.667  24.813  0.00  0.00    +0.019 A 
ENDBRANCH   1  18
ENDBRANCH   2   1
TORSDOF 4
ENDMDL
MODEL 4
REMARK VINA RESULT:     -12.9      1.684      5.951
REMARK  Name = 
REMARK  4 active torsions:
REMARK  status: ('A' for Active; 'I' for Inactive)
REMARK    1  A    between atoms: C_1  and  C_2
REMARK    2  A    between atoms: C_1  and  C_18
REMARK    3  A    between atoms: C_5  and  C_7
REMARK    4  A    between atoms: N_10  and  C_12
REMARK                            x       y       z     vdW  Elec       q    Type
REMARK                         _______ _______ _______ _____ _____    ______ ____
ROOT
ATOM      2  C   UNL     1      -0.737   1.715  25.336  0.00  0.00    +0.231 A 
ATOM      3  N   UNL     1      -0.518   1.371  26.054  0.00  0.00    -0.111 NA
ATOM      4  N   UNL     1      -0.731   0.575  26.031  0.00  0.00    -0.112 NA
ATOM      5  C   UNL     1      -1.082   0.426  25.299  0.00  0.00    +0.227 A 
ATOM      6  O   UNL     1      -1.085   1.131  24.870  0.00  0.00    -0.423 OA
ENDROOT
BRANCH   5   7
ATOM      7  C   UNL     1      -1.377  -0.300  25.042  0.00  0.00    +0.095 C 
ATOM      8  C   UNL     1      -0.932  -0.977  24.887  0.00  0.00    +0.028 C 
ATOM      9  C   UNL     1      -1.450  -1.572  24.644  0.00  0.00    +0.073 C 
ATOM     10  N   UNL     1      -2.214  -1.263  24.648  0.00  0.00    -0.274 NA
ATOM     11  C   UNL     1      -2.169  -0.477  24.894  0.00  0.00    +0.081 C 
BRANCH  10  12
ATOM     12  C   UNL     1      -2.902  -1.669  24.443  0.00  0.00    +0.058 C 
ATOM     13  C   UNL     1      -3.544  -1.260  24.125  0.00  0.00    +0.016 C 
ATOM     14  C   UNL     1      -4.232  -1.666  23.919  0.00  0.00    +0.001 C 
ATOM     15  C   UNL     1      -4.277  -2.483  24.032  0.00  0.00    +0.000 C 
ATOM     16  C   UNL     1      -3.635  -2.891  24.350  0.00  0.00    +0.001 C 
ATOM     17  C   UNL     1      -2.947  -2.485  24.555  0.00  0.00    +0.016 C 
ENDBRANCH  10  12
ENDBRANCH   5   7
BRANCH   2   1
ATOM      1  C   UNL     1      -0.627   2.505  25.122  0.00  0.00    +0.115 C 
BRANCH   1  18
ATOM     18  C   UNL     1      -1.194   3.069  25.320  0.00  0.00    +0.008 A 
ATOM     19  C   UNL     1      -1.905   2.925  25.715  0.00  0.00    +0.095 A 
ATOM     20  N   UNL     1      -2.301   3.644  25.797  0.00  0.00    -0.244 NA
ATOM     21  C   UNL     1      -1.836   4.231  25.453  0.00  0.00    +0.081 A 
ATOM     22  C   UNL     1      -1.152   3.876  25.159  0.00  0.00    +0.016 A 
ATOM     23  C   UNL     1      -0.579   4.335  24.781  0.00  0.00    +0.001 A 
ATOM     24  C   UNL     1      -0.690   5.148  24.698  0.00  0.00    +0.000 A 
ATOM     25  C   UNL     1      -1.374   5.503  24.993  0.00  0.00    +0.002 A 
ATOM     26  C   UNL     1      -1.947   5.045  25.370  0.00  0.00    +0.019 A 
ENDBRANCH   1  18
ENDBRANCH   2   1
TORSDOF 4
ENDMDL
MODEL 5
REMARK VINA RESULT:     -11.4      1.270      5.060
REMARK  Name = 
REMARK  4 active torsions:
REMARK  status: ('A' for Active; 'I' for Inactive)
REMARK    1  A    between atoms: C_1  and  C_2
REMARK    2  A    between atoms: C_1  and  C_18
REMARK    3  A    between atoms: C_5  and  C_7
REMARK    4  A    between atoms: N_10  and  C_12
REMARK                            x       y       z     vdW  Elec       q    Type
REMARK                         _______ _______ _______ _____ _____    ______ ____
ROOT
ATOM      2  C   UNL     1      -4.613   1.821  25.088  0.00  0.00    +0.231 A 
ATOM      3  N   UNL     1      -5.220   1.415  24.703  0.00  0.00    -0.111 NA
ATOM      4  N   UNL     1      -5.013   0.617  24.670  0.00  0.00    -0.112 NA
ATOM      5  C   UNL     1      -4.278   0.530  25.034  0.00  0.00    +0.227 A 
ATOM      6  O   UNL     1      -4.032   1.274  25.292  0.00  0.00    -0.423 OA
ENDROOT
BRANCH   5   7
ATOM      7  C   UNL     1      -3.863  -0.177  25.125  0.00  0.00    +0.095 C 
ATOM      8  C   UNL     1      -4.166  -0.882  25.428  0.00  0.00    +0.028 C 
ATOM      9  C   UNL     1      -3.561  -1.444  25.419  0.00  0.00    +0.073 C 
ATOM     10  N   UNL     1      -2.885  -1.086  25.109  0.00  0.00    -0.274 NA
ATOM     11  C   UNL     1      -3.072  -0.303  24.928  0.00  0.00    +0.081 C 
BRANCH  10  12
ATOM     12  C   UNL     1      -2.152  -1.449  25.001  0.00  0.00    +0.058 C 
ATOM     13  C   UNL     1      -2.096  -2.145  24.563  0.00  0.00    +0.016 C 
ATOM     14  C   UNL     1      -1.364  -2.508  24.455  0.00  0.00    +0.001 C 
ATOM     15  C   UNL     1      -0.685  -2.172  24.785  0.00  0.00    +0.000 C 
ATOM     16  C   UNL     1      -0.742  -1.476  25.223  0.00  0.00    +0.001 C 
ATOM     17  C   UNL     1      -1.474  -1.113  25.331  0.00  0.00    +0.016 C 
ENDBRANCH  10  12
ENDBRANCH   5   7
BRANCH   2   1
ATOM      1  C   UNL     1      -4.593   2.632  25.241  0.00  0.00    +0.115 C 
BRANCH   1  18
ATOM     18  C   UNL     1      -4.040   3.110  24.860  0.00  0.00    +0.008 A 
ATOM     19  C   UNL     1      -3.944   3.185  24.043  0.00  0.00    +0.095 A 
ATOM     20  N   UNL     1      -3.330   3.719  23.907  0.00  0.00    -0.244 NA
ATOM     21  C   UNL     1      -3.047   3.974  24.638  0.00  0.00    +0.081 A 
ATOM     22  C   UNL     1      -3.486   3.597  25.227  0.00  0.00    +0.016 A 
ATOM     23  C   UNL     1      -3.323   3.748  26.022  0.00  0.00    +0.001 A 
ATOM     24  C   UNL     1      -2.723   4.274  26.228  0.00  0.00    +0.000 A 
ATOM     25  C   UNL     1      -2.284   4.650  25.639  0.00  0.00    +0.002 A 
ATOM     26  C   UNL     1      -2.446   4.500  24.845  0.00  0.00    +0.019 A 
ENDBRANCH   1  18
ENDBRANCH   2   1
TORSDOF 4
ENDMDL
MODEL 6
REMARK VINA RESULT:     -10.8      1.739      2.814
REMARK  Name = 
REMARK  4 active torsions:
REMARK  status: ('A' for Active; 'I' for Inactive)
REMARK    1  A    between atoms: C_1  and  C_2
REMARK    2  A    between atoms: C_1  and  C_18
REMARK    3  A    between atoms: C_5  and  C_7
REMARK    4  A    between atoms: N_10  and  C_12
REMARK                            x       y       z     vdW  Elec       q    Type
REMARK                         _______ _______ _______ _____ _____    ______ ____
ROOT
ATOM      2  C   UNL     1      -1.304   0.035  25.397  0.00  0.00    +0.231 A 
ATOM      3  N   UNL     1      -0.647   0.458  25.131  0.00  0.00    -0.111 NA
ATOM      4  N   UNL     1      -0.886   1.232  24.980  0.00  0.00    -0.112 NA
ATOM      5  C   UNL     1      -1.691   1.288  25.152  0.00  0.00    +0.227 A 
ATOM      6  O   UNL     1      -1.949   0.549  25.410  0.00  0.00    -0.423 OA
ENDROOT
BRANCH   5   7
ATOM      7  C   UNL     1      -2.157   1.966  25.080  0.00  0.00    +0.095 C 
ATOM      8  C   UNL     1      -1.899   2.706  24.821  0.00  0.00    +0.028 C 
ATOM      9  C   UNL     1      -2.545   3.219  24.835  0.00  0.00    +0.073 C 
ATOM     10  N   UNL     1      -3.201   2.797  25.102  0.00  0.00    -0.274 NA
ATOM     11  C   UNL     1      -2.961   2.023  25.253  0.00  0.00    +0.081 C 
BRANCH  10  12
ATOM     12  C   UNL     1      -3.963   3.097  25.200  0.00  0.00    +0.058 C 
ATOM     13  C   UNL     1      -4.615   2.595  25.149  0.00  0.00    +0.016 C 
ATOM     14  C   UNL     1      -5.377   2.896  25.247  0.00  0.00    +0.001 C 
ATOM     15  C   UNL     1      -5.486   3.700  25.396  0.00  0.00    +0.000 C 
ATOM     16  C   UNL     1      -4.834   4.202  25.447  0.00  0.00    +0.001 C 
ATOM     17  C   UNL     1      -4.072   3.902  25.349  0.00  0.00    +0.016 C 
ENDBRANCH  10  12
ENDBRANCH   5   7
BRANCH   2   1
ATOM      1  C   UNL     1      -1.313  -0.762  25.612  0.00  0.00    +0.115 C 
BRANCH   1  18
ATOM     18  C   UNL     1      -1.519  -1.337  25.057  0.00  0.00    +0.008 A 
ATOM     19  C   UNL     1      -1.071  -1.558  24.400  0.00  0.00    +0.095 A 
ATOM     20  N   UNL     1      -1.483  -2.150  23.999  0.00  0.00    -0.244 NA
ATOM     21  C   UNL     1      -2.185  -2.293  24.407  0.00  0.00    +0.081 A 
ATOM     22  C   UNL     1      -2.207  -1.791  25.062  0.00  0.00    +0.016 A 
ATOM     23  C   UNL     1      -2.851  -1.813  25.577  0.00  0.00    +0.001 A 
ATOM     24  C   UNL     1      -3.473  -2.336  25.438  0.00  0.00    +0.000 A 
ATOM     25  C   UNL     1      -3.451  -2.839  24.784  0.00  0.00    +0.002 A 
ATOM     26  C   UNL     1      -2.807  -2.818  24.268  0.00  0.00    +0.019 A 
ENDBRANCH   1  18
ENDBRANCH   2   1
TORSDOF 4
ENDMDL
