MODEL 1
REMARK VINA RESULT:     -13.1      0.000      0.000
REMARK  Name = 
REMARK  8 active torsions:
REMARK  status: ('A' for Active; 'I' for Inactive)
REMARK    1  A    between atoms: O_2  and  C_3
REMARK    2  A    between atoms: C_6  and  C_9
REMARK    3  A    between atoms: C_11  and  C_12
REMARK    4  A    between atoms: C_12  and  C_13
REMARK    5  A    between atoms: C_18  and  C_19
REMARK    6  A    between atoms: C_19  and  N_20
REMARK    7  A    between atoms: N_23  and  C_24
REMARK    8  A    between atoms: C_24  and  C_25
REMARK                            x       y       z     vdW  Elec       q    Type
REMARK                         _______ _______ _______ _____ _____    ______ ____
ROOT
ATOM     13  C   UNL     1      -2.508  -1.327  25.167  0.00  0.00    +0.121 C 
ATOM     14  C   UNL     1      -2.166  -1.972  24.782  0.00  0.00    +0.033 C 
ATOM     15  C   UNL     1      -1.364  -1.959  24.588  0.00  0.00    +0.038 C 
ATOM     16  C   UNL     1      -0.905  -1.300  24.779  0.00  0.00    +0.181 C 
ATOM     17  O   UNL     1      -0.104  -1.286  24.585  0.00  0.00    -0.220 OA
ATOM     18  C   UNL     1      -1.248  -0.656  25.163  0.00  0.00    +0.167 C 
ATOM     31  O   UNL     1      -2.049  -0.669  25.357  0.00  0.00    -0.354 OA
ENDROOT
BRANCH  13  12
ATOM     12  C   UNL     1      -3.311  -1.341  25.361  0.00  0.00    +0.079 C 
BRANCH  12  11
ATOM      9  C   UNL     1      -4.547   0.324  24.849  0.00  0.00    +0.177 A 
ATOM     10  C   UNL     1      -4.018  -0.051  25.361  0.00  0.00    +0.058 A 
ATOM     11  C   UNL     1      -3.824  -0.784  25.033  0.00  0.00    +0.103 A 
ATOM     32  N   UNL     1      -4.232  -0.861  24.321  0.00  0.00    -0.081 NA
ATOM     33  O   UNL     1      -4.679  -0.177  24.207  0.00  0.00    -0.354 OA
BRANCH   9   6
ATOM      3  C   UNL     1      -5.558   2.557  25.189  0.00  0.00    +0.139 A 
ATOM      4  C   UNL     1      -4.925   2.466  24.667  0.00  0.00    +0.037 A 
ATOM      5  C   UNL     1      -4.589   1.721  24.554  0.00  0.00    +0.006 A 
ATOM      6  C   UNL     1      -4.883   1.068  24.962  0.00  0.00    +0.037 A 
ATOM      7  C   UNL     1      -5.515   1.159  25.485  0.00  0.00    +0.006 A 
ATOM      8  C   UNL     1      -5.852   1.905  25.598  0.00  0.00    +0.037 A 
BRANCH   3   2
ATOM      1  C   UNL     1      -5.451   3.909  25.640  0.00  0.00    +0.252 C 
ATOM      2  O   UNL     1      -5.895   3.301  25.303  0.00  0.00    -0.471 OA
ENDBRANCH   3   2
ENDBRANCH   9   6
ENDBRANCH  12  11
ENDBRANCH  13  12
BRANCH  18  19
ATOM     19  C   UNL     1      -0.788   0.002  25.354  0.00  0.00    +0.149 C 
BRANCH  19  20
ATOM     20  N   UNL     1      -1.026   0.755  25.112  0.00  0.00    -0.185 NA
ATOM     21  C   UNL     1      -0.762   1.421  25.521  0.00  0.00    +0.340 C 
ATOM     22  O   UNL     1      -0.261   1.335  26.170  0.00  0.00    -0.249 OA
ATOM     23  N   UNL     1      -1.000   2.174  25.280  0.00  0.00    -0.182 NA
BRANCH  23  24
ATOM     24  C   UNL     1      -0.736   2.840  25.688  0.00  0.00    +0.143 C 
BRANCH  24  25
ATOM     25  C   UNL     1      -1.024   3.588  25.488  0.00  0.00    -0.001 A 
ATOM     26  C   UNL     1      -1.758   3.836  25.771  0.00  0.00    -0.003 A 
ATOM     27  C   UNL     1      -2.045   4.583  25.570  0.00  0.00    -0.000 A 
ATOM     28  C   UNL     1      -1.599   5.081  25.087  0.00  0.00    -0.000 A 
ATOM     29  C   UNL     1      -0.865   4.832  24.805  0.00  0.00    -0.000 A 
ATOM     30  C   UNL     1      -0.577   4.086  25.005  0.00  0.00    -0.003 A 
ENDBRANCH  24  25
ENDBRANCH  23  24
ENDBRANCH  19  20
ENDBRANCH  18  19
TORSDOF 8
ENDMDL
MODEL 2
REMARK VINA RESULT:     -12.3      1.292      4.232
REMARK  Name = 
REMARK  8 active torsions:
REMARK  status: ('A' for Active; 'I' for Inactive)
REMARK    1  A    between atoms: O_2  and  C_3
REMARK    2  A    between atoms: C_6  and  C_9
REMARK    3  A    between atoms: C_11  and  C_12
REMARK    4  A    between atoms: C_12  and  C_13
REMARK    5  A    between atoms: C_18  and  C_19
REMARK    6  A    between atoms: C_19  and  N_20
REMARK    7  A    between atoms: N_23  and  C_24
REMARK    8  A    between atoms: C_24  and  C_25
REMARK                            x       y       z     vdW  Elec       q    Type
REMARK                         _______ _______ _______ _____ _____    ______ ____
ROOT
ATOM     13  C   UNL     1      -0.820   3.067  25.325  0.00  0.00    +0.121 C 
ATOM     14  C   UNL     1      -0.201   3.377  24.876  0.00  0.00    +0.033 C 
ATOM     15  C   UNL     1       0.323   2.869  24.491  0.00  0.00    +0.038 C 
ATOM     16  C   UNL     1       0.228   2.052  24.555  0.00  0.00    +0.181 C 
ATOM     17  O   UNL     1       0.751   1.544  24.171  0.00  0.00    -0.220 OA
ATOM     18  C   UNL     1      -0.392   1.743  25.004  0.00  0.00    +0.167 C 
ATOM     31  O   UNL     1      -0.916   2.251  25.389  0.00  0.00    -0.354 OA
ENDROOT
BRANCH  13  12
ATOM     12  C   UNL     1      -1.345   3.576  25.710  0.00  0.00    +0.079 C 
BRANCH  12  11
ATOM      9  C   UNL     1      -3.407   3.485  25.163  0.00  0.00    +0.177 A 
ATOM     10  C   UNL     1      -2.753   3.176  25.559  0.00  0.00    +0.058 A 
ATOM     11  C   UNL     1      -2.111   3.676  25.419  0.00  0.00    +0.103 A 
ATOM     32  N   UNL     1      -2.368   4.293  24.937  0.00  0.00    -0.081 NA
ATOM     33  O   UNL     1      -3.170   4.176  24.779  0.00  0.00    -0.354 OA
BRANCH   9   6
ATOM      3  C   UNL     1      -5.682   2.512  25.137  0.00  0.00    +0.139 A 
ATOM      4  C   UNL     1      -5.105   2.224  24.622  0.00  0.00    +0.037 A 
ATOM      5  C   UNL     1      -4.347   2.549  24.631  0.00  0.00    +0.006 A 
ATOM      6  C   UNL     1      -4.165   3.160  25.154  0.00  0.00    +0.037 A 
ATOM      7  C   UNL     1      -4.743   3.448  25.669  0.00  0.00    +0.006 A 
ATOM      8  C   UNL     1      -5.501   3.122  25.660  0.00  0.00    +0.037 A 
BRANCH   3   2
ATOM      1  C   UNL     1      -6.545   1.383  24.974  0.00  0.00    +0.252 C 
ATOM      2  O   UNL     1      -6.441   2.187  25.128  0.00  0.00    -0.471 OA
ENDBRANCH   3   2
ENDBRANCH   9   6
ENDBRANCH  12  11
ENDBRANCH  13  12
BRANCH  18  19
ATOM     19  C   UNL     1      -0.487   0.926  25.068  0.00  0.00    +0.149 C 
BRANCH  19  20
ATOM     20  N   UNL     1      -1.146   0.560  24.732  0.00  0.00    -0.185 NA
ATOM     21  C   UNL     1      -1.425  -0.151  25.042  0.00  0.00    +0.340 C 
ATOM     22  O   UNL     1      -1.046  -0.497  25.687  0.00  0.00    -0.249 OA
ATOM     23  N   UNL     1      -2.084  -0.517  24.706  0.00  0.00    -0.182 NA
BRANCH  23  24
ATOM     24  C   UNL     1      -2.363  -1.228  25.016  0.00  0.00    +0.143 C 
BRANCH  24  25
ATOM     25  C   UNL     1      -3.007  -1.608  24.664  0.00  0.00    -0.001 A 
ATOM     26  C   UNL     1      -3.642  -1.164  24.382  0.00  0.00    -0.003 A 
ATOM     27  C   UNL     1      -4.285  -1.544  24.029  0.00  0.00    -0.000 A 
ATOM     28  C   UNL     1      -4.292  -2.366  23.959  0.00  0.00    -0.000 A 
ATOM     29  C   UNL     1      -3.655  -2.808  24.242  0.00  0.00    -0.000 A 
ATOM     30  C   UNL     1      -3.013  -2.430  24.594  0.00  0.00    -0.003 A 
ENDBRANCH  24  25
ENDBRANCH  23  24
ENDBRANCH  19  20
ENDBRANCH  18  19
TORSDOF 8
ENDMDL
MODEL 3
REMARK VINA RESULT:     -12.0      1.222      3.675
REMARK  Name = 
REMARK  8 active torsions:
REMARK  status: ('A' for Active; 'I' for Inactive)
REMARK    1  A    between atoms: O_2  and  C_3
REMARK    2  A    between atoms: C_6  and  C_9
REMARK    3  A    between atoms: C_11  and  C_12
REMARK    4  A    between atoms: C_12  and  C_13
REMARK    5  A    between atoms: C_18  and  C_19
REMARK    6  A    between atoms: C_19  and  N_20
REMARK    7  A    between atoms: N_23  and  C_24
REMARK    8  A    between atoms: C_24  and  C_25
REMARK                            x       y       z     vdW  Elec       q    Type
REMARK                         _______ _______ _______ _____ _____    ______ ____
ROOT
ATOM     13  C   UNL     1      -1.791  -1.694  24.932  0.00  0.00    +0.121 C 
ATOM     14  C   UNL     1      -1.809  -2.446  24.593  0.00  0.00    +0.033 C 
ATOM     15  C   UNL     1      -2.520  -2.752  24.308  0.00  0.00    +0.038 C 
ATOM     16  C   UNL     1      -3.213  -2.306  24.362  0.00  0.00    +0.181 C 
ATOM     17  O   UNL     1      -3.923  -2.612  24.077  0.00  0.00    -0.220 OA
ATOM     18  C   UNL     1      -3.193  -1.554  24.701  0.00  0.00    +0.167 C 
ATOM     31  O   UNL     1      -2.482  -1.248  24.986  0.00  0.00    -0.354 OA
ENDROOT
BRANCH  13  12
ATOM     12  C   UNL     1      -1.079  -1.387  25.217  0.00  0.00    +0.079 C 
BRANCH  12  11
ATOM      9  C   UNL     1      -0.594   0.662  24.862  0.00  0.00    +0.177 A 
ATOM     10  C   UNL     1      -0.968   0.077  25.308  0.00  0.00    +0.058 A 
ATOM     11  C   UNL     1      -0.811  -0.652  24.954  0.00  0.00    +0.103 A 
ATOM     32  N   UNL     1      -0.341  -0.518  24.290  0.00  0.00    -0.081 NA
ATOM     33  O   UNL     1      -0.206   0.294  24.233  0.00  0.00    -0.354 OA
BRANCH   9   6
ATOM      3  C   UNL     1      -0.630   3.091  25.334  0.00  0.00    +0.139 A 
ATOM      4  C   UNL     1      -0.593   2.823  24.554  0.00  0.00    +0.037 A 
ATOM      5  C   UNL     1      -0.581   2.013  24.398  0.00  0.00    +0.006 A 
ATOM      6  C   UNL     1      -0.606   1.471  25.019  0.00  0.00    +0.037 A 
ATOM      7  C   UNL     1      -0.643   1.739  25.799  0.00  0.00    +0.006 A 
ATOM      8  C   UNL     1      -0.655   2.550  25.956  0.00  0.00    +0.037 A 
BRANCH   3   2
ATOM      1  C   UNL     1      -0.646   4.443  24.871  0.00  0.00    +0.252 C 
ATOM      2  O   UNL     1      -0.642   3.901  25.492  0.00  0.00    -0.471 OA
ENDBRANCH   3   2
ENDBRANCH   9   6
ENDBRANCH  12  11
ENDBRANCH  13  12
BRANCH  18  19
ATOM     19  C   UNL     1      -3.885  -1.109  24.754  0.00  0.00    +0.149 C 
BRANCH  19  20
ATOM     20  N   UNL     1      -3.903  -0.337  24.459  0.00  0.00    -0.185 NA
ATOM     21  C   UNL     1      -4.334   0.245  24.854  0.00  0.00    +0.340 C 
ATOM     22  O   UNL     1      -4.746   0.057  25.542  0.00  0.00    -0.249 OA
ATOM     23  N   UNL     1      -4.351   1.016  24.560  0.00  0.00    -0.182 NA
BRANCH  23  24
ATOM     24  C   UNL     1      -4.782   1.598  24.955  0.00  0.00    +0.143 C 
BRANCH  24  25
ATOM     25  C   UNL     1      -4.580   2.393  24.865  0.00  0.00    -0.001 A 
ATOM     26  C   UNL     1      -4.613   2.903  25.513  0.00  0.00    -0.003 A 
ATOM     27  C   UNL     1      -4.411   3.698  25.422  0.00  0.00    -0.000 A 
ATOM     28  C   UNL     1      -4.175   3.983  24.685  0.00  0.00    -0.000 A 
ATOM     29  C   UNL     1      -4.142   3.472  24.037  0.00  0.00    -0.000 A 
ATOM     30  C   UNL     1      -4.344   2.678  24.127  0.00  0.00    -0.003 A 
ENDBRANCH  24  25
ENDBRANCH  23  24
ENDBRANCH  19  20
ENDBRANCH  18  19
TORSDOF 8
ENDMDL
MODEL 4
REMARK VINA RESULT:     -11.7      1.655      5.817
REMARK  Name = 
REMARK  8 active torsions:
REMARK  status: ('A' for Active; 'I' for Inactive)
REMARK    1  A    between atoms: O_2  and  C_3
REMARK    2  A    between atoms: C_6  and  C_9
REMARK    3  A    between atoms: C_11  and  C_12
REMARK    4  A    between atoms: C_12  and  C_13
REMARK    5  A    between atoms: C_18  and  C_19
REMARK    6  A    between atoms: C_19  and  N_20
REMARK    7  A    between atoms: N_23  and  C_24
REMARK    8  A    between atoms: C_24  and  C_25
REMARK                            x       y       z     vdW  Elec       q    Type
REMARK                         _______ _______ _______ _____ _____    ______ ____
ROOT
ATOM     13  C   UNL     1      -2.411   3.781  25.297  0.00  0.00    +0.121 C 
ATOM     14  C   UNL     1      -2.721   4.329  25.831  0.00  0.00    +0.033 C 
ATOM     15  C   UNL     1      -3.495   4.246  26.104  0.00  0.00    +0.038 C 
ATOM     16  C   UNL     1      -3.959   3.614  25.843  0.00  0.00    +0.181 C 
ATOM     17  O   UNL     1      -4.732   3.530  26.116  0.00  0.00    -0.220 OA
ATOM     18  C   UNL     1      -3.647   3.067  25.310  0.00  0.00    +0.167 C 
ATOM     31  O   UNL     1      -2.873   3.151  25.037  0.00  0.00    -0.354 OA
ENDROOT
BRANCH  13  12
ATOM     12  C   UNL     1      -1.636   3.865  25.024  0.00  0.00    +0.079 C 
BRANCH  12  11
ATOM      9  C   UNL     1      -0.358   2.173  24.766  0.00  0.00    +0.177 A 
ATOM     10  C   UNL     1      -0.897   2.722  24.466  0.00  0.00    +0.058 A 
ATOM     11  C   UNL     1      -1.109   3.232  25.079  0.00  0.00    +0.103 A 
ATOM     32  N   UNL     1      -0.702   2.999  25.757  0.00  0.00    -0.081 NA
ATOM     33  O   UNL     1      -0.238   2.344  25.564  0.00  0.00    -0.354 OA
BRANCH   9   6
ATOM      3  C   UNL     1       0.705   0.337  23.492  0.00  0.00    +0.139 A 
ATOM      4  C   UNL     1       1.084   1.067  23.557  0.00  0.00    +0.037 A 
ATOM      5  C   UNL     1       0.730   1.679  23.982  0.00  0.00    +0.006 A 
ATOM      6  C   UNL     1      -0.003   1.562  24.341  0.00  0.00    +0.037 A 
ATOM      7  C   UNL     1      -0.383   0.832  24.276  0.00  0.00    +0.006 A 
ATOM      8  C   UNL     1      -0.028   0.219  23.851  0.00  0.00    +0.037 A 
BRANCH   3   2
ATOM      1  C   UNL     1       1.741  -0.132  22.626  0.00  0.00    +0.252 C 
ATOM      2  O   UNL     1       1.059  -0.275  23.067  0.00  0.00    -0.471 OA
ENDBRANCH   3   2
ENDBRANCH   9   6
ENDBRANCH  12  11
ENDBRANCH  13  12
BRANCH  18  19
ATOM     19  C   UNL     1      -4.111   2.436  25.050  0.00  0.00    +0.149 C 
BRANCH  19  20
ATOM     20  N   UNL     1      -3.794   1.674  25.026  0.00  0.00    -0.185 NA
ATOM     21  C   UNL     1      -4.260   1.042  24.774  0.00  0.00    +0.340 C 
ATOM     22  O   UNL     1      -5.042   1.171  24.546  0.00  0.00    -0.249 OA
ATOM     23  N   UNL     1      -3.943   0.280  24.749  0.00  0.00    -0.182 NA
BRANCH  23  24
ATOM     24  C   UNL     1      -4.409  -0.352  24.497  0.00  0.00    +0.143 C 
BRANCH  24  25
ATOM     25  C   UNL     1      -4.105  -1.119  24.510  0.00  0.00    -0.001 A 
ATOM     26  C   UNL     1      -4.242  -1.627  23.874  0.00  0.00    -0.003 A 
ATOM     27  C   UNL     1      -3.937  -2.395  23.887  0.00  0.00    -0.000 A 
ATOM     28  C   UNL     1      -3.497  -2.653  24.535  0.00  0.00    -0.000 A 
ATOM     29  C   UNL     1      -3.361  -2.144  25.170  0.00  0.00    -0.000 A 
ATOM     30  C   UNL     1      -3.664  -1.378  25.158  0.00  0.00    -0.003 A 
ENDBRANCH  24  25
ENDBRANCH  23  24
ENDBRANCH  19  20
ENDBRANCH  18  19
TORSDOF 8
ENDMDL
MODEL 5
REMARK VINA RESULT:     -11.4      1.396      5.472
REMARK  Name = 
REMARK  8 active torsions:
REMARK  status: ('A' for Active; 'I' for Inactive)
REMARK    1  A    between atoms: O_2  and  C_3
REMARK    2  A    between atoms: C_6  and  C_9
REMARK    3  A    between atoms: C_11  and  C_12
REMARK    4  A    between atoms: C_12  and  C_13
REMARK    5  A    between atoms: C_18  and  C_19
REMARK    6  A    between atoms: C_19  and  N_20
REMARK    7  A    between atoms: N_23  and  C_24
REMARK    8  A    between atoms: C_24  and  C_25
REMARK                            x       y       z     vdW  Elec       q    Type
REMARK                         _______ _______ _______ _____ _____    ______ ____
ROOT
ATOM     13  C   UNL     1      -4.586   3.312  25.163  0.00  0.00    +0.121 C 
ATOM     14  C   UNL     1      -5.206   3.599  25.625  0.00  0.00    +0.033 C 
ATOM     15  C   UNL     1      -5.801   3.088  25.880  0.00  0.00    +0.038 C 
ATOM     16  C   UNL     1      -5.776   2.289  25.672  0.00  0.00    +0.181 C 
ATOM     17  O   UNL     1      -6.371   1.778  25.927  0.00  0.00    -0.220 OA
ATOM     18  C   UNL     1      -5.156   2.003  25.210  0.00  0.00    +0.167 C 
ATOM     31  O   UNL     1      -4.561   2.514  24.955  0.00  0.00    -0.354 OA
ENDROOT
BRANCH  13  12
ATOM     12  C   UNL     1      -3.990   3.824  24.908  0.00  0.00    +0.079 C 
BRANCH  12  11
ATOM      9  C   UNL     1      -1.946   3.320  25.268  0.00  0.00    +0.177 A 
ATOM     10  C   UNL     1      -2.632   3.265  24.813  0.00  0.00    +0.058 A 
ATOM     11  C   UNL     1      -3.216   3.721  25.176  0.00  0.00    +0.103 A 
ATOM     32  N   UNL     1      -2.891   4.058  25.855  0.00  0.00    -0.081 NA
ATOM     33  O   UNL     1      -2.106   3.810  25.912  0.00  0.00    -0.354 OA
BRANCH   9   6
ATOM      3  C   UNL     1       0.211   2.209  24.781  0.00  0.00    +0.139 A 
ATOM      4  C   UNL     1      -0.208   2.014  25.465  0.00  0.00    +0.037 A 
ATOM      5  C   UNL     1      -0.927   2.385  25.627  0.00  0.00    +0.006 A 
ATOM      6  C   UNL     1      -1.227   2.950  25.107  0.00  0.00    +0.037 A 
ATOM      7  C   UNL     1      -0.808   3.145  24.423  0.00  0.00    +0.006 A 
ATOM      8  C   UNL     1      -0.088   2.774  24.261  0.00  0.00    +0.037 A 
BRANCH   3   2
ATOM      1  C   UNL     1       1.007   1.359  23.952  0.00  0.00    +0.252 C 
ATOM      2  O   UNL     1       0.931   1.839  24.619  0.00  0.00    -0.471 OA
ENDBRANCH   3   2
ENDBRANCH   9   6
ENDBRANCH  12  11
ENDBRANCH  13  12
BRANCH  18  19
ATOM     19  C   UNL     1      -5.131   1.205  25.003  0.00  0.00    +0.149 C 
BRANCH  19  20
ATOM     20  N   UNL     1      -4.452   0.761  25.152  0.00  0.00    -0.185 NA
ATOM     21  C   UNL     1      -4.328   0.050  24.752  0.00  0.00    +0.340 C 
ATOM     22  O   UNL     1      -4.883  -0.217  24.204  0.00  0.00    -0.249 OA
ATOM     23  N   UNL     1      -3.648  -0.394  24.901  0.00  0.00    -0.182 NA
BRANCH  23  24
ATOM     24  C   UNL     1      -3.525  -1.105  24.501  0.00  0.00    +0.143 C 
BRANCH  24  25
ATOM     25  C   UNL     1      -2.800  -1.495  24.569  0.00  0.00    -0.001 A 
ATOM     26  C   UNL     1      -2.107  -1.061  24.677  0.00  0.00    -0.003 A 
ATOM     27  C   UNL     1      -1.383  -1.452  24.745  0.00  0.00    -0.000 A 
ATOM     28  C   UNL     1      -1.352  -2.275  24.705  0.00  0.00    -0.000 A 
ATOM     29  C   UNL     1      -2.047  -2.708  24.597  0.00  0.00    -0.000 A 
ATOM     30  C   UNL     1      -2.770  -2.319  24.529  0.00  0.00    -0.003 A 
ENDBRANCH  24  25
ENDBRANCH  23  24
ENDBRANCH  19  20
ENDBRANCH  18  19
TORSDOF 8
ENDMDL
MODEL 6
REMARK VINA RESULT:     -11.3      1.611      4.245
REMARK  Name = 
REMARK  8 active torsions:
REMARK  status: ('A' for Active; 'I' for Inactive)
REMARK    1  A    between atoms: O_2  and  C_3
REMARK    2  A    between atoms: C_6  and  C_9
REMARK    3  A    between atoms: C_11  and  C_12
REMARK    4  A    between atoms: C_12  and  C_13
REMARK    5  A    between atoms: C_18  and  C_19
REMARK    6  A    between atoms: C_19  and  N_20
REMARK    7  A    between atoms: N_23  and  C_24
REMARK    8  A    between atoms: C_24  and  C_25
REMARK                            x       y       z     vdW  Elec       q    Type
REMARK                         _______ _______ _______ _____ _____    ______ ____
ROOT
ATOM     13  C   UNL     1      -4.208   2.899  24.945  0.00  0.00    +0.121 C 
ATOM     14  C   UNL     1      -4.564   3.480  25.411  0.00  0.00    +0.033 C 
ATOM     15  C   UNL     1      -4.097   4.022  25.822  0.00  0.00    +0.038 C 
ATOM     16  C   UNL     1      -3.274   3.983  25.767  0.00  0.00    +0.181 C 
ATOM     17  O   UNL     1      -2.807   4.524  26.177  0.00  0.00    -0.220 OA
ATOM     18  C   UNL     1      -2.919   3.401  25.301  0.00  0.00    +0.167 C 
ATOM     31  O   UNL     1      -3.387   2.860  24.890  0.00  0.00    -0.354 OA
ENDROOT
BRANCH  13  12
ATOM     12  C   UNL     1      -4.676   2.356  24.534  0.00  0.00    +0.079 C 
BRANCH  12  11
ATOM      9  C   UNL     1      -4.486   0.267  24.935  0.00  0.00    +0.177 A 
ATOM     10  C   UNL     1      -4.250   0.948  24.532  0.00  0.00    +0.058 A 
ATOM     11  C   UNL     1      -4.722   1.574  24.792  0.00  0.00    +0.103 A 
ATOM     32  N   UNL     1      -5.248   1.280  25.354  0.00  0.00    -0.081 NA
ATOM     33  O   UNL     1      -5.103   0.472  25.442  0.00  0.00    -0.354 OA
BRANCH   9   6
ATOM      3  C   UNL     1      -3.509  -1.990  24.664  0.00  0.00    +0.139 A 
ATOM      4  C   UNL     1      -4.001  -1.681  24.078  0.00  0.00    +0.037 A 
ATOM      5  C   UNL     1      -4.326  -0.928  24.169  0.00  0.00    +0.006 A 
ATOM      6  C   UNL     1      -4.161  -0.485  24.844  0.00  0.00    +0.037 A 
ATOM      7  C   UNL     1      -3.669  -0.794  25.430  0.00  0.00    +0.006 A 
ATOM      8  C   UNL     1      -3.343  -1.548  25.340  0.00  0.00    +0.037 A 
BRANCH   3   2
ATOM      1  C   UNL     1      -2.391  -2.827  24.361  0.00  0.00    +0.252 C 
ATOM      2  O   UNL     1      -3.183  -2.743  24.575  0.00  0.00    -0.471 OA
ENDBRANCH   3   2
ENDBRANCH   9   6
ENDBRANCH  12  11
ENDBRANCH  13  12
BRANCH  18  19
ATOM     19  C   UNL     1      -2.097   3.363  25.246  0.00  0.00    +0.149 C 
BRANCH  19  20
ATOM     20  N   UNL     1      -1.744   2.870  24.686  0.00  0.00    -0.185 NA
ATOM     21  C   UNL     1      -1.040   2.479  24.866  0.00  0.00    +0.340 C 
ATOM     22  O   UNL     1      -0.690   2.580  25.605  0.00  0.00    -0.249 OA
ATOM     23  N   UNL     1      -0.687   1.986  24.306  0.00  0.00    -0.182 NA
BRANCH  23  24
ATOM     24  C   UNL     1       0.016   1.595  24.486  0.00  0.00    +0.143 C 
BRANCH  24  25
ATOM     25  C   UNL     1       0.259   0.951  24.030  0.00  0.00    -0.001 A 
ATOM     26  C   UNL     1      -0.172   0.248  24.048  0.00  0.00    -0.003 A 
ATOM     27  C   UNL     1       0.071  -0.396  23.592  0.00  0.00    -0.000 A 
ATOM     28  C   UNL     1       0.743  -0.336  23.118  0.00  0.00    -0.000 A 
ATOM     29  C   UNL     1       1.173   0.368  23.100  0.00  0.00    -0.000 A 
ATOM     30  C   UNL     1       0.931   1.011  23.556  0.00  0.00    -0.003 A 
ENDBRANCH  24  25
ENDBRANCH  23  24
ENDBRANCH  19  20
ENDBRANCH  18  19
TORSDOF 8
ENDMDL
