MODEL 1
REMARK VINA RESULT:     -11.3      0.000      0.000
REMARK  Name = 
REMARK  8 active torsions:
REMARK  status: ('A' for Active; 'I' for Inactive)
REMARK    1  A    between atoms: C_2  and  N_4
REMARK    2  A    between atoms: N_7  and  C_8
REMARK    3  A    between atoms: C_12  and  C_13
REMARK    4  A    between atoms: N_15  and  C_16
REMARK    5  A    between atoms: C_16  and  C_17
REMARK    6  A    between atoms: C_16  and  C_27
REMARK    7  A    between atoms: C_17  and  C_18
REMARK    8  A    between atoms: C_30  and  C_32
REMARK                            x       y       z     vdW  Elec       q    Type
REMARK                         _______ _______ _______ _____ _____    ______ ____
ROOT
ATOM      8  C   UNL     1      -3.620   2.775  25.302  0.00  0.00    +0.126 C 
ATOM      9  C   UNL     1      -3.825   3.526  25.577  0.00  0.00    +0.045 C 
ATOM     10  C   UNL     1      -3.182   4.027  25.450  0.00  0.00    +0.096 C 
ATOM     11  N   UNL     1      -2.580   3.587  25.097  0.00  0.00    -0.268 N 
ATOM     12  C   UNL     1      -2.851   2.814  25.006  0.00  0.00    +0.174 C 
ATOM     30  C   UNL     1      -1.838   3.872  24.876  0.00  0.00    +0.249 C 
ATOM     31  O   UNL     1      -1.290   3.364  24.527  0.00  0.00    -0.270 OA
ENDROOT
BRANCH   8   7
ATOM      4  N   UNL     1      -5.399   1.514  25.376  0.00  0.00    -0.189 NA
ATOM      5  C   UNL     1      -4.920   2.184  25.358  0.00  0.00    +0.339 C 
ATOM      6  O   UNL     1      -5.260   2.936  25.379  0.00  0.00    -0.249 OA
ATOM      7  N   UNL     1      -4.100   2.105  25.320  0.00  0.00    -0.187 NA
BRANCH   4   2
ATOM      1  C   UNL     1      -6.594   1.646  26.149  0.00  0.00    +0.023 C 
ATOM      2  C   UNL     1      -6.220   1.595  25.415  0.00  0.00    +0.097 C 
ATOM      3  C   UNL     1      -6.665   1.624  24.722  0.00  0.00    +0.023 C 
ENDBRANCH   4   2
ENDBRANCH   8   7
BRANCH  30  32
ATOM     32  C   UNL     1      -1.645   4.663  25.002  0.00  0.00    +0.049 C 
ATOM     33  C   UNL     1      -0.874   4.925  24.869  0.00  0.00    -0.039 C 
ATOM     34  C   UNL     1      -0.680   5.717  24.996  0.00  0.00    +0.027 C 
ATOM     35  C   UNL     1      -0.297   4.396  24.610  0.00  0.00    +0.027 C 
ENDBRANCH  30  32
BRANCH  12  13
ATOM     13  C   UNL     1      -2.426   2.187  24.675  0.00  0.00    +0.262 C 
ATOM     14  O   UNL     1      -2.245   2.192  23.871  0.00  0.00    -0.271 OA
ATOM     15  N   UNL     1      -2.183   1.558  25.150  0.00  0.00    -0.196 NA
BRANCH  15  16
ATOM     16  C   UNL     1      -1.759   0.933  24.820  0.00  0.00    +0.179 C 
BRANCH  16  27
ATOM     27  C   UNL     1      -0.937   0.907  24.893  0.00  0.00    +0.281 C 
ATOM     28  N   UNL     1      -0.467   0.796  24.225  0.00  0.00    -0.086 NA
ATOM     29  O   UNL     1      -0.587   0.991  25.635  0.00  0.00    -0.270 OA
ENDBRANCH  16  27
BRANCH  16  17
ATOM     17  C   UNL     1      -2.156   0.333  24.416  0.00  0.00    +0.059 C 
BRANCH  17  18
ATOM     18  C   UNL     1      -2.410  -0.340  24.822  0.00  0.00    +0.001 A 
ATOM     19  C   UNL     1      -2.141  -0.590  25.560  0.00  0.00    +0.095 A 
ATOM     20  N   UNL     1      -2.543  -1.285  25.756  0.00  0.00    -0.244 NA
ATOM     21  C   UNL     1      -3.060  -1.462  25.137  0.00  0.00    +0.081 A 
ATOM     22  C   UNL     1      -2.978  -0.878  24.560  0.00  0.00    +0.015 A 
ATOM     23  C   UNL     1      -3.430  -0.912  23.872  0.00  0.00    +0.001 A 
ATOM     24  C   UNL     1      -3.965  -1.530  23.759  0.00  0.00    +0.000 A 
ATOM     25  C   UNL     1      -4.047  -2.115  24.336  0.00  0.00    +0.002 A 
ATOM     26  C   UNL     1      -3.595  -2.081  25.025  0.00  0.00    +0.019 A 
ENDBRANCH  17  18
ENDBRANCH  16  17
ENDBRANCH  15  16
ENDBRANCH  12  13
TORSDOF 8
ENDMDL
MODEL 2
REMARK VINA RESULT:     -11.0      1.374      3.448
REMARK  Name = 
REMARK  8 active torsions:
REMARK  status: ('A' for Active; 'I' for Inactive)
REMARK    1  A    between atoms: C_2  and  N_4
REMARK    2  A    between atoms: N_7  and  C_8
REMARK    3  A    between atoms: C_12  and  C_13
REMARK    4  A    between atoms: N_15  and  C_16
REMARK    5  A    between atoms: C_16  and  C_17
REMARK    6  A    between atoms: C_16  and  C_27
REMARK    7  A    between atoms: C_17  and  C_18
REMARK    8  A    between atoms: C_30  and  C_32
REMARK                            x       y       z     vdW  Elec       q    Type
REMARK                         _______ _______ _______ _____ _____    ______ ____
ROOT
ATOM      8  C   UNL     1      -1.202   1.747  24.133  0.00  0.00    +0.126 C 
ATOM      9  C   UNL     1      -0.622   2.288  23.906  0.00  0.00    +0.045 C 
ATOM     10  C   UNL     1      -0.839   3.030  24.193  0.00  0.00    +0.096 C 
ATOM     11  N   UNL     1      -1.553   2.948  24.598  0.00  0.00    -0.268 N 
ATOM     12  C   UNL     1      -1.777   2.155  24.561  0.00  0.00    +0.174 C 
ATOM     30  C   UNL     1      -1.970   3.553  24.974  0.00  0.00    +0.249 C 
ATOM     31  O   UNL     1      -2.680   3.387  25.359  0.00  0.00    -0.270 OA
ENDROOT
BRANCH   8   7
ATOM      4  N   UNL     1      -0.501  -0.290  23.782  0.00  0.00    -0.189 NA
ATOM      5  C   UNL     1      -0.497   0.517  23.952  0.00  0.00    +0.339 C 
ATOM      6  O   UNL     1       0.215   0.902  24.112  0.00  0.00    -0.249 OA
ATOM      7  N   UNL     1      -1.205   0.940  23.963  0.00  0.00    -0.187 NA
BRANCH   4   2
ATOM      1  C   UNL     1       0.371  -1.258  24.370  0.00  0.00    +0.023 C 
ATOM      2  C   UNL     1       0.208  -0.712  23.772  0.00  0.00    +0.097 C 
ATOM      3  C   UNL     1       0.753  -0.590  23.165  0.00  0.00    +0.023 C 
ENDBRANCH   4   2
ENDBRANCH   8   7
BRANCH  30  32
ATOM     32  C   UNL     1      -1.676   4.324  24.965  0.00  0.00    +0.049 C 
ATOM     33  C   UNL     1      -2.096   4.929  25.336  0.00  0.00    -0.039 C 
ATOM     34  C   UNL     1      -1.803   5.700  25.327  0.00  0.00    +0.027 C 
ATOM     35  C   UNL     1      -2.810   4.764  25.716  0.00  0.00    +0.027 C 
ENDBRANCH  30  32
BRANCH  12  13
ATOM     13  C   UNL     1      -2.458   1.827  24.894  0.00  0.00    +0.262 C 
ATOM     14  O   UNL     1      -2.541   1.796  25.714  0.00  0.00    -0.271 OA
ATOM     15  N   UNL     1      -3.054   1.531  24.407  0.00  0.00    -0.196 NA
BRANCH  15  16
ATOM     16  C   UNL     1      -3.733   1.204  24.739  0.00  0.00    +0.179 C 
BRANCH  16  27
ATOM     27  C   UNL     1      -4.442   1.627  24.731  0.00  0.00    +0.281 C 
ATOM     28  N   UNL     1      -4.903   1.672  25.413  0.00  0.00    -0.086 NA
ATOM     29  O   UNL     1      -4.689   2.004  24.040  0.00  0.00    -0.270 OA
ENDBRANCH  16  27
BRANCH  16  17
ATOM     17  C   UNL     1      -3.705   0.454  25.081  0.00  0.00    +0.059 C 
BRANCH  17  18
ATOM     18  C   UNL     1      -3.854  -0.216  24.620  0.00  0.00    +0.001 A 
ATOM     19  C   UNL     1      -4.178  -0.219  23.862  0.00  0.00    +0.095 A 
ATOM     20  N   UNL     1      -4.229  -1.003  23.610  0.00  0.00    -0.244 NA
ATOM     21  C   UNL     1      -3.936  -1.484  24.214  0.00  0.00    +0.081 A 
ATOM     22  C   UNL     1      -3.704  -0.997  24.838  0.00  0.00    +0.015 A 
ATOM     23  C   UNL     1      -3.386  -1.328  25.524  0.00  0.00    +0.001 A 
ATOM     24  C   UNL     1      -3.301  -2.146  25.585  0.00  0.00    +0.000 A 
ATOM     25  C   UNL     1      -3.532  -2.634  24.961  0.00  0.00    +0.002 A 
ATOM     26  C   UNL     1      -3.850  -2.303  24.276  0.00  0.00    +0.019 A 
ENDBRANCH  17  18
ENDBRANCH  16  17
ENDBRANCH  15  16
ENDBRANCH  12  13
TORSDOF 8
ENDMDL
MODEL 3
REMARK VINA RESULT:     -10.8      1.376      4.369
REMARK  Name = 
REMARK  8 active torsions:
REMARK  status: ('A' for Active; 'I' for Inactive)
REMARK    1  A    between atoms: C_2  and  N_4
REMARK    2  A    between atoms: N_7  and  C_8
REMARK    3  A    between atoms: C_12  and  C_13
REMARK    4  A    between atoms: N_15  and  C_16
REMARK    5  A    between atoms: C_16  and  C_17
REMARK    6  A    between atoms: C_16  and  C_27
REMARK    7  A    between atoms: C_17  and  C_18
REMARK    8  A    between atoms: C_30  and  C_32
REMARK                            x       y       z     vdW  Elec       q    Type
REMARK                         _______ _______ _______ _____ _____    ______ ____
ROOT
ATOM      8  C   UNL     1      -3.970   0.852  24.900  0.00  0.00    +0.126 C 
ATOM      9  C   UNL     1      -4.716   0.505  24.953  0.00  0.00    +0.045 C 
ATOM     10  C   UNL     1      -4.650  -0.280  24.708  0.00  0.00    +0.096 C 
ATOM     11  N   UNL     1      -3.862  -0.418  24.504  0.00  0.00    -0.268 N 
ATOM     12  C   UNL     1      -3.443   0.282  24.623  0.00  0.00    +0.174 C 
ATOM     30  C   UNL     1      -3.551  -1.131  24.230  0.00  0.00    +0.249 C 
ATOM     31  O   UNL     1      -2.748  -1.187  24.047  0.00  0.00    -0.270 OA
ENDROOT
BRANCH   8   7
ATOM      4  N   UNL     1      -4.173   3.001  25.225  0.00  0.00    -0.189 NA
ATOM      5  C   UNL     1      -4.360   2.220  25.034  0.00  0.00    +0.339 C 
ATOM      6  O   UNL     1      -5.123   2.027  24.786  0.00  0.00    -0.249 OA
ATOM      7  N   UNL     1      -3.783   1.633  25.090  0.00  0.00    -0.187 NA
BRANCH   4   2
ATOM      1  C   UNL     1      -4.728   4.129  24.544  0.00  0.00    +0.023 C 
ATOM      2  C   UNL     1      -4.750   3.588  25.168  0.00  0.00    +0.097 C 
ATOM      3  C   UNL     1      -5.349   3.635  25.733  0.00  0.00    +0.023 C 
ENDBRANCH   4   2
ENDBRANCH   8   7
BRANCH  30  32
ATOM     32  C   UNL     1      -4.041  -1.788  24.138  0.00  0.00    +0.049 C 
ATOM     33  C   UNL     1      -3.721  -2.548  24.165  0.00  0.00    -0.039 C 
ATOM     34  C   UNL     1      -4.211  -3.206  24.073  0.00  0.00    +0.027 C 
ATOM     35  C   UNL     1      -2.911  -2.651  24.282  0.00  0.00    +0.027 C 
ENDBRANCH  30  32
BRANCH  12  13
ATOM     13  C   UNL     1      -2.636   0.391  24.487  0.00  0.00    +0.262 C 
ATOM     14  O   UNL     1      -2.340   0.368  23.718  0.00  0.00    -0.271 OA
ATOM     15  N   UNL     1      -2.125   0.525  25.122  0.00  0.00    -0.196 NA
BRANCH  15  16
ATOM     16  C   UNL     1      -1.320   0.635  24.986  0.00  0.00    +0.179 C 
BRANCH  16  27
ATOM     27  C   UNL     1      -0.784   0.034  25.169  0.00  0.00    +0.281 C 
ATOM     28  N   UNL     1      -0.219  -0.198  24.615  0.00  0.00    -0.086 NA
ATOM     29  O   UNL     1      -0.814  -0.335  25.906  0.00  0.00    -0.270 OA
ENDBRANCH  16  27
BRANCH  16  17
ATOM     17  C   UNL     1      -1.048   1.346  24.668  0.00  0.00    +0.059 C 
BRANCH  17  18
ATOM     18  C   UNL     1      -0.840   1.969  25.168  0.00  0.00    +0.001 A 
ATOM     19  C   UNL     1      -0.663   1.907  25.971  0.00  0.00    +0.095 A 
ATOM     20  N   UNL     1      -0.486   2.663  26.252  0.00  0.00    -0.244 NA
ATOM     21  C   UNL     1      -0.554   3.192  25.621  0.00  0.00    +0.081 A 
ATOM     22  C   UNL     1      -0.773   2.762  24.952  0.00  0.00    +0.015 A 
ATOM     23  C   UNL     1      -0.883   3.149  24.231  0.00  0.00    +0.001 A 
ATOM     24  C   UNL     1      -0.774   3.966  24.181  0.00  0.00    +0.000 A 
ATOM     25  C   UNL     1      -0.555   4.395  24.851  0.00  0.00    +0.002 A 
ATOM     26  C   UNL     1      -0.445   4.008  25.571  0.00  0.00    +0.019 A 
ENDBRANCH  17  18
ENDBRANCH  16  17
ENDBRANCH  15  16
ENDBRANCH  12  13
TORSDOF 8
ENDMDL
MODEL 4
REMARK VINA RESULT:     -10.7      1.085      3.530
REMARK  Name = 
REMARK  8 active torsions:
REMARK  status: ('A' for Active; 'I' for Inactive)
REMARK    1  A    between atoms: C_2  and  N_4
REMARK    2  A    between atoms: N_7  and  C_8
REMARK    3  A    between atoms: C_12  and  C_13
REMARK    4  A    between atoms: N_15  and  C_16
REMARK    5  A    between atoms: C_16  and  C_17
REMARK    6  A    between atoms: C_16  and  C_27
REMARK    7  A    between atoms: C_17  and  C_18
REMARK    8  A    between atoms: C_30  and  C_32
REMARK                            x       y       z     vdW  Elec       q    Type
REMARK                         _______ _______ _______ _____ _____    ______ ____
ROOT
ATOM      8  C   UNL     1      -3.331   3.524  24.993  0.00  0.00    +0.126 C 
ATOM      9  C   UNL     1      -3.651   3.935  25.633  0.00  0.00    +0.045 C 
ATOM     10  C   UNL     1      -4.348   3.554  25.857  0.00  0.00    +0.096 C 
ATOM     11  N   UNL     1      -4.459   2.908  25.356  0.00  0.00    -0.268 N 
ATOM     12  C   UNL     1      -3.830   2.890  24.822  0.00  0.00    +0.174 C 
ATOM     30  C   UNL     1      -5.087   2.375  25.384  0.00  0.00    +0.249 C 
ATOM     31  O   UNL     1      -5.125   1.753  24.844  0.00  0.00    -0.270 OA
ENDROOT
BRANCH   8   7
ATOM      4  N   UNL     1      -1.378   4.393  24.553  0.00  0.00    -0.189 NA
ATOM      5  C   UNL     1      -2.074   4.202  24.952  0.00  0.00    +0.339 C 
ATOM      6  O   UNL     1      -2.210   4.500  25.710  0.00  0.00    -0.249 OA
ATOM      7  N   UNL     1      -2.635   3.715  24.594  0.00  0.00    -0.187 NA
BRANCH   4   2
ATOM      1  C   UNL     1      -0.156   4.549  25.279  0.00  0.00    +0.023 C 
ATOM      2  C   UNL     1      -0.817   4.881  24.912  0.00  0.00    +0.097 C 
ATOM      3  C   UNL     1      -0.918   5.699  24.905  0.00  0.00    +0.023 C 
ENDBRANCH   4   2
ENDBRANCH   8   7
BRANCH  30  32
ATOM     32  C   UNL     1      -5.679   2.463  25.952  0.00  0.00    +0.049 C 
ATOM     33  C   UNL     1      -6.215   1.851  26.088  0.00  0.00    -0.039 C 
ATOM     34  C   UNL     1      -6.807   1.940  26.656  0.00  0.00    +0.027 C 
ATOM     35  C   UNL     1      -6.160   1.151  25.655  0.00  0.00    +0.027 C 
ENDBRANCH  30  32
BRANCH  12  13
ATOM     13  C   UNL     1      -3.720   2.335  24.221  0.00  0.00    +0.262 C 
ATOM     14  O   UNL     1      -4.185   2.367  23.541  0.00  0.00    -0.271 OA
ATOM     15  N   UNL     1      -3.146   1.748  24.302  0.00  0.00    -0.196 NA
BRANCH  15  16
ATOM     16  C   UNL     1      -3.037   1.193  23.702  0.00  0.00    +0.179 C 
BRANCH  16  27
ATOM     27  C   UNL     1      -2.534   1.362  23.070  0.00  0.00    +0.281 C 
ATOM     28  N   UNL     1      -2.844   1.472  22.314  0.00  0.00    -0.086 NA
ATOM     29  O   UNL     1      -1.721   1.420  23.194  0.00  0.00    -0.270 OA
ENDBRANCH  16  27
BRANCH  16  17
ATOM     17  C   UNL     1      -3.430   0.468  23.734  0.00  0.00    +0.059 C 
BRANCH  17  18
ATOM     18  C   UNL     1      -3.118  -0.151  24.182  0.00  0.00    +0.001 A 
ATOM     19  C   UNL     1      -2.459  -0.108  24.675  0.00  0.00    +0.095 A 
ATOM     20  N   UNL     1      -2.344  -0.852  25.013  0.00  0.00    -0.244 NA
ATOM     21  C   UNL     1      -2.933  -1.355  24.728  0.00  0.00    +0.081 A 
ATOM     22  C   UNL     1      -3.411  -0.921  24.214  0.00  0.00    +0.015 A 
ATOM     23  C   UNL     1      -4.052  -1.284  23.842  0.00  0.00    +0.001 A 
ATOM     24  C   UNL     1      -4.215  -2.081  23.984  0.00  0.00    +0.000 A 
ATOM     25  C   UNL     1      -3.737  -2.515  24.498  0.00  0.00    +0.002 A 
ATOM     26  C   UNL     1      -3.096  -2.152  24.870  0.00  0.00    +0.019 A 
ENDBRANCH  17  18
ENDBRANCH  16  17
ENDBRANCH  15  16
ENDBRANCH  12  13
TORSDOF 8
ENDMDL
MODEL 5
REMARK VINA RESULT:     -10.4      1.883      5.444
REMARK  Name = 
REMARK  8 active torsions:
REMARK  status: ('A' for Active; 'I' for Inactive)
REMARK    1  A    between atoms: C_2  and  N_4
REMARK    2  A    between atoms: N_7  and  C_8
REMARK    3  A    between atoms: C_12  and  C_13
REMARK    4  A    between atoms: N_15  and  C_16
REMARK    5  A    between atoms: C_16  and  C_17
REMARK    6  A    between atoms: C_16  and  C_27
REMARK    7  A    between atoms: C_17  and  C_18
REMARK    8  A    between atoms: C_30  and  C_32
REMARK                            x       y       z     vdW  Elec       q    Type
REMARK                         _______ _______ _______ _____ _____    ______ ____
ROOT
ATOM      8  C   UNL     1      -0.214  -0.179  24.010  0.00  0.00    +0.126 C 
ATOM      9  C   UNL     1      -0.306  -0.969  23.790  0.00  0.00    +0.045 C 
ATOM     10  C   UNL     1      -0.964  -1.269  24.188  0.00  0.00    +0.096 C 
ATOM     11  N   UNL     1      -1.277  -0.664  24.654  0.00  0.00    -0.268 N 
ATOM     12  C   UNL     1      -0.813   0.008  24.544  0.00  0.00    +0.174 C 
ATOM     30  C   UNL     1      -1.938  -0.724  25.144  0.00  0.00    +0.249 C 
ATOM     31  O   UNL     1      -2.189  -0.070  25.580  0.00  0.00    -0.270 OA
ENDROOT
BRANCH   8   7
ATOM      4  N   UNL     1       1.597   0.552  23.034  0.00  0.00    -0.189 NA
ATOM      5  C   UNL     1       1.008   0.040  23.301  0.00  0.00    +0.339 C 
ATOM      6  O   UNL     1       1.050  -0.766  23.125  0.00  0.00    -0.249 OA
ATOM      7  N   UNL     1       0.376   0.333  23.743  0.00  0.00    -0.187 NA
BRANCH   4   2
ATOM      1  C   UNL     1       2.998   0.317  22.883  0.00  0.00    +0.023 C 
ATOM      2  C   UNL     1       2.228   0.258  22.591  0.00  0.00    +0.097 C 
ATOM      3  C   UNL     1       2.091  -0.094  21.858  0.00  0.00    +0.023 C 
ENDBRANCH   4   2
ENDBRANCH   8   7
BRANCH  30  32
ATOM     32  C   UNL     1      -2.349  -1.437  25.198  0.00  0.00    +0.049 C 
ATOM     33  C   UNL     1      -3.127  -1.444  25.474  0.00  0.00    -0.039 C 
ATOM     34  C   UNL     1      -3.538  -2.158  25.529  0.00  0.00    +0.027 C 
ATOM     35  C   UNL     1      -3.493  -0.739  25.696  0.00  0.00    +0.027 C 
ENDBRANCH  30  32
BRANCH  12  13
ATOM     13  C   UNL     1      -0.930   0.742  24.905  0.00  0.00    +0.262 C 
ATOM     14  O   UNL     1      -0.776   0.833  25.710  0.00  0.00    -0.271 OA
ATOM     15  N   UNL     1      -1.200   1.382  24.461  0.00  0.00    -0.196 NA
BRANCH  15  16
ATOM     16  C   UNL     1      -1.316   2.114  24.822  0.00  0.00    +0.179 C 
BRANCH  16  27
ATOM     27  C   UNL     1      -0.692   2.652  24.876  0.00  0.00    +0.281 C 
ATOM     28  N   UNL     1      -0.408   2.881  25.616  0.00  0.00    -0.086 NA
ATOM     29  O   UNL     1      -0.353   2.960  24.191  0.00  0.00    -0.270 OA
ENDBRANCH  16  27
BRANCH  16  17
ATOM     17  C   UNL     1      -2.056   2.310  25.129  0.00  0.00    +0.059 C 
BRANCH  17  18
ATOM     18  C   UNL     1      -2.648   2.596  24.629  0.00  0.00    +0.001 A 
ATOM     19  C   UNL     1      -2.613   2.627  23.806  0.00  0.00    +0.095 A 
ATOM     20  N   UNL     1      -3.321   2.952  23.533  0.00  0.00    -0.244 NA
ATOM     21  C   UNL     1      -3.793   3.121  24.189  0.00  0.00    +0.081 A 
ATOM     22  C   UNL     1      -3.376   2.902  24.866  0.00  0.00    +0.015 A 
ATOM     23  C   UNL     1      -3.715   3.008  25.611  0.00  0.00    +0.001 A 
ATOM     24  C   UNL     1      -4.470   3.334  25.678  0.00  0.00    +0.000 A 
ATOM     25  C   UNL     1      -4.887   3.554  25.001  0.00  0.00    +0.002 A 
ATOM     26  C   UNL     1      -4.548   3.448  24.256  0.00  0.00    +0.019 A 
ENDBRANCH  17  18
ENDBRANCH  16  17
ENDBRANCH  15  16
ENDBRANCH  12  13
TORSDOF 8
ENDMDL
MODEL 6
REMARK VINA RESULT:     -10.2      1.464      4.819
REMARK  Name = 
REMARK  8 active torsions:
REMARK  status: ('A' for Active; 'I' for Inactive)
REMARK    1  A    between atoms: C_2  and  N_4
REMARK    2  A    between atoms: N_7  and  C_8
REMARK    3  A    between atoms: C_12  and  C_13
REMARK    4  A    between atoms: N_15  and  C_16
REMARK    5  A    between atoms: C_16  and  C_17
REMARK    6  A    between atoms: C_16  and  C_27
REMARK    7  A    between atoms: C_17  and  C_18
REMARK    8  A    between atoms: C_30  and  C_32
REMARK                            x       y       z     vdW  Elec       q    Type
REMARK                         _______ _______ _______ _____ _____    ______ ____
ROOT
ATOM      8  C   UNL     1      -1.273   0.396  24.916  0.00  0.00    +0.126 C 
ATOM      9  C   UNL     1      -1.057  -0.245  25.388  0.00  0.00    +0.045 C 
ATOM     10  C   UNL     1      -1.601  -0.851  25.257  0.00  0.00    +0.096 C 
ATOM     11  N   UNL     1      -2.153  -0.585  24.705  0.00  0.00    -0.268 N 
ATOM     12  C   UNL     1      -1.949   0.186  24.494  0.00  0.00    +0.174 C 
ATOM     30  C   UNL     1      -2.795  -1.015  24.415  0.00  0.00    +0.249 C 
ATOM     31  O   UNL     1      -3.302  -0.674  23.860  0.00  0.00    -0.270 OA
ENDROOT
BRANCH   8   7
ATOM      4  N   UNL     1      -0.258   2.231  25.522  0.00  0.00    -0.189 NA
ATOM      5  C   UNL     1      -0.651   1.507  25.564  0.00  0.00    +0.339 C 
ATOM      6  O   UNL     1      -0.815   1.169  26.299  0.00  0.00    -0.249 OA
ATOM      7  N   UNL     1      -0.880   1.120  24.873  0.00  0.00    -0.187 NA
BRANCH   4   2
ATOM      1  C   UNL     1      -0.539   3.161  26.570  0.00  0.00    +0.023 C 
ATOM      2  C   UNL     1      -0.030   2.618  26.214  0.00  0.00    +0.097 C 
ATOM      3  C   UNL     1       0.707   2.461  26.550  0.00  0.00    +0.023 C 
ENDBRANCH   4   2
ENDBRANCH   8   7
BRANCH  30  32
ATOM     32  C   UNL     1      -2.929  -1.784  24.678  0.00  0.00    +0.049 C 
ATOM     33  C   UNL     1      -3.610  -2.187  24.444  0.00  0.00    -0.039 C 
ATOM     34  C   UNL     1      -3.745  -2.957  24.708  0.00  0.00    +0.027 C 
ATOM     35  C   UNL     1      -4.156  -1.820  23.946  0.00  0.00    +0.027 C 
ENDBRANCH  30  32
BRANCH  12  13
ATOM     13  C   UNL     1      -2.353   0.663  23.954  0.00  0.00    +0.262 C 
ATOM     14  O   UNL     1      -2.401   0.439  23.162  0.00  0.00    -0.271 OA
ATOM     15  N   UNL     1      -2.707   1.364  24.208  0.00  0.00    -0.196 NA
BRANCH  15  16
ATOM     16  C   UNL     1      -3.109   1.840  23.669  0.00  0.00    +0.179 C 
BRANCH  16  27
ATOM     27  C   UNL     1      -2.702   2.194  23.044  0.00  0.00    +0.281 C 
ATOM     28  N   UNL     1      -2.888   1.998  22.266  0.00  0.00    -0.086 NA
ATOM     29  O   UNL     1      -2.107   2.744  23.200  0.00  0.00    -0.270 OA
ENDBRANCH  16  27
BRANCH  16  17
ATOM     17  C   UNL     1      -3.921   1.964  23.754  0.00  0.00    +0.059 C 
BRANCH  17  18
ATOM     18  C   UNL     1      -4.205   2.426  24.376  0.00  0.00    +0.001 A 
ATOM     19  C   UNL     1      -3.855   3.114  24.667  0.00  0.00    +0.095 A 
ATOM     20  N   UNL     1      -4.323   3.395  25.286  0.00  0.00    -0.244 NA
ATOM     21  C   UNL     1      -4.962   2.881  25.377  0.00  0.00    +0.081 A 
ATOM     22  C   UNL     1      -4.889   2.282  24.813  0.00  0.00    +0.015 A 
ATOM     23  C   UNL     1      -5.455   1.683  24.773  0.00  0.00    +0.001 A 
ATOM     24  C   UNL     1      -6.094   1.683  25.295  0.00  0.00    +0.000 A 
ATOM     25  C   UNL     1      -6.167   2.282  25.858  0.00  0.00    +0.002 A 
ATOM     26  C   UNL     1      -5.601   2.880  25.899  0.00  0.00    +0.019 A 
ENDBRANCH  17  18
ENDBRANCH  16  17
ENDBRANCH  15  16
ENDBRANCH  12  13
TORSDOF 8
ENDMDL
MODEL 7
REMARK VINA RESULT:     -10.1      1.534      3.981
REMARK  Name = 
REMARK  8 active torsions:
REMARK  status: ('A' for Active; 'I' for Inactive)
REMARK    1  A    between atoms: C_2  and  N_4
REMARK    2  A    between atoms: N_7  and  C_8
REMARK    3  A    between atoms: C_12  and  C_13
REMARK    4  A    between atoms: N_15  and  C_16
REMARK    5  A    between atoms: C_16  and  C_17
REMARK    6  A    between atoms: C_16  and  C_27
REMARK    7  A    between atoms: C_17  and  C_18
REMARK    8  A    between atoms: C_30  and  C_32
REMARK                            x       y       z     vdW  Elec       q    Type
REMARK                         _______ _______ _______ _____ _____    ______ ____
ROOT
ATOM      8  C   UNL     1      -1.605  -0.180  24.829  0.00  0.00    +0.126 C 
ATOM      9  C   UNL     1      -1.155  -0.431  25.473  0.00  0.00    +0.045 C 
ATOM     10  C   UNL     1      -0.783   0.231  25.797  0.00  0.00    +0.096 C 
ATOM     11  N   UNL     1      -1.004   0.890  25.354  0.00  0.00    -0.268 N 
ATOM     12  C   UNL     1      -1.512   0.636  24.756  0.00  0.00    +0.174 C 
ATOM     30  C   UNL     1      -0.760   1.667  25.486  0.00  0.00    +0.249 C 
ATOM     31  O   UNL     1      -1.028   2.273  24.994  0.00  0.00    -0.270 OA
ENDROOT
BRANCH   8   7
ATOM      4  N   UNL     1      -2.808  -1.866  24.139  0.00  0.00    -0.189 NA
ATOM      5  C   UNL     1      -2.345  -1.385  24.624  0.00  0.00    +0.339 C 
ATOM      6  O   UNL     1      -2.161  -1.628  25.391  0.00  0.00    -0.249 OA
ATOM      7  N   UNL     1      -2.067  -0.661  24.344  0.00  0.00    -0.187 NA
BRANCH   4   2
ATOM      1  C   UNL     1      -2.597  -3.255  24.399  0.00  0.00    +0.023 C 
ATOM      2  C   UNL     1      -3.085  -2.590  24.421  0.00  0.00    +0.097 C 
ATOM      3  C   UNL     1      -3.850  -2.649  24.724  0.00  0.00    +0.023 C 
ENDBRANCH   4   2
ENDBRANCH   8   7
BRANCH  30  32
ATOM     32  C   UNL     1      -0.248   1.839  26.109  0.00  0.00    +0.049 C 
ATOM     33  C   UNL     1      -0.080   2.623  26.301  0.00  0.00    -0.039 C 
ATOM     34  C   UNL     1       0.432   2.795  26.925  0.00  0.00    +0.027 C 
ATOM     35  C   UNL     1      -0.424   3.236  25.870  0.00  0.00    +0.027 C 
ENDBRANCH  30  32
BRANCH  12  13
ATOM     13  C   UNL     1      -1.865   1.115  24.183  0.00  0.00    +0.262 C 
ATOM     14  O   UNL     1      -1.401   1.473  23.602  0.00  0.00    -0.271 OA
ATOM     15  N   UNL     1      -2.681   1.236  24.193  0.00  0.00    -0.196 NA
BRANCH  15  16
ATOM     16  C   UNL     1      -3.033   1.715  23.621  0.00  0.00    +0.179 C 
BRANCH  16  27
ATOM     27  C   UNL     1      -2.981   1.512  22.823  0.00  0.00    +0.281 C 
ATOM     28  N   UNL     1      -2.610   2.021  22.291  0.00  0.00    -0.086 NA
ATOM     29  O   UNL     1      -3.301   0.800  22.558  0.00  0.00    -0.270 OA
ENDBRANCH  16  27
BRANCH  16  17
ATOM     17  C   UNL     1      -3.438   2.397  23.847  0.00  0.00    +0.059 C 
BRANCH  17  18
ATOM     18  C   UNL     1      -4.144   2.337  24.271  0.00  0.00    +0.001 A 
ATOM     19  C   UNL     1      -4.652   1.688  24.276  0.00  0.00    +0.095 A 
ATOM     20  N   UNL     1      -5.288   1.865  24.772  0.00  0.00    -0.244 NA
ATOM     21  C   UNL     1      -5.172   2.625  25.072  0.00  0.00    +0.081 A 
ATOM     22  C   UNL     1      -4.465   2.916  24.763  0.00  0.00    +0.015 A 
ATOM     23  C   UNL     1      -4.205   3.672  24.969  0.00  0.00    +0.001 A 
ATOM     24  C   UNL     1      -4.653   4.135  25.484  0.00  0.00    +0.000 A 
ATOM     25  C   UNL     1      -5.360   3.844  25.794  0.00  0.00    +0.002 A 
ATOM     26  C   UNL     1      -5.619   3.089  25.588  0.00  0.00    +0.019 A 
ENDBRANCH  17  18
ENDBRANCH  16  17
ENDBRANCH  15  16
ENDBRANCH  12  13
TORSDOF 8
ENDMDL
MODEL 8
REMARK VINA RESULT:     -10.1      1.529      4.667
REMARK  Name = 
REMARK  8 active torsions:
REMARK  status: ('A' for Active; 'I' for Inactive)
REMARK    1  A    between atoms: C_2  and  N_4
REMARK    2  A    between atoms: N_7  and  C_8
REMARK    3  A    between atoms: C_12  and  C_13
REMARK    4  A    between atoms: N_15  and  C_16
REMARK    5  A    between atoms: C_16  and  C_17
REMARK    6  A    between atoms: C_16  and  C_27
REMARK    7  A    between atoms: C_17  and  C_18
REMARK    8  A    between atoms: C_30  and  C_32
REMARK                            x       y       z     vdW  Elec       q    Type
REMARK                         _______ _______ _______ _____ _____    ______ ____
ROOT
ATOM      8  C   UNL     1      -3.517  -0.154  24.689  0.00  0.00    +0.126 C 
ATOM      9  C   UNL     1      -4.011  -0.472  25.268  0.00  0.00    +0.045 C 
ATOM     10  C   UNL     1      -4.569   0.101  25.469  0.00  0.00    +0.096 C 
ATOM     11  N   UNL     1      -4.420   0.774  25.015  0.00  0.00    -0.268 N 
ATOM     12  C   UNL     1      -3.770   0.616  24.533  0.00  0.00    +0.174 C 
ATOM     30  C   UNL     1      -4.846   1.479  25.040  0.00  0.00    +0.249 C 
ATOM     31  O   UNL     1      -4.631   2.108  24.551  0.00  0.00    -0.270 OA
ENDROOT
BRANCH   8   7
ATOM      4  N   UNL     1      -1.972  -1.638  24.272  0.00  0.00    -0.189 NA
ATOM      5  C   UNL     1      -2.607  -1.254  24.632  0.00  0.00    +0.339 C 
ATOM      6  O   UNL     1      -2.968  -1.587  25.296  0.00  0.00    -0.249 OA
ATOM      7  N   UNL     1      -2.882  -0.538  24.329  0.00  0.00    -0.187 NA
BRANCH   4   2
ATOM      1  C   UNL     1      -1.067  -2.362  25.110  0.00  0.00    +0.023 C 
ATOM      2  C   UNL     1      -1.697  -2.355  24.576  0.00  0.00    +0.097 C 
ATOM      3  C   UNL     1      -2.052  -3.063  24.347  0.00  0.00    +0.023 C 
ENDBRANCH   4   2
ENDBRANCH   8   7
BRANCH  30  32
ATOM     32  C   UNL     1      -5.487   1.557  25.553  0.00  0.00    +0.049 C 
ATOM     33  C   UNL     1      -5.769   2.307  25.750  0.00  0.00    -0.039 C 
ATOM     34  C   UNL     1      -6.410   2.385  26.263  0.00  0.00    +0.027 C 
ATOM     35  C   UNL     1      -5.410   2.979  25.434  0.00  0.00    +0.027 C 
ENDBRANCH  30  32
BRANCH  12  13
ATOM     13  C   UNL     1      -3.431   1.137  23.990  0.00  0.00    +0.262 C 
ATOM     14  O   UNL     1      -3.855   1.367  23.321  0.00  0.00    -0.271 OA
ATOM     15  N   UNL     1      -2.669   1.428  24.116  0.00  0.00    -0.196 NA
BRANCH  15  16
ATOM     16  C   UNL     1      -2.332   1.948  23.573  0.00  0.00    +0.179 C 
BRANCH  16  27
ATOM     27  C   UNL     1      -2.030   1.663  22.860  0.00  0.00    +0.281 C 
ATOM     28  N   UNL     1      -2.376   1.889  22.146  0.00  0.00    -0.086 NA
ATOM     29  O   UNL     1      -1.382   1.153  22.861  0.00  0.00    -0.270 OA
ENDBRANCH  16  27
BRANCH  16  17
ATOM     17  C   UNL     1      -2.295   2.755  23.743  0.00  0.00    +0.059 C 
BRANCH  17  18
ATOM     18  C   UNL     1      -1.689   3.049  24.220  0.00  0.00    +0.001 A 
ATOM     19  C   UNL     1      -1.010   2.640  24.448  0.00  0.00    +0.095 A 
ATOM     20  N   UNL     1      -0.557   3.142  24.921  0.00  0.00    -0.244 NA
ATOM     21  C   UNL     1      -0.957   3.861  24.986  0.00  0.00    +0.081 A 
ATOM     22  C   UNL     1      -1.657   3.803  24.553  0.00  0.00    +0.015 A 
ATOM     23  C   UNL     1      -2.174   4.445  24.517  0.00  0.00    +0.001 A 
ATOM     24  C   UNL     1      -1.991   5.145  24.914  0.00  0.00    +0.000 A 
ATOM     25  C   UNL     1      -1.291   5.203  25.348  0.00  0.00    +0.002 A 
ATOM     26  C   UNL     1      -0.774   4.561  25.384  0.00  0.00    +0.019 A 
ENDBRANCH  17  18
ENDBRANCH  16  17
ENDBRANCH  15  16
ENDBRANCH  12  13
TORSDOF 8
ENDMDL
MODEL 9
REMARK VINA RESULT:      -9.5      1.848      4.215
REMARK  Name = 
REMARK  8 active torsions:
REMARK  status: ('A' for Active; 'I' for Inactive)
REMARK    1  A    between atoms: C_2  and  N_4
REMARK    2  A    between atoms: N_7  and  C_8
REMARK    3  A    between atoms: C_12  and  C_13
REMARK    4  A    between atoms: N_15  and  C_16
REMARK    5  A    between atoms: C_16  and  C_17
REMARK    6  A    between atoms: C_16  and  C_27
REMARK    7  A    between atoms: C_17  and  C_18
REMARK    8  A    between atoms: C_30  and  C_32
REMARK                            x       y       z     vdW  Elec       q    Type
REMARK                         _______ _______ _______ _____ _____    ______ ____
ROOT
ATOM      8  C   UNL     1      -1.059  -0.177  24.481  0.00  0.00    +0.126 C 
ATOM      9  C   UNL     1      -0.670  -0.904  24.448  0.00  0.00    +0.045 C 
ATOM     10  C   UNL     1       0.036  -0.796  24.036  0.00  0.00    +0.096 C 
ATOM     11  N   UNL     1       0.084  -0.002  23.814  0.00  0.00    -0.268 N 
ATOM     12  C   UNL     1      -0.593   0.379  24.089  0.00  0.00    +0.174 C 
ATOM     30  C   UNL     1       0.701   0.347  23.392  0.00  0.00    +0.249 C 
ATOM     31  O   UNL     1       0.672   1.151  23.209  0.00  0.00    -0.270 OA
ENDROOT
BRANCH   8   7
ATOM      4  N   UNL     1      -3.100  -0.469  25.199  0.00  0.00    -0.189 NA
ATOM      5  C   UNL     1      -2.373  -0.613  24.837  0.00  0.00    +0.339 C 
ATOM      6  O   UNL     1      -2.231  -1.339  24.471  0.00  0.00    -0.249 OA
ATOM      7  N   UNL     1      -1.787  -0.032  24.842  0.00  0.00    -0.187 NA
BRANCH   4   2
ATOM      1  C   UNL     1      -4.259  -1.052  24.599  0.00  0.00    +0.023 C 
ATOM      2  C   UNL     1      -3.685  -1.050  25.193  0.00  0.00    +0.097 C 
ATOM      3  C   UNL     1      -3.698  -1.628  25.781  0.00  0.00    +0.023 C 
ENDBRANCH   4   2
ENDBRANCH   8   7
BRANCH  30  32
ATOM     32  C   UNL     1       1.345  -0.108  23.152  0.00  0.00    +0.049 C 
ATOM     33  C   UNL     1       2.063   0.258  22.972  0.00  0.00    -0.039 C 
ATOM     34  C   UNL     1       2.709  -0.197  22.732  0.00  0.00    +0.027 C 
ATOM     35  C   UNL     1       2.136   1.077  23.032  0.00  0.00    +0.027 C 
ENDBRANCH  30  32
BRANCH  12  13
ATOM     13  C   UNL     1      -0.773   1.179  23.990  0.00  0.00    +0.262 C 
ATOM     14  O   UNL     1      -0.909   1.480  23.234  0.00  0.00    -0.271 OA
ATOM     15  N   UNL     1      -0.816   1.677  24.647  0.00  0.00    -0.196 NA
BRANCH  15  16
ATOM     16  C   UNL     1      -0.996   2.475  24.547  0.00  0.00    +0.179 C 
BRANCH  16  27
ATOM     27  C   UNL     1      -0.415   3.048  24.671  0.00  0.00    +0.281 C 
ATOM     28  N   UNL     1       0.030   3.042  25.365  0.00  0.00    -0.086 NA
ATOM     29  O   UNL     1      -0.278   3.627  24.099  0.00  0.00    -0.270 OA
ENDBRANCH  16  27
BRANCH  16  17
ATOM     17  C   UNL     1      -1.757   2.702  24.324  0.00  0.00    +0.059 C 
BRANCH  17  18
ATOM     18  C   UNL     1      -2.290   2.975  24.892  0.00  0.00    +0.001 A 
ATOM     19  C   UNL     1      -2.099   3.226  25.654  0.00  0.00    +0.095 A 
ATOM     20  N   UNL     1      -2.798   3.450  26.032  0.00  0.00    -0.244 NA
ATOM     21  C   UNL     1      -3.421   3.338  25.501  0.00  0.00    +0.081 A 
ATOM     22  C   UNL     1      -3.106   3.044  24.797  0.00  0.00    +0.015 A 
ATOM     23  C   UNL     1      -3.604   2.878  24.161  0.00  0.00    +0.001 A 
ATOM     24  C   UNL     1      -4.417   3.005  24.228  0.00  0.00    +0.000 A 
ATOM     25  C   UNL     1      -4.732   3.299  24.932  0.00  0.00    +0.002 A 
ATOM     26  C   UNL     1      -4.234   3.466  25.569  0.00  0.00    +0.019 A 
ENDBRANCH  17  18
ENDBRANCH  16  17
ENDBRANCH  15  16
ENDBRANCH  12  13
TORSDOF 8
ENDMDL
