MODEL 1
REMARK VINA RESULT:      -9.4      0.000      0.000
REMARK  Name = 
REMARK  11 active torsions:
REMARK  status: ('A' for Active; 'I' for Inactive)
REMARK    1  A    between atoms: O_2  and  C_3
REMARK    2  A    between atoms: C_3  and  C_4
REMARK    3  A    between atoms: C_4  and  N_5
REMARK    4  A    between atoms: N_5  and  C_6
REMARK    5  A    between atoms: C_7  and  C_12
REMARK    6  A    between atoms: C_15  and  C_17
REMARK    7  A    between atoms: N_21  and  C_22
REMARK    8  A    between atoms: C_22  and  C_23
REMARK    9  A    between atoms: C_25  and  O_26
REMARK   10  A    between atoms: C_28  and  O_29
REMARK   11  A    between atoms: C_31  and  O_32
REMARK                            x       y       z     vdW  Elec       q    Type
REMARK                         _______ _______ _______ _____ _____    ______ ____
ROOT
ATOM     17  C   UNL     1      -4.357   1.767  24.853  0.00  0.00    +0.138 C 
ATOM     18  C   UNL     1      -5.020   1.918  25.320  0.00  0.00    +0.027 C 
ATOM     19  C   UNL     1      -5.396   1.199  25.470  0.00  0.00    +0.019 C 
ATOM     20  C   UNL     1      -4.964   0.603  25.096  0.00  0.00    +0.073 C 
ATOM     21  N   UNL     1      -4.322   0.954  24.715  0.00  0.00    -0.263 NA
ENDROOT
BRANCH  17  15
ATOM     12  C   UNL     1      -2.826   3.217  24.518  0.00  0.00    +0.206 A 
ATOM     13  N   UNL     1      -3.173   3.175  23.770  0.00  0.00    -0.056 NA
ATOM     14  O   UNL     1      -3.788   2.626  23.804  0.00  0.00    -0.336 OA
ATOM     15  C   UNL     1      -3.823   2.330  24.573  0.00  0.00    +0.251 A 
ATOM     16  N   UNL     1      -3.228   2.695  25.014  0.00  0.00    -0.190 NA
BRANCH  12   7
ATOM      6  C   UNL     1      -1.417   3.440  24.600  0.00  0.00    +0.151 A 
ATOM      7  C   UNL     1      -2.190   3.697  24.732  0.00  0.00    +0.072 A 
ATOM      8  C   UNL     1      -2.327   4.433  25.076  0.00  0.00    +0.008 A 
ATOM      9  C   UNL     1      -1.691   4.913  25.290  0.00  0.00    +0.021 A 
ATOM     10  C   UNL     1      -0.918   4.657  25.159  0.00  0.00    +0.100 A 
ATOM     11  N   UNL     1      -0.781   3.920  24.813  0.00  0.00    -0.228 NA
BRANCH   6   5
ATOM      5  N   UNL     1      -1.280   2.703  24.255  0.00  0.00    -0.218 NA
BRANCH   5   4
ATOM      4  C   UNL     1      -0.514   2.399  24.222  0.00  0.00    +0.146 C 
BRANCH   4   3
ATOM      3  C   UNL     1      -0.350   1.746  23.746  0.00  0.00    +0.166 C 
BRANCH   3   2
ATOM      1  C   UNL     1       0.373   0.534  23.519  0.00  0.00    +0.174 C 
ATOM      2  O   UNL     1       0.155   1.152  24.019  0.00  0.00    -0.349 OA
ENDBRANCH   3   2
ENDBRANCH   4   3
ENDBRANCH   5   4
ENDBRANCH   6   5
ENDBRANCH  12   7
ENDBRANCH  17  15
BRANCH  21  22
ATOM     22  C   UNL     1      -3.747   0.562  24.273  0.00  0.00    +0.100 C 
BRANCH  22  23
ATOM     23  C   UNL     1      -3.527  -0.207  24.473  0.00  0.00    +0.000 A 
ATOM     24  C   UNL     1      -2.965  -0.335  25.064  0.00  0.00    +0.037 A 
ATOM     25  C   UNL     1      -2.745  -1.104  25.264  0.00  0.00    +0.175 A 
ATOM     28  C   UNL     1      -3.086  -1.746  24.875  0.00  0.00    +0.206 A 
ATOM     31  C   UNL     1      -3.648  -1.619  24.284  0.00  0.00    +0.175 A 
ATOM     34  C   UNL     1      -3.868  -0.849  24.084  0.00  0.00    +0.037 A 
BRANCH  25  26
ATOM     26  O   UNL     1      -2.182  -1.232  25.855  0.00  0.00    -0.468 OA
ATOM     27  C   UNL     1      -1.751  -0.598  26.158  0.00  0.00    +0.253 C 
ENDBRANCH  25  26
BRANCH  28  29
ATOM     29  O   UNL     1      -2.866  -2.516  25.075  0.00  0.00    -0.465 OA
ATOM     30  C   UNL     1      -2.256  -2.890  24.664  0.00  0.00    +0.253 C 
ENDBRANCH  28  29
BRANCH  31  32
ATOM     32  O   UNL     1      -3.990  -2.261  23.893  0.00  0.00    -0.468 OA
ATOM     33  C   UNL     1      -4.714  -2.172  23.510  0.00  0.00    +0.253 C 
ENDBRANCH  31  32
ENDBRANCH  22  23
ENDBRANCH  21  22
TORSDOF 11
ENDMDL
MODEL 2
REMARK VINA RESULT:      -9.0      1.361      3.035
REMARK  Name = 
REMARK  11 active torsions:
REMARK  status: ('A' for Active; 'I' for Inactive)
REMARK    1  A    between atoms: O_2  and  C_3
REMARK    2  A    between atoms: C_3  and  C_4
REMARK    3  A    between atoms: C_4  and  N_5
REMARK    4  A    between atoms: N_5  and  C_6
REMARK    5  A    between atoms: C_7  and  C_12
REMARK    6  A    between atoms: C_15  and  C_17
REMARK    7  A    between atoms: N_21  and  C_22
REMARK    8  A    between atoms: C_22  and  C_23
REMARK    9  A    between atoms: C_25  and  O_26
REMARK   10  A    between atoms: C_28  and  O_29
REMARK   11  A    between atoms: C_31  and  O_32
REMARK                            x       y       z     vdW  Elec       q    Type
REMARK                         _______ _______ _______ _____ _____    ______ ____
ROOT
ATOM     17  C   UNL     1      -0.606   1.001  24.855  0.00  0.00    +0.138 C 
ATOM     18  C   UNL     1       0.020   0.790  24.361  0.00  0.00    +0.027 C 
ATOM     19  C   UNL     1      -0.099   0.009  24.119  0.00  0.00    +0.019 C 
ATOM     20  C   UNL     1      -0.798  -0.261  24.463  0.00  0.00    +0.073 C 
ATOM     21  N   UNL     1      -1.111   0.352  24.918  0.00  0.00    -0.263 NA
ENDROOT
BRANCH  17  15
ATOM     12  C   UNL     1      -0.948   3.032  25.417  0.00  0.00    +0.206 A 
ATOM     13  N   UNL     1      -0.784   2.689  26.150  0.00  0.00    -0.056 NA
ATOM     14  O   UNL     1      -0.635   1.887  26.028  0.00  0.00    -0.336 OA
ATOM     15  C   UNL     1      -0.708   1.733  25.221  0.00  0.00    +0.251 A 
ATOM     16  N   UNL     1      -0.902   2.442  24.843  0.00  0.00    -0.190 NA
BRANCH  12   7
ATOM      6  C   UNL     1      -1.900   4.097  25.388  0.00  0.00    +0.151 A 
ATOM      7  C   UNL     1      -1.128   3.826  25.283  0.00  0.00    +0.072 A 
ATOM      8  C   UNL     1      -0.536   4.347  25.043  0.00  0.00    +0.008 A 
ATOM      9  C   UNL     1      -0.715   5.141  24.909  0.00  0.00    +0.021 A 
ATOM     10  C   UNL     1      -1.487   5.414  25.014  0.00  0.00    +0.100 A 
ATOM     11  N   UNL     1      -2.079   4.891  25.253  0.00  0.00    -0.228 NA
BRANCH   6   5
ATOM      5  N   UNL     1      -2.492   3.576  25.627  0.00  0.00    -0.218 NA
BRANCH   5   4
ATOM      4  C   UNL     1      -3.276   3.829  25.661  0.00  0.00    +0.146 C 
BRANCH   4   3
ATOM      3  C   UNL     1      -3.872   3.300  25.874  0.00  0.00    +0.166 C 
BRANCH   3   2
ATOM      1  C   UNL     1      -5.262   2.971  25.907  0.00  0.00    +0.174 C 
ATOM      2  O   UNL     1      -4.638   3.402  25.584  0.00  0.00    -0.349 OA
ENDBRANCH   3   2
ENDBRANCH   4   3
ENDBRANCH   5   4
ENDBRANCH   6   5
ENDBRANCH  12   7
ENDBRANCH  17  15
BRANCH  21  22
ATOM     22  C   UNL     1      -1.808   0.321  25.359  0.00  0.00    +0.100 C 
BRANCH  22  23
ATOM     23  C   UNL     1      -2.447  -0.125  25.090  0.00  0.00    +0.000 A 
ATOM     24  C   UNL     1      -2.611  -0.858  25.432  0.00  0.00    +0.037 A 
ATOM     25  C   UNL     1      -3.250  -1.305  25.163  0.00  0.00    +0.175 A 
ATOM     28  C   UNL     1      -3.725  -1.020  24.553  0.00  0.00    +0.206 A 
ATOM     31  C   UNL     1      -3.561  -0.288  24.210  0.00  0.00    +0.175 A 
ATOM     34  C   UNL     1      -2.922   0.160  24.479  0.00  0.00    +0.037 A 
BRANCH  25  26
ATOM     26  O   UNL     1      -3.414  -2.038  25.506  0.00  0.00    -0.468 OA
ATOM     27  C   UNL     1      -3.186  -2.190  26.285  0.00  0.00    +0.253 C 
ENDBRANCH  25  26
BRANCH  28  29
ATOM     29  O   UNL     1      -4.364  -1.467  24.283  0.00  0.00    -0.465 OA
ATOM     30  C   UNL     1      -4.242  -2.071  23.735  0.00  0.00    +0.253 C 
ENDBRANCH  28  29
BRANCH  31  32
ATOM     32  O   UNL     1      -4.037  -0.002  23.599  0.00  0.00    -0.468 OA
ATOM     33  C   UNL     1      -3.958   0.779  23.346  0.00  0.00    +0.253 C 
ENDBRANCH  31  32
ENDBRANCH  22  23
ENDBRANCH  21  22
TORSDOF 11
ENDMDL
MODEL 3
REMARK VINA RESULT:      -8.9      1.662      4.871
REMARK  Name = 
REMARK  11 active torsions:
REMARK  status: ('A' for Active; 'I' for Inactive)
REMARK    1  A    between atoms: O_2  and  C_3
REMARK    2  A    between atoms: C_3  and  C_4
REMARK    3  A    between atoms: C_4  and  N_5
REMARK    4  A    between atoms: N_5  and  C_6
REMARK    5  A    between atoms: C_7  and  C_12
REMARK    6  A    between atoms: C_15  and  C_17
REMARK    7  A    between atoms: N_21  and  C_22
REMARK    8  A    between atoms: C_22  and  C_23
REMARK    9  A    between atoms: C_25  and  O_26
REMARK   10  A    between atoms: C_28  and  O_29
REMARK   11  A    between atoms: C_31  and  O_32
REMARK                            x       y       z     vdW  Elec       q    Type
REMARK                         _______ _______ _______ _____ _____    ______ ____
ROOT
ATOM     17  C   UNL     1      -4.178   1.386  24.475  0.00  0.00    +0.138 C 
ATOM     18  C   UNL     1      -4.833   1.674  24.063  0.00  0.00    +0.027 C 
ATOM     19  C   UNL     1      -4.705   2.474  23.907  0.00  0.00    +0.019 C 
ATOM     20  C   UNL     1      -3.971   2.681  24.222  0.00  0.00    +0.073 C 
ATOM     21  N   UNL     1      -3.646   2.008  24.573  0.00  0.00    -0.263 NA
ENDROOT
BRANCH  17  15
ATOM     12  C   UNL     1      -3.839  -0.701  24.765  0.00  0.00    +0.206 A 
ATOM     13  N   UNL     1      -3.993  -0.456  25.538  0.00  0.00    -0.056 NA
ATOM     14  O   UNL     1      -4.139   0.356  25.523  0.00  0.00    -0.336 OA
ATOM     15  C   UNL     1      -4.075   0.613  24.742  0.00  0.00    +0.251 A 
ATOM     16  N   UNL     1      -3.890  -0.041  24.273  0.00  0.00    -0.190 NA
BRANCH  12   7
ATOM      6  C   UNL     1      -2.884  -1.738  24.532  0.00  0.00    +0.151 A 
ATOM      7  C   UNL     1      -3.665  -1.472  24.526  0.00  0.00    +0.072 A 
ATOM      8  C   UNL     1      -4.271  -1.975  24.283  0.00  0.00    +0.008 A 
ATOM      9  C   UNL     1      -4.097  -2.745  24.044  0.00  0.00    +0.021 A 
ATOM     10  C   UNL     1      -3.317  -3.012  24.049  0.00  0.00    +0.100 A 
ATOM     11  N   UNL     1      -2.710  -2.508  24.293  0.00  0.00    -0.228 NA
BRANCH   6   5
ATOM      5  N   UNL     1      -2.278  -1.235  24.775  0.00  0.00    -0.218 NA
BRANCH   5   4
ATOM      4  C   UNL     1      -1.490  -1.464  24.687  0.00  0.00    +0.146 C 
BRANCH   4   3
ATOM      3  C   UNL     1      -0.885  -0.919  24.812  0.00  0.00    +0.166 C 
BRANCH   3   2
ATOM      1  C   UNL     1       0.228  -0.526  24.006  0.00  0.00    +0.174 C 
ATOM      2  O   UNL     1      -0.128  -1.066  24.517  0.00  0.00    -0.349 OA
ENDBRANCH   3   2
ENDBRANCH   4   3
ENDBRANCH   5   4
ENDBRANCH   6   5
ENDBRANCH  12   7
ENDBRANCH  17  15
BRANCH  21  22
ATOM     22  C   UNL     1      -2.916   1.966  24.955  0.00  0.00    +0.100 C 
BRANCH  22  23
ATOM     23  C   UNL     1      -2.463   2.648  25.056  0.00  0.00    +0.000 A 
ATOM     24  C   UNL     1      -2.706   3.230  25.588  0.00  0.00    +0.037 A 
ATOM     25  C   UNL     1      -2.253   3.912  25.689  0.00  0.00    +0.175 A 
ATOM     28  C   UNL     1      -1.557   4.012  25.259  0.00  0.00    +0.206 A 
ATOM     31  C   UNL     1      -1.314   3.431  24.726  0.00  0.00    +0.175 A 
ATOM     34  C   UNL     1      -1.767   2.749  24.625  0.00  0.00    +0.037 A 
BRANCH  25  26
ATOM     26  O   UNL     1      -2.497   4.494  26.222  0.00  0.00    -0.468 OA
ATOM     27  C   UNL     1      -3.075   4.322  26.785  0.00  0.00    +0.253 C 
ENDBRANCH  25  26
BRANCH  28  29
ATOM     29  O   UNL     1      -1.104   4.695  25.360  0.00  0.00    -0.465 OA
ATOM     30  C   UNL     1      -1.270   5.369  24.914  0.00  0.00    +0.253 C 
ENDBRANCH  28  29
BRANCH  31  32
ATOM     32  O   UNL     1      -0.617   3.531  24.295  0.00  0.00    -0.468 OA
ATOM     33  C   UNL     1      -0.192   2.872  24.039  0.00  0.00    +0.253 C 
ENDBRANCH  31  32
ENDBRANCH  22  23
ENDBRANCH  21  22
TORSDOF 11
ENDMDL
MODEL 4
REMARK VINA RESULT:      -8.8      1.225      3.634
REMARK  Name = 
REMARK  11 active torsions:
REMARK  status: ('A' for Active; 'I' for Inactive)
REMARK    1  A    between atoms: O_2  and  C_3
REMARK    2  A    between atoms: C_3  and  C_4
REMARK    3  A    between atoms: C_4  and  N_5
REMARK    4  A    between atoms: N_5  and  C_6
REMARK    5  A    between atoms: C_7  and  C_12
REMARK    6  A    between atoms: C_15  and  C_17
REMARK    7  A    between atoms: N_21  and  C_22
REMARK    8  A    between atoms: C_22  and  C_23
REMARK    9  A    between atoms: C_25  and  O_26
REMARK   10  A    between atoms: C_28  and  O_29
REMARK   11  A    between atoms: C_31  and  O_32
REMARK                            x       y       z     vdW  Elec       q    Type
REMARK                         _______ _______ _______ _____ _____    ______ ____
ROOT
ATOM     17  C   UNL     1      -1.530   2.821  24.864  0.00  0.00    +0.138 C 
ATOM     18  C   UNL     1      -1.090   3.348  25.323  0.00  0.00    +0.027 C 
ATOM     19  C   UNL     1      -0.319   3.059  25.374  0.00  0.00    +0.019 C 
ATOM     20  C   UNL     1      -0.282   2.354  24.948  0.00  0.00    +0.073 C 
ATOM     21  N   UNL     1      -1.031   2.207  24.633  0.00  0.00    -0.263 NA
ENDROOT
BRANCH  17  15
ATOM     12  C   UNL     1      -3.660   2.904  24.761  0.00  0.00    +0.206 A 
ATOM     13  N   UNL     1      -3.455   3.119  23.991  0.00  0.00    -0.056 NA
ATOM     14  O   UNL     1      -2.632   3.114  23.936  0.00  0.00    -0.336 OA
ATOM     15  C   UNL     1      -2.328   2.896  24.672  0.00  0.00    +0.251 A 
ATOM     16  N   UNL     1      -2.964   2.766  25.181  0.00  0.00    -0.190 NA
BRANCH  12   7
ATOM      6  C   UNL     1      -4.828   2.118  25.007  0.00  0.00    +0.151 A 
ATOM      7  C   UNL     1      -4.427   2.838  25.057  0.00  0.00    +0.072 A 
ATOM      8  C   UNL     1      -4.793   3.490  25.404  0.00  0.00    +0.008 A 
ATOM      9  C   UNL     1      -5.560   3.425  25.700  0.00  0.00    +0.021 A 
ATOM     10  C   UNL     1      -5.962   2.706  25.651  0.00  0.00    +0.100 A 
ATOM     11  N   UNL     1      -5.595   2.052  25.304  0.00  0.00    -0.228 NA
BRANCH   6   5
ATOM      5  N   UNL     1      -4.463   1.465  24.661  0.00  0.00    -0.218 NA
BRANCH   5   4
ATOM      4  C   UNL     1      -4.797   0.715  24.739  0.00  0.00    +0.146 C 
BRANCH   4   3
ATOM      3  C   UNL     1      -4.546   0.098  24.252  0.00  0.00    +0.166 C 
BRANCH   3   2
ATOM      1  C   UNL     1      -4.303  -1.296  24.055  0.00  0.00    +0.174 C 
ATOM      2  O   UNL     1      -4.467  -0.664  24.558  0.00  0.00    -0.349 OA
ENDBRANCH   3   2
ENDBRANCH   4   3
ENDBRANCH   5   4
ENDBRANCH   6   5
ENDBRANCH  12   7
ENDBRANCH  17  15
BRANCH  21  22
ATOM     22  C   UNL     1      -1.242   1.559  24.168  0.00  0.00    +0.100 C 
BRANCH  22  23
ATOM     23  C   UNL     1      -0.904   0.821  24.311  0.00  0.00    +0.000 A 
ATOM     24  C   UNL     1      -0.330   0.523  23.798  0.00  0.00    +0.037 A 
ATOM     25  C   UNL     1       0.008  -0.216  23.941  0.00  0.00    +0.175 A 
ATOM     28  C   UNL     1      -0.227  -0.657  24.597  0.00  0.00    +0.206 A 
ATOM     31  C   UNL     1      -0.800  -0.360  25.111  0.00  0.00    +0.175 A 
ATOM     34  C   UNL     1      -1.138   0.379  24.967  0.00  0.00    +0.037 A 
BRANCH  25  26
ATOM     26  O   UNL     1       0.581  -0.514  23.427  0.00  0.00    -0.468 OA
ATOM     27  C   UNL     1       0.940  -0.015  22.875  0.00  0.00    +0.253 C 
ENDBRANCH  25  26
BRANCH  28  29
ATOM     29  O   UNL     1       0.112  -1.396  24.740  0.00  0.00    -0.465 OA
ATOM     30  C   UNL     1      -0.336  -2.081  24.634  0.00  0.00    +0.253 C 
ENDBRANCH  28  29
BRANCH  31  32
ATOM     32  O   UNL     1      -1.035  -0.801  25.768  0.00  0.00    -0.468 OA
ATOM     33  C   UNL     1      -1.579  -0.487  26.302  0.00  0.00    +0.253 C 
ENDBRANCH  31  32
ENDBRANCH  22  23
ENDBRANCH  21  22
TORSDOF 11
ENDMDL
MODEL 5
REMARK VINA RESULT:      -8.3      2.265      4.526
REMARK  Name = 
REMARK  11 active torsions:
REMARK  status: ('A' for Active; 'I' for Inactive)
REMARK    1  A    between atoms: O_2  and  C_3
REMARK    2  A    between atoms: C_3  and  C_4
REMARK    3  A    between atoms: C_4  and  N_5
REMARK    4  A    between atoms: N_5  and  C_6
REMARK    5  A    between atoms: C_7  and  C_12
REMARK    6  A    between atoms: C_15  and  C_17
REMARK    7  A    between atoms: N_21  and  C_22
REMARK    8  A    between atoms: C_22  and  C_23
REMARK    9  A    between atoms: C_25  and  O_26
REMARK   10  A    between atoms: C_28  and  O_29
REMARK   11  A    between atoms: C_31  and  O_32
REMARK                            x       y       z     vdW  Elec       q    Type
REMARK                         _______ _______ _______ _____ _____    ______ ____
ROOT
ATOM     17  C   UNL     1      -2.387   1.831  23.501  0.00  0.00    +0.138 C 
ATOM     18  C   UNL     1      -2.319   2.124  22.732  0.00  0.00    +0.027 C 
ATOM     19  C   UNL     1      -3.033   2.487  22.534  0.00  0.00    +0.019 C 
ATOM     20  C   UNL     1      -3.542   2.418  23.179  0.00  0.00    +0.073 C 
ATOM     21  N   UNL     1      -3.143   2.013  23.777  0.00  0.00    -0.263 NA
ENDROOT
BRANCH  17  15
ATOM     12  C   UNL     1      -1.056   0.445  24.431  0.00  0.00    +0.206 A 
ATOM     13  N   UNL     1      -0.747   1.164  24.694  0.00  0.00    -0.056 NA
ATOM     14  O   UNL     1      -1.208   1.771  24.378  0.00  0.00    -0.336 OA
ATOM     15  C   UNL     1      -1.802   1.427  23.919  0.00  0.00    +0.251 A 
ATOM     16  N   UNL     1      -1.708   0.608  23.953  0.00  0.00    -0.190 NA
BRANCH  12   7
ATOM      6  C   UNL     1      -0.103  -0.598  24.218  0.00  0.00    +0.151 A 
ATOM      7  C   UNL     1      -0.764  -0.304  24.615  0.00  0.00    +0.072 A 
ATOM      8  C   UNL     1      -1.133  -0.759  25.196  0.00  0.00    +0.008 A 
ATOM      9  C   UNL     1      -0.841  -1.508  25.380  0.00  0.00    +0.021 A 
ATOM     10  C   UNL     1      -0.180  -1.803  24.983  0.00  0.00    +0.100 A 
ATOM     11  N   UNL     1       0.189  -1.347  24.402  0.00  0.00    -0.228 NA
BRANCH   6   5
ATOM      5  N   UNL     1       0.266  -0.143  23.638  0.00  0.00    -0.218 NA
BRANCH   5   4
ATOM      4  C   UNL     1       0.948  -0.421  23.266  0.00  0.00    +0.146 C 
BRANCH   4   3
ATOM      3  C   UNL     1       1.404   0.088  22.806  0.00  0.00    +0.166 C 
BRANCH   3   2
ATOM      1  C   UNL     1       2.760   0.199  22.368  0.00  0.00    +0.174 C 
ATOM      2  O   UNL     1       2.042  -0.205  22.372  0.00  0.00    -0.349 OA
ENDBRANCH   3   2
ENDBRANCH   4   3
ENDBRANCH   5   4
ENDBRANCH   6   5
ENDBRANCH  12   7
ENDBRANCH  17  15
BRANCH  21  22
ATOM     22  C   UNL     1      -3.447   1.823  24.520  0.00  0.00    +0.100 C 
BRANCH  22  23
ATOM     23  C   UNL     1      -4.004   2.315  24.876  0.00  0.00    +0.000 A 
ATOM     24  C   UNL     1      -4.806   2.119  24.848  0.00  0.00    +0.037 A 
ATOM     25  C   UNL     1      -5.363   2.612  25.204  0.00  0.00    +0.175 A 
ATOM     28  C   UNL     1      -5.121   3.300  25.588  0.00  0.00    +0.206 A 
ATOM     31  C   UNL     1      -4.320   3.496  25.617  0.00  0.00    +0.175 A 
ATOM     34  C   UNL     1      -3.762   3.003  25.260  0.00  0.00    +0.037 A 
BRANCH  25  26
ATOM     26  O   UNL     1      -6.164   2.416  25.175  0.00  0.00    -0.468 OA
ATOM     27  C   UNL     1      -6.394   1.632  25.054  0.00  0.00    +0.253 C 
ENDBRANCH  25  26
BRANCH  28  29
ATOM     29  O   UNL     1      -5.679   3.792  25.944  0.00  0.00    -0.465 OA
ATOM     30  C   UNL     1      -5.987   4.435  25.528  0.00  0.00    +0.253 C 
ENDBRANCH  28  29
BRANCH  31  32
ATOM     32  O   UNL     1      -4.077   4.185  26.002  0.00  0.00    -0.468 OA
ATOM     33  C   UNL     1      -3.301   4.252  26.274  0.00  0.00    +0.253 C 
ENDBRANCH  31  32
ENDBRANCH  22  23
ENDBRANCH  21  22
TORSDOF 11
ENDMDL
MODEL 6
REMARK VINA RESULT:      -8.3      1.524      3.997
REMARK  Name = 
REMARK  11 active torsions:
REMARK  status: ('A' for Active; 'I' for Inactive)
REMARK    1  A    between atoms: O_2  and  C_3
REMARK    2  A    between atoms: C_3  and  C_4
REMARK    3  A    between atoms: C_4  and  N_5
REMARK    4  A    between atoms: N_5  and  C_6
REMARK    5  A    between atoms: C_7  and  C_12
REMARK    6  A    between atoms: C_15  and  C_17
REMARK    7  A    between atoms: N_21  and  C_22
REMARK    8  A    between atoms: C_22  and  C_23
REMARK    9  A    between atoms: C_25  and  O_26
REMARK   10  A    between atoms: C_28  and  O_29
REMARK   11  A    between atoms: C_31  and  O_32
REMARK                            x       y       z     vdW  Elec       q    Type
REMARK                         _______ _______ _______ _____ _____    ______ ____
ROOT
ATOM     17  C   UNL     1      -3.090  -0.545  24.490  0.00  0.00    +0.138 C 
ATOM     18  C   UNL     1      -3.459  -1.164  24.087  0.00  0.00    +0.027 C 
ATOM     19  C   UNL     1      -4.273  -1.032  24.109  0.00  0.00    +0.019 C 
ATOM     20  C   UNL     1      -4.407  -0.333  24.525  0.00  0.00    +0.073 C 
ATOM     21  N   UNL     1      -3.676  -0.032  24.760  0.00  0.00    -0.263 NA
ENDROOT
BRANCH  17  15
ATOM     12  C   UNL     1      -0.986  -0.199  24.381  0.00  0.00    +0.206 A 
ATOM     13  N   UNL     1      -1.068  -0.440  25.166  0.00  0.00    -0.056 NA
ATOM     14  O   UNL     1      -1.866  -0.599  25.303  0.00  0.00    -0.336 OA
ATOM     15  C   UNL     1      -2.277  -0.456  24.602  0.00  0.00    +0.251 A 
ATOM     16  N   UNL     1      -1.733  -0.209  24.033  0.00  0.00    -0.190 NA
BRANCH  12   7
ATOM      6  C   UNL     1       0.015   0.780  24.098  0.00  0.00    +0.151 A 
ATOM      7  C   UNL     1      -0.281   0.014  24.010  0.00  0.00    +0.072 A 
ATOM      8  C   UNL     1       0.127  -0.537  23.553  0.00  0.00    +0.008 A 
ATOM      9  C   UNL     1       0.833  -0.323  23.182  0.00  0.00    +0.021 A 
ATOM     10  C   UNL     1       1.130   0.441  23.269  0.00  0.00    +0.100 A 
ATOM     11  N   UNL     1       0.721   0.993  23.727  0.00  0.00    -0.228 NA
BRANCH   6   5
ATOM      5  N   UNL     1      -0.393   1.331  24.555  0.00  0.00    -0.218 NA
BRANCH   5   4
ATOM      4  C   UNL     1      -0.141   2.116  24.578  0.00  0.00    +0.146 C 
BRANCH   4   3
ATOM      3  C   UNL     1      -0.500   2.650  25.094  0.00  0.00    +0.166 C 
BRANCH   3   2
ATOM      1  C   UNL     1      -0.976   3.967  25.378  0.00  0.00    +0.174 C 
ATOM      2  O   UNL     1      -0.618   3.433  24.862  0.00  0.00    -0.349 OA
ENDBRANCH   3   2
ENDBRANCH   4   3
ENDBRANCH   5   4
ENDBRANCH   6   5
ENDBRANCH  12   7
ENDBRANCH  17  15
BRANCH  21  22
ATOM     22  C   UNL     1      -3.553   0.661  25.191  0.00  0.00    +0.100 C 
BRANCH  22  23
ATOM     23  C   UNL     1      -4.068   1.299  25.101  0.00  0.00    +0.000 A 
ATOM     24  C   UNL     1      -3.926   1.865  24.517  0.00  0.00    +0.037 A 
ATOM     25  C   UNL     1      -4.441   2.503  24.428  0.00  0.00    +0.175 A 
ATOM     28  C   UNL     1      -5.097   2.576  24.922  0.00  0.00    +0.206 A 
ATOM     31  C   UNL     1      -5.239   2.011  25.507  0.00  0.00    +0.175 A 
ATOM     34  C   UNL     1      -4.724   1.372  25.596  0.00  0.00    +0.037 A 
BRANCH  25  26
ATOM     26  O   UNL     1      -4.300   3.068  23.844  0.00  0.00    -0.468 OA
ATOM     27  C   UNL     1      -3.735   2.926  23.259  0.00  0.00    +0.253 C 
ENDBRANCH  25  26
BRANCH  28  29
ATOM     29  O   UNL     1      -5.612   3.215  24.833  0.00  0.00    -0.465 OA
ATOM     30  C   UNL     1      -5.525   3.884  25.308  0.00  0.00    +0.253 C 
ENDBRANCH  28  29
BRANCH  31  32
ATOM     32  O   UNL     1      -5.895   2.084  26.002  0.00  0.00    -0.468 OA
ATOM     33  C   UNL     1      -6.243   1.411  26.327  0.00  0.00    +0.253 C 
ENDBRANCH  31  32
ENDBRANCH  22  23
ENDBRANCH  21  22
TORSDOF 11
ENDMDL
MODEL 7
REMARK VINA RESULT:      -8.2      1.749      5.568
REMARK  Name = 
REMARK  11 active torsions:
REMARK  status: ('A' for Active; 'I' for Inactive)
REMARK    1  A    between atoms: O_2  and  C_3
REMARK    2  A    between atoms: C_3  and  C_4
REMARK    3  A    between atoms: C_4  and  N_5
REMARK    4  A    between atoms: N_5  and  C_6
REMARK    5  A    between atoms: C_7  and  C_12
REMARK    6  A    between atoms: C_15  and  C_17
REMARK    7  A    between atoms: N_21  and  C_22
REMARK    8  A    between atoms: C_22  and  C_23
REMARK    9  A    between atoms: C_25  and  O_26
REMARK   10  A    between atoms: C_28  and  O_29
REMARK   11  A    between atoms: C_31  and  O_32
REMARK                            x       y       z     vdW  Elec       q    Type
REMARK                         _______ _______ _______ _____ _____    ______ ____
ROOT
ATOM     17  C   UNL     1      -0.635  -0.535  24.401  0.00  0.00    +0.138 C 
ATOM     18  C   UNL     1      -0.037  -0.780  23.888  0.00  0.00    +0.027 C 
ATOM     19  C   UNL     1       0.498  -0.157  23.803  0.00  0.00    +0.019 C 
ATOM     20  C   UNL     1       0.230   0.473  24.264  0.00  0.00    +0.073 C 
ATOM     21  N   UNL     1      -0.470   0.239  24.633  0.00  0.00    -0.263 NA
ENDROOT
BRANCH  17  15
ATOM     12  C   UNL     1      -2.450  -1.635  24.629  0.00  0.00    +0.206 A 
ATOM     13  N   UNL     1      -2.116  -1.722  25.379  0.00  0.00    -0.056 NA
ATOM     14  O   UNL     1      -1.395  -1.320  25.384  0.00  0.00    -0.336 OA
ATOM     15  C   UNL     1      -1.284  -0.985  24.639  0.00  0.00    +0.251 A 
ATOM     16  N   UNL     1      -1.936  -1.180  24.172  0.00  0.00    -0.190 NA
BRANCH  12   7
ATOM      6  C   UNL     1      -3.851  -1.479  24.392  0.00  0.00    +0.151 A 
ATOM      7  C   UNL     1      -3.172  -1.949  24.381  0.00  0.00    +0.072 A 
ATOM      8  C   UNL     1      -3.215  -2.731  24.123  0.00  0.00    +0.008 A 
ATOM      9  C   UNL     1      -3.936  -3.044  23.875  0.00  0.00    +0.021 A 
ATOM     10  C   UNL     1      -4.615  -2.576  23.885  0.00  0.00    +0.100 A 
ATOM     11  N   UNL     1      -4.572  -1.793  24.144  0.00  0.00    -0.228 NA
BRANCH   6   5
ATOM      5  N   UNL     1      -3.808  -0.698  24.650  0.00  0.00    -0.218 NA
BRANCH   5   4
ATOM      4  C   UNL     1      -4.470  -0.208  24.595  0.00  0.00    +0.146 C 
BRANCH   4   3
ATOM      3  C   UNL     1      -4.511   0.482  25.044  0.00  0.00    +0.166 C 
BRANCH   3   2
ATOM      1  C   UNL     1      -5.153   1.746  25.224  0.00  0.00    +0.174 C 
ATOM      2  O   UNL     1      -4.850   1.164  24.726  0.00  0.00    -0.349 OA
ENDBRANCH   3   2
ENDBRANCH   4   3
ENDBRANCH   5   4
ENDBRANCH   6   5
ENDBRANCH  12   7
ENDBRANCH  17  15
BRANCH  21  22
ATOM     22  C   UNL     1      -0.925   0.699  25.145  0.00  0.00    +0.100 C 
BRANCH  22  23
ATOM     23  C   UNL     1      -0.890   1.521  25.102  0.00  0.00    +0.000 A 
ATOM     24  C   UNL     1      -1.314   1.923  24.518  0.00  0.00    +0.037 A 
ATOM     25  C   UNL     1      -1.279   2.745  24.475  0.00  0.00    +0.175 A 
ATOM     28  C   UNL     1      -0.821   3.168  25.015  0.00  0.00    +0.206 A 
ATOM     31  C   UNL     1      -0.397   2.768  25.599  0.00  0.00    +0.175 A 
ATOM     34  C   UNL     1      -0.432   1.944  25.642  0.00  0.00    +0.037 A 
BRANCH  25  26
ATOM     26  O   UNL     1      -1.702   3.146  23.891  0.00  0.00    -0.468 OA
ATOM     27  C   UNL     1      -2.105   2.722  23.308  0.00  0.00    +0.253 C 
ENDBRANCH  25  26
BRANCH  28  29
ATOM     29  O   UNL     1      -0.786   3.991  24.972  0.00  0.00    -0.465 OA
ATOM     30  C   UNL     1      -1.389   4.447  25.302  0.00  0.00    +0.253 C 
ENDBRANCH  28  29
BRANCH  31  32
ATOM     32  O   UNL     1       0.062   3.190  26.140  0.00  0.00    -0.468 OA
ATOM     33  C   UNL     1       0.475   2.790  26.731  0.00  0.00    +0.253 C 
ENDBRANCH  31  32
ENDBRANCH  22  23
ENDBRANCH  21  22
TORSDOF 11
ENDMDL
