REMARK  Name = 
REMARK  6 active torsions:
REMARK  status: ('A' for Active; 'I' for Inactive)
REMARK    1  A    between atoms: C_5  and  N_8
REMARK    2  A    between atoms: N_8  and  C_9
REMARK    3  A    between atoms: C_9  and  C_10
REMARK    4  A    between atoms: C_10  and  C_11
REMARK    5  A    between atoms: C_14  and  C_15
REMARK    6  A    between atoms: C_15  and  C_16
REMARK                            x       y       z     vdW  Elec       q    Type
REMARK                         _______ _______ _______ _____ _____    ______ ____
ROOT
ATOM      9  C   UNL     1       1.580   3.622   0.000  0.00  0.00    +0.119 C 
ATOM     19  C   UNL     1       2.163   3.038   0.000  0.00  0.00    +0.161 C 
ATOM     20  O   UNL     1       1.580   2.455   0.000  0.00  0.00    -0.351 OA
ATOM     21  C   UNL     1       0.997   3.038   0.000  0.00  0.00    +0.161 C 
ENDROOT
BRANCH   9   8
ATOM      8  N   UNL     1       2.163   4.205   0.000  0.00  0.00    -0.217 NA
BRANCH   8   5
ATOM      1  C   UNL     1       1.309   7.393   0.000  0.00  0.00    +0.090 C 
ATOM      2  N   UNL     1       1.523   6.596   0.000  0.00  0.00    -0.271 NA
ATOM      3  C   UNL     1       2.320   6.382   0.000  0.00  0.00    +0.074 C 
ATOM      4  C   UNL     1       2.533   5.585   0.000  0.00  0.00    +0.035 C 
ATOM      5  C   UNL     1       1.950   5.002   0.000  0.00  0.00    +0.076 C 
ATOM      6  C   UNL     1       1.153   5.216   0.000  0.00  0.00    +0.035 C 
ATOM      7  C   UNL     1       0.939   6.013   0.000  0.00  0.00    +0.074 C 
ENDBRANCH   8   5
ENDBRANCH   9   8
BRANCH   9  10
ATOM     10  C   UNL     1       0.997   4.205   0.000  0.00  0.00    +0.070 C 
BRANCH  10  11
ATOM     11  C   UNL     1       0.200   3.992   0.000  0.00  0.00    +0.102 A 
ATOM     12  N   UNL     1      -0.096   3.221   0.000  0.00  0.00    -0.082 NA
ATOM     13  O   UNL     1      -0.920   3.265   0.000  0.00  0.00    -0.358 OA
ATOM     14  C   UNL     1      -1.133   4.061   0.000  0.00  0.00    +0.157 A 
ATOM     18  C   UNL     1      -0.442   4.511   0.000  0.00  0.00    +0.054 A 
BRANCH  14  15
ATOM     15  C   UNL     1      -1.904   4.357   0.000  0.00  0.00    +0.103 C 
BRANCH  15  16
ATOM     16  C   UNL     1      -2.033   5.172   0.000  0.00  0.00    +0.190 C 
ATOM     17  O   UNL     1      -2.803   5.468   0.000  0.00  0.00    -0.220 OA
ENDBRANCH  15  16
ENDBRANCH  14  15
ENDBRANCH  10  11
ENDBRANCH   9  10
TORSDOF 6
