MODEL 1
REMARK VINA RESULT:     -10.4      0.000      0.000
REMARK  Name = 
REMARK  8 active torsions:
REMARK  status: ('A' for Active; 'I' for Inactive)
REMARK    1  A    between atoms: C_2  and  C_4
REMARK    2  A    between atoms: C_4  and  C_5
REMARK    3  A    between atoms: C_5  and  N_6
REMARK    4  A    between atoms: C_5  and  C_32
REMARK    5  A    between atoms: C_7  and  C_9
REMARK    6  A    between atoms: C_11  and  N_23
REMARK    7  A    between atoms: C_15  and  C_17
REMARK    8  A    between atoms: C_24  and  C_26
REMARK                            x       y       z     vdW  Elec       q    Type
REMARK                         _______ _______ _______ _____ _____    ______ ____
ROOT
ATOM      9  C   UNL     1      -2.339   0.772  24.246  0.00  0.00    +0.155 C 
ATOM     10  C   UNL     1      -2.935   1.312  24.063  0.00  0.00    +0.051 C 
ATOM     11  C   UNL     1      -2.763   1.977  23.606  0.00  0.00    +0.100 C 
ATOM     12  C   UNL     1      -1.995   2.102  23.332  0.00  0.00    +0.043 C 
ATOM     13  C   UNL     1      -1.399   1.561  23.516  0.00  0.00    +0.096 C 
ATOM     14  N   UNL     1      -1.571   0.897  23.973  0.00  0.00    -0.268 N 
ATOM     15  C   UNL     1      -0.975   0.356  24.157  0.00  0.00    +0.268 C 
ATOM     16  O   UNL     1      -1.147  -0.308  24.613  0.00  0.00    -0.268 OA
ENDROOT
BRANCH  15  17
ATOM     17  C   UNL     1      -0.206   0.481  23.883  0.00  0.00    +0.141 A 
ATOM     18  C   UNL     1       0.326   1.040  24.174  0.00  0.00    +0.060 A 
ATOM     19  S   UNL     1       1.026   0.973  23.741  0.00  0.00    -0.070 S 
ATOM     20  C   UNL     1       0.925   0.373  23.184  0.00  0.00    +0.089 A 
ATOM     21  C   UNL     1       1.487   0.121  22.635  0.00  0.00    +0.059 C 
ATOM     22  N   UNL     1       0.163   0.069  23.272  0.00  0.00    -0.238 NA
ENDBRANCH  15  17
BRANCH   9   7
ATOM      6  N   UNL     1      -3.180  -0.346  24.536  0.00  0.00    -0.196 NA
ATOM      7  C   UNL     1      -2.512   0.107  24.704  0.00  0.00    +0.260 C 
ATOM      8  O   UNL     1      -2.016  -0.104  25.328  0.00  0.00    -0.272 OA
BRANCH   6   5
ATOM      5  C   UNL     1      -3.353  -1.012  24.993  0.00  0.00    +0.174 C 
BRANCH   5  32
ATOM     32  C   UNL     1      -3.738  -0.926  25.716  0.00  0.00    +0.281 C 
ATOM     33  N   UNL     1      -3.470  -1.339  26.379  0.00  0.00    -0.086 NA
ATOM     34  O   UNL     1      -4.393  -0.428  25.779  0.00  0.00    -0.270 OA
ENDBRANCH   5  32
BRANCH   5   4
ATOM      4  C   UNL     1      -3.139  -1.762  24.726  0.00  0.00    +0.031 C 
BRANCH   4   2
ATOM      1  C   UNL     1      -3.669  -3.039  24.363  0.00  0.00    +0.000 C 
ATOM      2  C   UNL     1      -3.679  -2.217  24.298  0.00  0.00    +0.002 C 
ATOM      3  C   UNL     1      -4.228  -1.849  23.805  0.00  0.00    +0.000 C 
ENDBRANCH   4   2
ENDBRANCH   5   4
ENDBRANCH   6   5
ENDBRANCH   9   7
BRANCH  11  23
ATOM     23  N   UNL     1      -3.359   2.517  23.423  0.00  0.00    -0.203 NA
ATOM     24  C   UNL     1      -3.458   3.195  23.884  0.00  0.00    +0.273 C 
ATOM     25  O   UNL     1      -4.054   3.734  23.701  0.00  0.00    -0.268 OA
BRANCH  24  26
ATOM     26  C   UNL     1      -2.960   3.332  24.528  0.00  0.00    +0.119 A 
ATOM     27  C   UNL     1      -3.184   3.341  25.321  0.00  0.00    +0.093 A 
ATOM     28  C   UNL     1      -3.947   3.214  25.611  0.00  0.00    +0.055 C 
ATOM     29  N   UNL     1      -2.513   3.498  25.775  0.00  0.00    -0.145 NA
ATOM     30  N   UNL     1      -1.873   3.587  25.261  0.00  0.00    -0.110 NA
ATOM     31  S   UNL     1      -2.149   3.484  24.490  0.00  0.00    +0.042 S 
ENDBRANCH  24  26
ENDBRANCH  11  23
TORSDOF 8
ENDMDL
MODEL 2
REMARK VINA RESULT:     -10.3      1.722      3.958
REMARK  Name = 
REMARK  8 active torsions:
REMARK  status: ('A' for Active; 'I' for Inactive)
REMARK    1  A    between atoms: C_2  and  C_4
REMARK    2  A    between atoms: C_4  and  C_5
REMARK    3  A    between atoms: C_5  and  N_6
REMARK    4  A    between atoms: C_5  and  C_32
REMARK    5  A    between atoms: C_7  and  C_9
REMARK    6  A    between atoms: C_11  and  N_23
REMARK    7  A    between atoms: C_15  and  C_17
REMARK    8  A    between atoms: C_24  and  C_26
REMARK                            x       y       z     vdW  Elec       q    Type
REMARK                         _______ _______ _______ _____ _____    ______ ____
ROOT
ATOM      9  C   UNL     1      -2.659   1.126  24.915  0.00  0.00    +0.155 C 
ATOM     10  C   UNL     1      -2.040   1.576  25.222  0.00  0.00    +0.051 C 
ATOM     11  C   UNL     1      -1.407   1.203  25.599  0.00  0.00    +0.100 C 
ATOM     12  C   UNL     1      -1.394   0.381  25.669  0.00  0.00    +0.043 C 
ATOM     13  C   UNL     1      -2.014  -0.068  25.362  0.00  0.00    +0.096 C 
ATOM     14  N   UNL     1      -2.646   0.304  24.985  0.00  0.00    -0.268 N 
ATOM     15  C   UNL     1      -3.267  -0.146  24.678  0.00  0.00    +0.268 C 
ATOM     16  O   UNL     1      -3.899   0.226  24.301  0.00  0.00    -0.268 OA
ENDROOT
BRANCH  15  17
ATOM     17  C   UNL     1      -3.254  -0.969  24.748  0.00  0.00    +0.141 A 
ATOM     18  C   UNL     1      -3.572  -1.406  25.371  0.00  0.00    +0.060 A 
ATOM     19  S   UNL     1      -3.436  -2.205  25.216  0.00  0.00    -0.070 S 
ATOM     20  C   UNL     1      -3.033  -2.260  24.497  0.00  0.00    +0.089 A 
ATOM     21  C   UNL     1      -2.786  -2.957  24.132  0.00  0.00    +0.059 C 
ATOM     22  N   UNL     1      -2.921  -1.495  24.209  0.00  0.00    -0.238 NA
ENDBRANCH  15  17
BRANCH   9   7
ATOM      6  N   UNL     1      -3.656   2.149  24.890  0.00  0.00    -0.196 NA
ATOM      7  C   UNL     1      -3.292   1.498  24.538  0.00  0.00    +0.260 C 
ATOM      8  O   UNL     1      -3.560   1.220  23.810  0.00  0.00    -0.272 OA
BRANCH   6   5
ATOM      5  C   UNL     1      -4.289   2.522  24.513  0.00  0.00    +0.174 C 
BRANCH   5  32
ATOM     32  C   UNL     1      -4.147   3.106  23.949  0.00  0.00    +0.281 C 
ATOM     33  N   UNL     1      -3.714   3.779  24.152  0.00  0.00    -0.086 NA
ATOM     34  O   UNL     1      -4.436   3.018  23.182  0.00  0.00    -0.270 OA
ENDBRANCH   5  32
BRANCH   5   4
ATOM      4  C   UNL     1      -5.063   2.309  24.701  0.00  0.00    +0.031 C 
BRANCH   4   2
ATOM      1  C   UNL     1      -5.865   2.132  25.871  0.00  0.00    +0.000 C 
ATOM      2  C   UNL     1      -5.425   2.622  25.375  0.00  0.00    +0.002 C 
ATOM      3  C   UNL     1      -5.345   3.423  25.551  0.00  0.00    +0.000 C 
ENDBRANCH   4   2
ENDBRANCH   5   4
ENDBRANCH   6   5
ENDBRANCH   9   7
BRANCH  11  23
ATOM     23  N   UNL     1      -0.788   1.654  25.906  0.00  0.00    -0.203 NA
ATOM     24  C   UNL     1      -0.108   1.781  25.455  0.00  0.00    +0.273 C 
ATOM     25  O   UNL     1       0.512   2.231  25.762  0.00  0.00    -0.268 OA
BRANCH  24  26
ATOM     26  C   UNL     1      -0.048   1.457  24.698  0.00  0.00    +0.119 A 
ATOM     27  C   UNL     1      -0.030   1.880  23.990  0.00  0.00    +0.093 A 
ATOM     28  C   UNL     1      -0.069   2.701  23.914  0.00  0.00    +0.055 C 
ATOM     29  N   UNL     1       0.033   1.338  23.371  0.00  0.00    -0.145 NA
ATOM     30  N   UNL     1       0.054   0.580  23.697  0.00  0.00    -0.110 NA
ATOM     31  S   UNL     1       0.004   0.654  24.517  0.00  0.00    +0.042 S 
ENDBRANCH  24  26
ENDBRANCH  11  23
TORSDOF 8
ENDMDL
MODEL 3
REMARK VINA RESULT:     -10.1      1.714      3.414
REMARK  Name = 
REMARK  8 active torsions:
REMARK  status: ('A' for Active; 'I' for Inactive)
REMARK    1  A    between atoms: C_2  and  C_4
REMARK    2  A    between atoms: C_4  and  C_5
REMARK    3  A    between atoms: C_5  and  N_6
REMARK    4  A    between atoms: C_5  and  C_32
REMARK    5  A    between atoms: C_7  and  C_9
REMARK    6  A    between atoms: C_11  and  N_23
REMARK    7  A    between atoms: C_15  and  C_17
REMARK    8  A    between atoms: C_24  and  C_26
REMARK                            x       y       z     vdW  Elec       q    Type
REMARK                         _______ _______ _______ _____ _____    ______ ____
ROOT
ATOM      9  C   UNL     1      -2.819   0.897  24.676  0.00  0.00    +0.155 C 
ATOM     10  C   UNL     1      -2.126   1.165  24.317  0.00  0.00    +0.051 C 
ATOM     11  C   UNL     1      -2.086   1.934  24.020  0.00  0.00    +0.100 C 
ATOM     12  C   UNL     1      -2.739   2.435  24.083  0.00  0.00    +0.043 C 
ATOM     13  C   UNL     1      -3.432   2.166  24.442  0.00  0.00    +0.096 C 
ATOM     14  N   UNL     1      -3.472   1.398  24.738  0.00  0.00    -0.268 N 
ATOM     15  C   UNL     1      -4.165   1.129  25.097  0.00  0.00    +0.268 C 
ATOM     16  O   UNL     1      -4.205   0.361  25.394  0.00  0.00    -0.268 OA
ENDROOT
BRANCH  15  17
ATOM     17  C   UNL     1      -4.818   1.631  25.160  0.00  0.00    +0.141 A 
ATOM     18  C   UNL     1      -5.523   1.562  24.737  0.00  0.00    +0.060 A 
ATOM     19  S   UNL     1      -6.021   2.177  24.972  0.00  0.00    -0.070 S 
ATOM     20  C   UNL     1      -5.623   2.625  25.539  0.00  0.00    +0.089 A 
ATOM     21  C   UNL     1      -5.917   3.293  25.923  0.00  0.00    +0.059 C 
ATOM     22  N   UNL     1      -4.879   2.287  25.655  0.00  0.00    -0.238 NA
ENDBRANCH  15  17
BRANCH   9   7
ATOM      6  N   UNL     1      -2.746  -0.514  24.468  0.00  0.00    -0.196 NA
ATOM      7  C   UNL     1      -2.859   0.128  24.972  0.00  0.00    +0.260 C 
ATOM      8  O   UNL     1      -3.012   0.002  25.772  0.00  0.00    -0.272 OA
BRANCH   6   5
ATOM      5  C   UNL     1      -2.786  -1.284  24.764  0.00  0.00    +0.174 C 
BRANCH   5  32
ATOM     32  C   UNL     1      -2.097  -1.676  24.986  0.00  0.00    +0.281 C 
ATOM     33  N   UNL     1      -1.501  -1.811  24.430  0.00  0.00    -0.086 NA
ATOM     34  O   UNL     1      -2.000  -1.935  25.764  0.00  0.00    -0.270 OA
ENDBRANCH   5  32
BRANCH   5   4
ATOM      4  C   UNL     1      -3.517  -1.659  24.838  0.00  0.00    +0.031 C 
BRANCH   4   2
ATOM      1  C   UNL     1      -4.127  -2.028  23.600  0.00  0.00    +0.000 C 
ATOM      2  C   UNL     1      -3.738  -2.241  24.296  0.00  0.00    +0.002 C 
ATOM      3  C   UNL     1      -3.571  -3.033  24.450  0.00  0.00    +0.000 C 
ENDBRANCH   4   2
ENDBRANCH   5   4
ENDBRANCH   6   5
ENDBRANCH   9   7
BRANCH  11  23
ATOM     23  N   UNL     1      -1.393   2.202  23.662  0.00  0.00    -0.203 NA
ATOM     24  C   UNL     1      -0.870   2.682  24.083  0.00  0.00    +0.273 C 
ATOM     25  O   UNL     1      -0.177   2.949  23.724  0.00  0.00    -0.268 OA
BRANCH  24  26
ATOM     26  C   UNL     1      -1.040   2.893  24.862  0.00  0.00    +0.119 A 
ATOM     27  C   UNL     1      -0.628   2.647  25.532  0.00  0.00    +0.093 A 
ATOM     28  C   UNL     1       0.027   2.144  25.542  0.00  0.00    +0.055 C 
ATOM     29  N   UNL     1      -0.986   2.990  26.192  0.00  0.00    -0.145 NA
ATOM     30  N   UNL     1      -1.619   3.449  25.929  0.00  0.00    -0.110 NA
ATOM     31  S   UNL     1      -1.653   3.390  25.107  0.00  0.00    +0.042 S 
ENDBRANCH  24  26
ENDBRANCH  11  23
TORSDOF 8
ENDMDL
MODEL 4
REMARK VINA RESULT:     -10.0      1.787      3.694
REMARK  Name = 
REMARK  8 active torsions:
REMARK  status: ('A' for Active; 'I' for Inactive)
REMARK    1  A    between atoms: C_2  and  C_4
REMARK    2  A    between atoms: C_4  and  C_5
REMARK    3  A    between atoms: C_5  and  N_6
REMARK    4  A    between atoms: C_5  and  C_32
REMARK    5  A    between atoms: C_7  and  C_9
REMARK    6  A    between atoms: C_11  and  N_23
REMARK    7  A    between atoms: C_15  and  C_17
REMARK    8  A    between atoms: C_24  and  C_26
REMARK                            x       y       z     vdW  Elec       q    Type
REMARK                         _______ _______ _______ _____ _____    ______ ____
ROOT
ATOM      9  C   UNL     1      -2.124   1.146  24.182  0.00  0.00    +0.155 C 
ATOM     10  C   UNL     1      -2.458   1.777  23.768  0.00  0.00    +0.051 C 
ATOM     11  C   UNL     1      -3.243   1.735  23.515  0.00  0.00    +0.100 C 
ATOM     12  C   UNL     1      -3.693   1.062  23.675  0.00  0.00    +0.043 C 
ATOM     13  C   UNL     1      -3.357   0.431  24.089  0.00  0.00    +0.096 C 
ATOM     14  N   UNL     1      -2.574   0.473  24.342  0.00  0.00    -0.268 N 
ATOM     15  C   UNL     1      -2.239  -0.157  24.755  0.00  0.00    +0.268 C 
ATOM     16  O   UNL     1      -1.455  -0.115  25.008  0.00  0.00    -0.268 OA
ENDROOT
BRANCH  15  17
ATOM     17  C   UNL     1      -2.689  -0.831  24.915  0.00  0.00    +0.141 A 
ATOM     18  C   UNL     1      -3.093  -0.988  25.617  0.00  0.00    +0.060 A 
ATOM     19  S   UNL     1      -3.467  -1.719  25.538  0.00  0.00    -0.070 S 
ATOM     20  C   UNL     1      -3.293  -2.013  24.787  0.00  0.00    +0.089 A 
ATOM     21  C   UNL     1      -3.555  -2.731  24.475  0.00  0.00    +0.059 C 
ATOM     22  N   UNL     1      -2.812  -1.464  24.402  0.00  0.00    -0.238 NA
ENDBRANCH  15  17
BRANCH   9   7
ATOM      6  N   UNL     1      -1.039   1.899  24.727  0.00  0.00    -0.196 NA
ATOM      7  C   UNL     1      -1.340   1.189  24.435  0.00  0.00    +0.260 C 
ATOM      8  O   UNL     1      -0.857   0.522  24.396  0.00  0.00    -0.272 OA
BRANCH   6   5
ATOM      5  C   UNL     1      -0.255   1.942  24.980  0.00  0.00    +0.174 C 
BRANCH   5  32
ATOM     32  C   UNL     1       0.344   2.116  24.441  0.00  0.00    +0.281 C 
ATOM     33  N   UNL     1       0.990   1.609  24.363  0.00  0.00    -0.086 NA
ATOM     34  O   UNL     1       0.297   2.798  23.979  0.00  0.00    -0.270 OA
ENDBRANCH   5  32
BRANCH   5   4
ATOM      4  C   UNL     1      -0.070   1.809  25.773  0.00  0.00    +0.031 C 
BRANCH   4   2
ATOM      1  C   UNL     1       0.501   2.483  26.897  0.00  0.00    +0.000 C 
ATOM      2  C   UNL     1      -0.075   2.438  26.308  0.00  0.00    +0.002 C 
ATOM      3  C   UNL     1      -0.654   3.022  26.254  0.00  0.00    +0.000 C 
ENDBRANCH   4   2
ENDBRANCH   5   4
ENDBRANCH   6   5
ENDBRANCH   9   7
BRANCH  11  23
ATOM     23  N   UNL     1      -3.577   2.366  23.102  0.00  0.00    -0.203 NA
ATOM     24  C   UNL     1      -4.106   2.874  23.482  0.00  0.00    +0.273 C 
ATOM     25  O   UNL     1      -4.440   3.505  23.069  0.00  0.00    -0.268 OA
BRANCH  24  26
ATOM     26  C   UNL     1      -4.299   2.750  24.274  0.00  0.00    +0.119 A 
ATOM     27  C   UNL     1      -4.110   3.249  24.903  0.00  0.00    +0.093 A 
ATOM     28  C   UNL     1      -3.694   3.960  24.850  0.00  0.00    +0.055 C 
ATOM     29  N   UNL     1      -4.410   2.913  25.595  0.00  0.00    -0.145 NA
ATOM     30  N   UNL     1      -4.785   2.206  25.393  0.00  0.00    -0.110 NA
ATOM     31  S   UNL     1      -4.716   2.105  24.577  0.00  0.00    +0.042 S 
ENDBRANCH  24  26
ENDBRANCH  11  23
TORSDOF 8
ENDMDL
MODEL 5
REMARK VINA RESULT:      -9.7      1.337      3.951
REMARK  Name = 
REMARK  8 active torsions:
REMARK  status: ('A' for Active; 'I' for Inactive)
REMARK    1  A    between atoms: C_2  and  C_4
REMARK    2  A    between atoms: C_4  and  C_5
REMARK    3  A    between atoms: C_5  and  N_6
REMARK    4  A    between atoms: C_5  and  C_32
REMARK    5  A    between atoms: C_7  and  C_9
REMARK    6  A    between atoms: C_11  and  N_23
REMARK    7  A    between atoms: C_15  and  C_17
REMARK    8  A    between atoms: C_24  and  C_26
REMARK                            x       y       z     vdW  Elec       q    Type
REMARK                         _______ _______ _______ _____ _____    ______ ____
ROOT
ATOM      9  C   UNL     1      -2.190   0.891  24.698  0.00  0.00    +0.155 C 
ATOM     10  C   UNL     1      -2.634   0.434  25.222  0.00  0.00    +0.051 C 
ATOM     11  C   UNL     1      -2.309  -0.253  25.546  0.00  0.00    +0.100 C 
ATOM     12  C   UNL     1      -1.542  -0.481  25.346  0.00  0.00    +0.043 C 
ATOM     13  C   UNL     1      -1.099  -0.023  24.822  0.00  0.00    +0.096 C 
ATOM     14  N   UNL     1      -1.423   0.663  24.498  0.00  0.00    -0.268 N 
ATOM     15  C   UNL     1      -0.980   1.121  23.974  0.00  0.00    +0.268 C 
ATOM     16  O   UNL     1      -1.303   1.807  23.650  0.00  0.00    -0.268 OA
ENDROOT
BRANCH  15  17
ATOM     17  C   UNL     1      -0.212   0.892  23.774  0.00  0.00    +0.141 A 
ATOM     18  C   UNL     1       0.483   1.189  24.104  0.00  0.00    +0.060 A 
ATOM     19  S   UNL     1       1.120   0.807  23.743  0.00  0.00    -0.070 S 
ATOM     20  C   UNL     1       0.817   0.275  23.190  0.00  0.00    +0.089 A 
ATOM     21  C   UNL     1       1.259  -0.222  22.703  0.00  0.00    +0.059 C 
ATOM     22  N   UNL     1      -0.006   0.328  23.209  0.00  0.00    -0.238 NA
ENDBRANCH  15  17
BRANCH   9   7
ATOM      6  N   UNL     1      -2.954   2.089  24.848  0.00  0.00    -0.196 NA
ATOM      7  C   UNL     1      -2.514   1.578  24.374  0.00  0.00    +0.260 C 
ATOM      8  O   UNL     1      -2.397   1.752  23.577  0.00  0.00    -0.272 OA
BRANCH   6   5
ATOM      5  C   UNL     1      -3.278   2.776  24.524  0.00  0.00    +0.174 C 
BRANCH   5  32
ATOM     32  C   UNL     1      -3.978   2.737  24.091  0.00  0.00    +0.281 C 
ATOM     33  N   UNL     1      -4.638   2.353  24.406  0.00  0.00    -0.086 NA
ATOM     34  O   UNL     1      -4.020   3.080  23.342  0.00  0.00    -0.270 OA
ENDBRANCH   5  32
BRANCH   5   4
ATOM      4  C   UNL     1      -2.901   3.501  24.635  0.00  0.00    +0.031 C 
BRANCH   4   2
ATOM      1  C   UNL     1      -2.267   4.218  25.696  0.00  0.00    +0.000 C 
ATOM      2  C   UNL     1      -2.944   3.880  25.367  0.00  0.00    +0.002 C 
ATOM      3  C   UNL     1      -3.662   3.921  25.769  0.00  0.00    +0.000 C 
ENDBRANCH   4   2
ENDBRANCH   5   4
ENDBRANCH   6   5
ENDBRANCH   9   7
BRANCH  11  23
ATOM     23  N   UNL     1      -2.753  -0.710  26.070  0.00  0.00    -0.203 NA
ATOM     24  C   UNL     1      -3.101  -1.413  25.811  0.00  0.00    +0.273 C 
ATOM     25  O   UNL     1      -3.544  -1.870  26.335  0.00  0.00    -0.268 OA
BRANCH  24  26
ATOM     26  C   UNL     1      -3.003  -1.658  25.029  0.00  0.00    +0.119 A 
ATOM     27  C   UNL     1      -3.584  -1.650  24.443  0.00  0.00    +0.093 A 
ATOM     28  C   UNL     1      -4.363  -1.396  24.536  0.00  0.00    +0.055 C 
ATOM     29  N   UNL     1      -3.248  -1.941  23.747  0.00  0.00    -0.145 NA
ATOM     30  N   UNL     1      -2.460  -2.128  23.904  0.00  0.00    -0.110 NA
ATOM     31  S   UNL     1      -2.308  -1.953  24.696  0.00  0.00    +0.042 S 
ENDBRANCH  24  26
ENDBRANCH  11  23
TORSDOF 8
ENDMDL
MODEL 6
REMARK VINA RESULT:      -9.4      1.759      2.727
REMARK  Name = 
REMARK  8 active torsions:
REMARK  status: ('A' for Active; 'I' for Inactive)
REMARK    1  A    between atoms: C_2  and  C_4
REMARK    2  A    between atoms: C_4  and  C_5
REMARK    3  A    between atoms: C_5  and  N_6
REMARK    4  A    between atoms: C_5  and  C_32
REMARK    5  A    between atoms: C_7  and  C_9
REMARK    6  A    between atoms: C_11  and  N_23
REMARK    7  A    between atoms: C_15  and  C_17
REMARK    8  A    between atoms: C_24  and  C_26
REMARK                            x       y       z     vdW  Elec       q    Type
REMARK                         _______ _______ _______ _____ _____    ______ ____
ROOT
ATOM      9  C   UNL     1      -2.920   1.561  24.766  0.00  0.00    +0.155 C 
ATOM     10  C   UNL     1      -3.711   1.447  24.560  0.00  0.00    +0.051 C 
ATOM     11  C   UNL     1      -4.151   2.073  24.251  0.00  0.00    +0.100 C 
ATOM     12  C   UNL     1      -3.800   2.813  24.148  0.00  0.00    +0.043 C 
ATOM     13  C   UNL     1      -3.009   2.926  24.354  0.00  0.00    +0.096 C 
ATOM     14  N   UNL     1      -2.569   2.300  24.663  0.00  0.00    -0.268 N 
ATOM     15  C   UNL     1      -1.778   2.414  24.870  0.00  0.00    +0.268 C 
ATOM     16  O   UNL     1      -1.339   1.788  25.179  0.00  0.00    -0.268 OA
ENDROOT
BRANCH  15  17
ATOM     17  C   UNL     1      -1.427   3.154  24.767  0.00  0.00    +0.141 A 
ATOM     18  C   UNL     1      -0.859   3.346  24.200  0.00  0.00    +0.060 A 
ATOM     19  S   UNL     1      -0.664   4.142  24.295  0.00  0.00    -0.070 S 
ATOM     20  C   UNL     1      -1.111   4.441  24.921  0.00  0.00    +0.089 A 
ATOM     21  C   UNL     1      -1.090   5.215  25.205  0.00  0.00    +0.059 C 
ATOM     22  N   UNL     1      -1.583   3.830  25.212  0.00  0.00    -0.238 NA
ENDBRANCH  15  17
BRANCH   9   7
ATOM      6  N   UNL     1      -2.532   0.186  24.733  0.00  0.00    -0.196 NA
ATOM      7  C   UNL     1      -2.480   0.935  25.076  0.00  0.00    +0.260 C 
ATOM      8  O   UNL     1      -1.990   1.057  25.726  0.00  0.00    -0.272 OA
BRANCH   6   5
ATOM      5  C   UNL     1      -2.092  -0.440  25.042  0.00  0.00    +0.174 C 
BRANCH   5  32
ATOM     32  C   UNL     1      -1.376  -0.652  24.695  0.00  0.00    +0.281 C 
ATOM     33  N   UNL     1      -0.717  -0.808  25.168  0.00  0.00    -0.086 NA
ATOM     34  O   UNL     1      -1.316  -0.708  23.874  0.00  0.00    -0.270 OA
ENDBRANCH   5  32
BRANCH   5   4
ATOM      4  C   UNL     1      -2.370  -0.854  25.700  0.00  0.00    +0.031 C 
BRANCH   4   2
ATOM      1  C   UNL     1      -3.616  -1.444  26.076  0.00  0.00    +0.000 C 
ATOM      2  C   UNL     1      -2.939  -1.445  25.605  0.00  0.00    +0.002 C 
ATOM      3  C   UNL     1      -2.830  -2.034  25.039  0.00  0.00    +0.000 C 
ENDBRANCH   4   2
ENDBRANCH   5   4
ENDBRANCH   6   5
ENDBRANCH   9   7
BRANCH  11  23
ATOM     23  N   UNL     1      -4.941   1.959  24.045  0.00  0.00    -0.203 NA
ATOM     24  C   UNL     1      -5.541   2.241  24.538  0.00  0.00    +0.273 C 
ATOM     25  O   UNL     1      -6.331   2.127  24.332  0.00  0.00    -0.268 OA
BRANCH  24  26
ATOM     26  C   UNL     1      -5.349   2.637  25.236  0.00  0.00    +0.119 A 
ATOM     27  C   UNL     1      -5.505   2.374  26.001  0.00  0.00    +0.093 A 
ATOM     28  C   UNL     1      -5.881   1.668  26.204  0.00  0.00    +0.055 C 
ATOM     29  N   UNL     1      -5.219   2.940  26.530  0.00  0.00    -0.145 NA
ATOM     30  N   UNL     1      -4.887   3.554  26.090  0.00  0.00    -0.110 NA
ATOM     31  S   UNL     1      -4.966   3.367  25.290  0.00  0.00    +0.042 S 
ENDBRANCH  24  26
ENDBRANCH  11  23
TORSDOF 8
ENDMDL
