REMARK  Name = 
REMARK  6 active torsions:
REMARK  status: ('A' for Active; 'I' for Inactive)
REMARK    1  A    between atoms: C_2  and  C_4
REMARK    2  A    between atoms: C_4  and  O_5
REMARK    3  A    between atoms: O_5  and  C_6
REMARK    4  A    between atoms: C_10  and  N_14
REMARK    5  A    between atoms: N_14  and  S_15
REMARK    6  A    between atoms: S_15  and  C_18
REMARK                            x       y       z     vdW  Elec       q    Type
REMARK                         _______ _______ _______ _____ _____    ______ ____
ROOT
ATOM      6  C   UNL     1       1.270  -0.922   0.000  0.00  0.00    +0.175 C 
ATOM      7  C   UNL     1       0.785  -0.255   0.000  0.00  0.00    +0.174 C 
ATOM      8  O   UNL     1       1.270   0.412   0.000  0.00  0.00    -0.349 OA
ATOM      9  C   UNL     1       2.054   0.158   0.000  0.00  0.00    +0.165 C 
ATOM     10  C   UNL     1       2.839   0.412   0.000  0.00  0.00    +0.157 C 
ATOM     11  C   UNL     1       3.324  -0.255   0.000  0.00  0.00    +0.164 C 
ATOM     12  O   UNL     1       2.839  -0.922   0.000  0.00  0.00    -0.350 OA
ATOM     13  C   UNL     1       2.054  -0.667   0.000  0.00  0.00    +0.173 C 
ENDROOT
BRANCH   6   5
ATOM      5  O   UNL     1       1.015  -1.707   0.000  0.00  0.00    -0.342 OA
BRANCH   5   4
ATOM      4  C   UNL     1       0.208  -1.879   0.000  0.00  0.00    +0.230 C 
BRANCH   4   2
ATOM      1  N   UNL     1      -0.854  -2.835   0.000  0.00  0.00    -0.086 NA
ATOM      2  C   UNL     1      -0.047  -2.663   0.000  0.00  0.00    +0.291 C 
ATOM      3  O   UNL     1       0.505  -3.276   0.000  0.00  0.00    -0.269 OA
ENDBRANCH   4   2
ENDBRANCH   5   4
ENDBRANCH   6   5
BRANCH  10  14
ATOM     14  N   UNL     1       3.094   1.197   0.000  0.00  0.00    -0.074 NA
BRANCH  14  15
ATOM     15  S   UNL     1       3.901   1.369   0.000  0.00  0.00    +0.077 S 
ATOM     16  O   UNL     1       4.072   0.562   0.000  0.00  0.00    -0.152 OA
ATOM     17  O   UNL     1       3.729   2.176   0.000  0.00  0.00    -0.152 OA
BRANCH  15  18
ATOM     18  C   UNL     1       4.708   1.540   0.000  0.00  0.00    +0.124 A 
ATOM     19  C   UNL     1       4.963   2.325   0.000  0.00  0.00    +0.021 A 
ATOM     20  C   UNL     1       5.770   2.496   0.000  0.00  0.00    +0.013 A 
ATOM     21  C   UNL     1       6.322   1.883   0.000  0.00  0.00    +0.058 A 
ATOM     22 CL   UNL     1       7.129   2.055   0.000  0.00  0.00    -0.082 Cl
ATOM     23  C   UNL     1       6.067   1.099   0.000  0.00  0.00    +0.013 A 
ATOM     24  C   UNL     1       5.260   0.927   0.000  0.00  0.00    +0.021 A 
ENDBRANCH  15  18
ENDBRANCH  14  15
ENDBRANCH  10  14
TORSDOF 6
