MODEL 1
REMARK VINA RESULT:     -10.4      0.000      0.000
REMARK  Name = 
REMARK  9 active torsions:
REMARK  status: ('A' for Active; 'I' for Inactive)
REMARK    1  A    between atoms: N_2  and  C_3
REMARK    2  A    between atoms: C_3  and  C_4
REMARK    3  A    between atoms: C_6  and  C_8
REMARK    4  A    between atoms: C_8  and  C_9
REMARK    5  A    between atoms: C_14  and  C_15
REMARK    6  A    between atoms: C_15  and  C_16
REMARK    7  A    between atoms: C_19  and  C_20
REMARK    8  A    between atoms: C_20  and  O_21
REMARK    9  A    between atoms: O_21  and  C_22
REMARK                            x       y       z     vdW  Elec       q    Type
REMARK                         _______ _______ _______ _____ _____    ______ ____
ROOT
ATOM      9  C   UNL     1      -2.978   3.610  25.336  0.00  0.00    +0.012 C 
ATOM     10  C   UNL     1      -2.866   4.091  25.997  0.00  0.00    +0.019 C 
ATOM     11  C   UNL     1      -3.500   4.258  26.497  0.00  0.00    +0.089 C 
ATOM     12  N   UNL     1      -4.246   3.945  26.337  0.00  0.00    -0.218 NA
ATOM     13  C   UNL     1      -4.358   3.464  25.676  0.00  0.00    +0.089 C 
ATOM     14  C   UNL     1      -3.724   3.297  25.176  0.00  0.00    +0.024 C 
ENDROOT
BRANCH   9   8
ATOM      8  C   UNL     1      -2.343   3.442  24.836  0.00  0.00    +0.085 C 
BRANCH   8   6
ATOM      1  C   UNL     1      -0.243   4.021  24.707  0.00  0.00    +0.116 C 
ATOM      2  N   UNL     1      -0.930   3.565  24.669  0.00  0.00    -0.266 N 
ATOM      6  C   UNL     1      -1.657   3.897  24.873  0.00  0.00    +0.226 C 
ATOM      7  O   UNL     1      -1.696   4.685  25.115  0.00  0.00    -0.275 OA
BRANCH   2   3
ATOM      3  C   UNL     1      -0.891   2.778  24.427  0.00  0.00    +0.172 C 
BRANCH   3   4
ATOM      4  C   UNL     1      -0.159   2.397  24.379  0.00  0.00    -0.056 C 
ATOM      5  C   UNL     1       0.571   2.017  24.330  0.00  0.00    -0.012 C 
ENDBRANCH   3   4
ENDBRANCH   2   3
ENDBRANCH   8   6
ENDBRANCH   9   8
BRANCH  14  15
ATOM     15  C   UNL     1      -3.836   2.815  24.514  0.00  0.00    +0.051 C 
BRANCH  15  16
ATOM     16  C   UNL     1      -4.263   2.113  24.584  0.00  0.00    +0.100 A 
ATOM     17  N   UNL     1      -5.084   2.044  24.614  0.00  0.00    -0.082 NA
ATOM     18  O   UNL     1      -5.271   1.244  24.684  0.00  0.00    -0.354 OA
ATOM     19  C   UNL     1      -4.565   0.818  24.698  0.00  0.00    +0.198 A 
ATOM     28  C   UNL     1      -3.942   1.355  24.636  0.00  0.00    +0.057 A 
BRANCH  19  20
ATOM     20  C   UNL     1      -4.495  -0.002  24.762  0.00  0.00    +0.272 C 
BRANCH  20  21
ATOM     21  O   UNL     1      -3.941  -0.405  24.301  0.00  0.00    -0.467 OA
BRANCH  21  22
ATOM     22  C   UNL     1      -3.861  -1.223  24.375  0.00  0.00    +0.139 A 
ATOM     23  C   UNL     1      -3.416  -1.539  24.994  0.00  0.00    +0.037 A 
ATOM     24  C   UNL     1      -3.337  -2.357  25.067  0.00  0.00    +0.003 A 
ATOM     25  C   UNL     1      -3.701  -2.858  24.523  0.00  0.00    +0.000 A 
ATOM     26  C   UNL     1      -4.146  -2.542  23.905  0.00  0.00    +0.003 A 
ATOM     27  C   UNL     1      -4.226  -1.723  23.830  0.00  0.00    +0.037 A 
ENDBRANCH  21  22
ENDBRANCH  20  21
ENDBRANCH  19  20
ENDBRANCH  15  16
ENDBRANCH  14  15
TORSDOF 9
ENDMDL
MODEL 2
REMARK VINA RESULT:      -9.8      1.403      3.122
REMARK  Name = 
REMARK  9 active torsions:
REMARK  status: ('A' for Active; 'I' for Inactive)
REMARK    1  A    between atoms: N_2  and  C_3
REMARK    2  A    between atoms: C_3  and  C_4
REMARK    3  A    between atoms: C_6  and  C_8
REMARK    4  A    between atoms: C_8  and  C_9
REMARK    5  A    between atoms: C_14  and  C_15
REMARK    6  A    between atoms: C_15  and  C_16
REMARK    7  A    between atoms: C_19  and  C_20
REMARK    8  A    between atoms: C_20  and  O_21
REMARK    9  A    between atoms: O_21  and  C_22
REMARK                            x       y       z     vdW  Elec       q    Type
REMARK                         _______ _______ _______ _____ _____    ______ ____
ROOT
ATOM      9  C   UNL     1      -1.323   2.963  25.096  0.00  0.00    +0.012 C 
ATOM     10  C   UNL     1      -1.054   3.578  24.615  0.00  0.00    +0.019 C 
ATOM     11  C   UNL     1      -0.326   3.514  24.234  0.00  0.00    +0.089 C 
ATOM     12  N   UNL     1       0.134   2.836  24.332  0.00  0.00    -0.218 NA
ATOM     13  C   UNL     1      -0.134   2.222  24.813  0.00  0.00    +0.089 C 
ATOM     14  C   UNL     1      -0.863   2.286  25.195  0.00  0.00    +0.024 C 
ENDROOT
BRANCH   9   8
ATOM      8  C   UNL     1      -2.051   3.027  25.478  0.00  0.00    +0.085 C 
BRANCH   8   6
ATOM      1  C   UNL     1      -3.486   4.631  25.844  0.00  0.00    +0.116 C 
ATOM      2  N   UNL     1      -3.177   3.886  25.665  0.00  0.00    -0.266 N 
ATOM      6  C   UNL     1      -2.360   3.771  25.656  0.00  0.00    +0.226 C 
ATOM      7  O   UNL     1      -1.853   4.399  25.825  0.00  0.00    -0.275 OA
BRANCH   2   3
ATOM      3  C   UNL     1      -3.684   3.259  25.497  0.00  0.00    +0.172 C 
BRANCH   3   4
ATOM      4  C   UNL     1      -4.501   3.361  25.557  0.00  0.00    -0.056 C 
ATOM      5  C   UNL     1      -5.318   3.462  25.617  0.00  0.00    -0.012 C 
ENDBRANCH   3   4
ENDBRANCH   2   3
ENDBRANCH   8   6
ENDBRANCH   9   8
BRANCH  14  15
ATOM     15  C   UNL     1      -1.132   1.671  25.676  0.00  0.00    +0.051 C 
BRANCH  15  16
ATOM     16  C   UNL     1      -1.112   0.893  25.400  0.00  0.00    +0.100 A 
ATOM     17  N   UNL     1      -0.442   0.420  25.331  0.00  0.00    -0.082 NA
ATOM     18  O   UNL     1      -0.676  -0.313  25.034  0.00  0.00    -0.354 OA
ATOM     19  C   UNL     1      -1.492  -0.292  24.919  0.00  0.00    +0.198 A 
ATOM     28  C   UNL     1      -1.762   0.454  25.145  0.00  0.00    +0.057 A 
BRANCH  19  20
ATOM     20  C   UNL     1      -1.957  -0.908  24.628  0.00  0.00    +0.272 C 
BRANCH  20  21
ATOM     21  O   UNL     1      -2.682  -1.080  24.984  0.00  0.00    -0.467 OA
BRANCH  21  22
ATOM     22  C   UNL     1      -3.191  -1.630  24.637  0.00  0.00    +0.139 A 
ATOM     23  C   UNL     1      -3.800  -1.372  24.143  0.00  0.00    +0.037 A 
ATOM     24  C   UNL     1      -4.309  -1.921  23.796  0.00  0.00    +0.003 A 
ATOM     25  C   UNL     1      -4.209  -2.726  23.944  0.00  0.00    +0.000 A 
ATOM     26  C   UNL     1      -3.601  -2.983  24.437  0.00  0.00    +0.003 A 
ATOM     27  C   UNL     1      -3.091  -2.435  24.785  0.00  0.00    +0.037 A 
ENDBRANCH  21  22
ENDBRANCH  20  21
ENDBRANCH  19  20
ENDBRANCH  15  16
ENDBRANCH  14  15
TORSDOF 9
ENDMDL
