REMARK  Name = 
REMARK  6 active torsions:
REMARK  status: ('A' for Active; 'I' for Inactive)
REMARK    1  A    between atoms: C_3  and  C_4
REMARK    2  A    between atoms: C_4  and  N_5
REMARK    3  A    between atoms: C_6  and  C_8
REMARK    4  A    between atoms: C_15  and  N_16
REMARK    5  A    between atoms: N_16  and  C_17
REMARK    6  A    between atoms: C_17  and  C_18
REMARK                            x       y       z     vdW  Elec       q    Type
REMARK                         _______ _______ _______ _____ _____    ______ ____
ROOT
ATOM      1  O   UNL     1       1.429  -1.650   0.000  0.00  0.00    -0.219 OA
ATOM      2  C   UNL     1       1.429  -2.475   0.000  0.00  0.00    +0.199 C 
ATOM      3  C   UNL     1       2.096  -2.960   0.000  0.00  0.00    +0.169 C 
ATOM     13  O   UNL     1       1.841  -3.744   0.000  0.00  0.00    -0.350 OA
ATOM     14  C   UNL     1       1.016  -3.744   0.000  0.00  0.00    +0.162 C 
ATOM     15  C   UNL     1       0.761  -2.960   0.000  0.00  0.00    +0.135 C 
ENDROOT
BRANCH   3   4
ATOM      4  C   UNL     1       2.881  -2.705   0.000  0.00  0.00    +0.148 C 
BRANCH   4   5
ATOM      5  N   UNL     1       3.494  -3.257   0.000  0.00  0.00    -0.199 NA
ATOM      6  C   UNL     1       4.279  -3.002   0.000  0.00  0.00    +0.271 C 
ATOM      7  O   UNL     1       4.450  -2.195   0.000  0.00  0.00    -0.268 OA
BRANCH   6   8
ATOM      8  C   UNL     1       4.892  -3.554   0.000  0.00  0.00    +0.084 A 
ATOM      9  C   UNL     1       5.699  -3.383   0.000  0.00  0.00    +0.012 A 
ATOM     10  C   UNL     1       6.111  -4.097   0.000  0.00  0.00    +0.008 A 
ATOM     11  C   UNL     1       5.559  -4.710   0.000  0.00  0.00    +0.036 A 
ATOM     12  S   UNL     1       4.806  -4.375   0.000  0.00  0.00    -0.082 S 
ENDBRANCH   6   8
ENDBRANCH   4   5
ENDBRANCH   3   4
BRANCH  15  16
ATOM     16  N   UNL     1      -0.023  -2.705   0.000  0.00  0.00    -0.209 NA
BRANCH  16  17
ATOM     17  C   UNL     1      -0.636  -3.257   0.000  0.00  0.00    +0.118 C 
BRANCH  17  18
ATOM     18  C   UNL     1      -1.421  -3.002   0.000  0.00  0.00    +0.034 A 
ATOM     19  C   UNL     1      -2.034  -3.554   0.000  0.00  0.00    +0.193 A 
ATOM     20  O   UNL     1      -1.862  -4.361   0.000  0.00  0.00    -0.287 OA
ATOM     21  C   UNL     1      -2.819  -3.299   0.000  0.00  0.00    +0.042 A 
ATOM     22  C   UNL     1      -2.990  -2.492   0.000  0.00  0.00    +0.003 A 
ATOM     23  C   UNL     1      -2.377  -1.940   0.000  0.00  0.00    -0.000 A 
ATOM     24  C   UNL     1      -1.592  -2.195   0.000  0.00  0.00    +0.000 A 
ENDBRANCH  17  18
ENDBRANCH  16  17
ENDBRANCH  15  16
TORSDOF 6
