MODEL 1
REMARK VINA RESULT:     -13.5      0.000      0.000
REMARK  Name = 
REMARK  5 active torsions:
REMARK  status: ('A' for Active; 'I' for Inactive)
REMARK    1  A    between atoms: C_2  and  C_3
REMARK    2  A    between atoms: C_3  and  S_4
REMARK    3  A    between atoms: S_4  and  N_7
REMARK    4  A    between atoms: C_16  and  C_21
REMARK    5  A    between atoms: C_24  and  S_25
REMARK                            x       y       z     vdW  Elec       q    Type
REMARK                         _______ _______ _______ _____ _____    ______ ____
ROOT
ATOM      7  N   UNL     1      -3.406   2.716  24.532  0.00  0.00    -0.159 NA
ATOM      8  C   UNL     1      -3.529   3.540  24.588  0.00  0.00    +0.097 C 
ATOM      9  C   UNL     1      -4.434   3.546  24.986  0.00  0.00    +0.041 C 
ATOM     10  C   UNL     1      -5.162   3.719  25.307  0.00  0.00    +0.011 C 
ATOM     11  C   UNL     1      -4.791   3.147  25.142  0.00  0.00    +0.056 C 
ATOM     12  C   UNL     1      -3.917   3.158  24.758  0.00  0.00    +0.101 C 
ATOM     13  C   UNL     1      -4.835   2.229  25.160  0.00  0.00    +0.041 A 
ATOM     14  C   UNL     1      -5.340   1.616  25.382  0.00  0.00    +0.013 A 
ATOM     15  C   UNL     1      -5.108   0.831  25.278  0.00  0.00    +0.006 A 
ATOM     16  C   UNL     1      -4.369   0.660  24.952  0.00  0.00    +0.056 A 
ATOM     17  C   UNL     1      -3.863   1.272  24.731  0.00  0.00    +0.261 A 
ATOM     18  O   UNL     1      -3.125   1.101  24.406  0.00  0.00    -0.267 OA
ATOM     19  N   UNL     1      -4.096   2.057  24.835  0.00  0.00    -0.299 N 
ATOM     20  C   UNL     1      -4.471   2.586  25.001  0.00  0.00    +0.110 C 
ENDROOT
BRANCH  16  21
ATOM     21  C   UNL     1      -4.137  -0.125  24.849  0.00  0.00    +0.005 A 
ATOM     22  C   UNL     1      -3.752  -0.525  25.459  0.00  0.00    +0.001 A 
ATOM     23  C   UNL     1      -3.519  -1.309  25.357  0.00  0.00    +0.006 A 
ATOM     24  C   UNL     1      -3.672  -1.694  24.643  0.00  0.00    +0.025 A 
ATOM     27  C   UNL     1      -4.057  -1.296  24.033  0.00  0.00    +0.006 A 
ATOM     28  C   UNL     1      -4.290  -0.510  24.136  0.00  0.00    +0.001 A 
BRANCH  24  25
ATOM     25  S   UNL     1      -3.440  -2.480  24.540  0.00  0.00    -0.113 S 
ATOM     26  C   UNL     1      -2.647  -2.660  24.405  0.00  0.00    +0.074 C 
ENDBRANCH  24  25
ENDBRANCH  16  21
BRANCH   7   4
ATOM      4  S   UNL     1      -3.023   2.005  24.362  0.00  0.00    +0.044 S 
ATOM      5  O   UNL     1      -3.351   2.009  23.605  0.00  0.00    -0.157 OA
ATOM      6  O   UNL     1      -2.694   2.001  25.119  0.00  0.00    -0.157 OA
BRANCH   4   3
ATOM      3  C   UNL     1      -2.639   1.294  24.192  0.00  0.00    +0.169 C 
BRANCH   3   2
ATOM      1  C   UNL     1      -1.258   1.011  23.960  0.00  0.00    +0.002 C 
ATOM      2  C   UNL     1      -1.987   1.288  23.688  0.00  0.00    +0.027 C 
ENDBRANCH   3   2
ENDBRANCH   4   3
ENDBRANCH   7   4
TORSDOF 5
ENDMDL
MODEL 2
REMARK VINA RESULT:     -13.1      1.528      3.983
REMARK  Name = 
REMARK  5 active torsions:
REMARK  status: ('A' for Active; 'I' for Inactive)
REMARK    1  A    between atoms: C_2  and  C_3
REMARK    2  A    between atoms: C_3  and  S_4
REMARK    3  A    between atoms: S_4  and  N_7
REMARK    4  A    between atoms: C_16  and  C_21
REMARK    5  A    between atoms: C_24  and  S_25
REMARK                            x       y       z     vdW  Elec       q    Type
REMARK                         _______ _______ _______ _____ _____    ______ ____
ROOT
ATOM      7  N   UNL     1      -2.188  -1.468  24.924  0.00  0.00    -0.159 NA
ATOM      8  C   UNL     1      -2.055  -2.291  24.967  0.00  0.00    +0.097 C 
ATOM      9  C   UNL     1      -2.925  -2.617  24.631  0.00  0.00    +0.041 C 
ATOM     10  C   UNL     1      -3.574  -3.040  24.378  0.00  0.00    +0.011 C 
ATOM     11  C   UNL     1      -3.391  -2.367  24.455  0.00  0.00    +0.056 C 
ATOM     12  C   UNL     1      -2.545  -2.067  24.782  0.00  0.00    +0.101 C 
ATOM     13  C   UNL     1      -3.714  -1.514  24.339  0.00  0.00    +0.041 A 
ATOM     14  C   UNL     1      -4.389  -1.114  24.085  0.00  0.00    +0.013 A 
ATOM     15  C   UNL     1      -4.405  -0.290  24.087  0.00  0.00    +0.006 A 
ATOM     16  C   UNL     1      -3.746   0.135  24.344  0.00  0.00    +0.056 A 
ATOM     17  C   UNL     1      -3.071  -0.265  24.598  0.00  0.00    +0.261 A 
ATOM     18  O   UNL     1      -2.412   0.160  24.855  0.00  0.00    -0.267 OA
ATOM     19  N   UNL     1      -3.055  -1.089  24.596  0.00  0.00    -0.299 N 
ATOM     20  C   UNL     1      -3.254  -1.723  24.514  0.00  0.00    +0.110 C 
ENDROOT
BRANCH  16  21
ATOM     21  C   UNL     1      -3.762   0.960  24.345  0.00  0.00    +0.005 A 
ATOM     22  C   UNL     1      -4.056   1.365  25.002  0.00  0.00    +0.001 A 
ATOM     23  C   UNL     1      -4.073   2.189  25.004  0.00  0.00    +0.006 A 
ATOM     24  C   UNL     1      -3.796   2.609  24.350  0.00  0.00    +0.025 A 
ATOM     27  C   UNL     1      -3.503   2.205  23.694  0.00  0.00    +0.006 A 
ATOM     28  C   UNL     1      -3.486   1.380  23.691  0.00  0.00    +0.001 A 
BRANCH  24  25
ATOM     25  S   UNL     1      -3.813   3.435  24.353  0.00  0.00    -0.113 S 
ATOM     26  C   UNL     1      -3.235   3.857  24.760  0.00  0.00    +0.074 C 
ENDBRANCH  24  25
ENDBRANCH  16  21
BRANCH   7   4
ATOM      4  S   UNL     1      -2.036  -0.659  24.990  0.00  0.00    +0.044 S 
ATOM      5  O   UNL     1      -2.328  -0.667  25.762  0.00  0.00    -0.157 OA
ATOM      6  O   UNL     1      -1.745  -0.651  24.218  0.00  0.00    -0.157 OA
BRANCH   4   3
ATOM      3  C   UNL     1      -1.885   0.150  25.056  0.00  0.00    +0.169 C 
BRANCH   3   2
ATOM      1  C   UNL     1      -0.668   0.889  25.171  0.00  0.00    +0.002 C 
ATOM      2  C   UNL     1      -1.250   0.415  25.512  0.00  0.00    +0.027 C 
ENDBRANCH   3   2
ENDBRANCH   4   3
ENDBRANCH   7   4
TORSDOF 5
ENDMDL
MODEL 3
REMARK VINA RESULT:     -12.4      1.165      2.158
REMARK  Name = 
REMARK  5 active torsions:
REMARK  status: ('A' for Active; 'I' for Inactive)
REMARK    1  A    between atoms: C_2  and  C_3
REMARK    2  A    between atoms: C_3  and  S_4
REMARK    3  A    between atoms: S_4  and  N_7
REMARK    4  A    between atoms: C_16  and  C_21
REMARK    5  A    between atoms: C_24  and  S_25
REMARK                            x       y       z     vdW  Elec       q    Type
REMARK                         _______ _______ _______ _____ _____    ______ ____
ROOT
ATOM      7  N   UNL     1      -3.623   3.388  25.190  0.00  0.00    -0.159 NA
ATOM      8  C   UNL     1      -3.387   4.170  25.364  0.00  0.00    +0.097 C 
ATOM      9  C   UNL     1      -2.407   4.045  25.393  0.00  0.00    +0.041 C 
ATOM     10  C   UNL     1      -1.597   4.108  25.451  0.00  0.00    +0.011 C 
ATOM     11  C   UNL     1      -2.070   3.606  25.322  0.00  0.00    +0.056 C 
ATOM     12  C   UNL     1      -3.015   3.743  25.297  0.00  0.00    +0.101 C 
ATOM     13  C   UNL     1      -2.136   2.709  25.133  0.00  0.00    +0.041 A 
ATOM     14  C   UNL     1      -1.665   2.042  25.022  0.00  0.00    +0.013 A 
ATOM     15  C   UNL     1      -2.014   1.314  24.853  0.00  0.00    +0.006 A 
ATOM     16  C   UNL     1      -2.835   1.253  24.795  0.00  0.00    +0.056 A 
ATOM     17  C   UNL     1      -3.306   1.921  24.906  0.00  0.00    +0.261 A 
ATOM     18  O   UNL     1      -4.127   1.860  24.847  0.00  0.00    -0.267 OA
ATOM     19  N   UNL     1      -2.957   2.649  25.075  0.00  0.00    -0.299 N 
ATOM     20  C   UNL     1      -2.486   3.108  25.196  0.00  0.00    +0.110 C 
ENDROOT
BRANCH  16  21
ATOM     21  C   UNL     1      -3.183   0.525  24.625  0.00  0.00    +0.005 A 
ATOM     22  C   UNL     1      -3.380   0.010  25.239  0.00  0.00    +0.001 A 
ATOM     23  C   UNL     1      -3.728  -0.719  25.070  0.00  0.00    +0.006 A 
ATOM     24  C   UNL     1      -3.880  -0.932  24.288  0.00  0.00    +0.025 A 
ATOM     27  C   UNL     1      -3.683  -0.417  23.674  0.00  0.00    +0.006 A 
ATOM     28  C   UNL     1      -3.335   0.312  23.843  0.00  0.00    +0.001 A 
BRANCH  24  25
ATOM     25  S   UNL     1      -4.229  -1.661  24.119  0.00  0.00    -0.113 S 
ATOM     26  C   UNL     1      -3.774  -2.348  24.137  0.00  0.00    +0.074 C 
ENDBRANCH  24  25
ENDBRANCH  16  21
BRANCH   7   4
ATOM      4  S   UNL     1      -4.126   2.753  25.031  0.00  0.00    +0.044 S 
ATOM      5  O   UNL     1      -4.076   2.916  24.223  0.00  0.00    -0.157 OA
ATOM      6  O   UNL     1      -4.175   2.590  25.839  0.00  0.00    -0.157 OA
BRANCH   4   3
ATOM      3  C   UNL     1      -4.628   2.118  24.872  0.00  0.00    +0.169 C 
BRANCH   3   2
ATOM      1  C   UNL     1      -6.022   1.931  25.129  0.00  0.00    +0.002 C 
ATOM      2  C   UNL     1      -5.416   2.256  24.671  0.00  0.00    +0.027 C 
ENDBRANCH   3   2
ENDBRANCH   4   3
ENDBRANCH   7   4
TORSDOF 5
ENDMDL
MODEL 4
REMARK VINA RESULT:     -12.3      1.657      4.143
REMARK  Name = 
REMARK  5 active torsions:
REMARK  status: ('A' for Active; 'I' for Inactive)
REMARK    1  A    between atoms: C_2  and  C_3
REMARK    2  A    between atoms: C_3  and  S_4
REMARK    3  A    between atoms: S_4  and  N_7
REMARK    4  A    between atoms: C_16  and  C_21
REMARK    5  A    between atoms: C_24  and  S_25
REMARK                            x       y       z     vdW  Elec       q    Type
REMARK                         _______ _______ _______ _____ _____    ______ ____
ROOT
ATOM      7  N   UNL     1      -3.972  -0.875  24.301  0.00  0.00    -0.159 NA
ATOM      8  C   UNL     1      -4.518  -1.491  24.156  0.00  0.00    +0.097 C 
ATOM      9  C   UNL     1      -3.916  -2.270  24.245  0.00  0.00    +0.041 C 
ATOM     10  C   UNL     1      -3.560  -3.002  24.285  0.00  0.00    +0.011 C 
ATOM     11  C   UNL     1      -3.373  -2.329  24.357  0.00  0.00    +0.056 C 
ATOM     12  C   UNL     1      -3.967  -1.587  24.267  0.00  0.00    +0.101 C 
ATOM     13  C   UNL     1      -2.644  -1.799  24.536  0.00  0.00    +0.041 A 
ATOM     14  C   UNL     1      -1.838  -1.854  24.703  0.00  0.00    +0.013 A 
ATOM     15  C   UNL     1      -1.396  -1.169  24.830  0.00  0.00    +0.006 A 
ATOM     16  C   UNL     1      -1.759  -0.430  24.789  0.00  0.00    +0.056 A 
ATOM     17  C   UNL     1      -2.565  -0.375  24.621  0.00  0.00    +0.261 A 
ATOM     18  O   UNL     1      -2.928   0.365  24.580  0.00  0.00    -0.267 OA
ATOM     19  N   UNL     1      -3.007  -1.060  24.495  0.00  0.00    -0.299 N 
ATOM     20  C   UNL     1      -3.160  -1.708  24.432  0.00  0.00    +0.110 C 
ENDROOT
BRANCH  16  21
ATOM     21  C   UNL     1      -1.316   0.254  24.915  0.00  0.00    +0.005 A 
ATOM     22  C   UNL     1      -0.944   0.627  24.280  0.00  0.00    +0.001 A 
ATOM     23  C   UNL     1      -0.501   1.312  24.405  0.00  0.00    +0.006 A 
ATOM     24  C   UNL     1      -0.430   1.623  25.166  0.00  0.00    +0.025 A 
ATOM     27  C   UNL     1      -0.801   1.250  25.801  0.00  0.00    +0.006 A 
ATOM     28  C   UNL     1      -1.245   0.565  25.675  0.00  0.00    +0.001 A 
BRANCH  24  25
ATOM     25  S   UNL     1       0.014   2.308  25.292  0.00  0.00    -0.113 S 
ATOM     26  C   UNL     1      -0.367   3.024  25.438  0.00  0.00    +0.074 C 
ENDBRANCH  24  25
ENDBRANCH  16  21
BRANCH   7   4
ATOM      4  S   UNL     1      -3.686  -0.107  24.398  0.00  0.00    +0.044 S 
ATOM      5  O   UNL     1      -3.513  -0.069  23.592  0.00  0.00    -0.157 OA
ATOM      6  O   UNL     1      -3.859  -0.145  25.204  0.00  0.00    -0.157 OA
BRANCH   4   3
ATOM      3  C   UNL     1      -3.401   0.661  24.495  0.00  0.00    +0.169 C 
BRANCH   3   2
ATOM      1  C   UNL     1      -3.930   1.935  24.122  0.00  0.00    +0.002 C 
ATOM      2  C   UNL     1      -3.926   1.283  24.628  0.00  0.00    +0.027 C 
ENDBRANCH   3   2
ENDBRANCH   4   3
ENDBRANCH   7   4
TORSDOF 5
ENDMDL
MODEL 5
REMARK VINA RESULT:     -12.1      1.618      2.424
REMARK  Name = 
REMARK  5 active torsions:
REMARK  status: ('A' for Active; 'I' for Inactive)
REMARK    1  A    between atoms: C_2  and  C_3
REMARK    2  A    between atoms: C_3  and  S_4
REMARK    3  A    between atoms: S_4  and  N_7
REMARK    4  A    between atoms: C_16  and  C_21
REMARK    5  A    between atoms: C_24  and  S_25
REMARK                            x       y       z     vdW  Elec       q    Type
REMARK                         _______ _______ _______ _____ _____    ______ ____
ROOT
ATOM      7  N   UNL     1      -4.497   3.204  25.275  0.00  0.00    -0.159 NA
ATOM      8  C   UNL     1      -5.274   3.444  25.465  0.00  0.00    +0.097 C 
ATOM      9  C   UNL     1      -5.748   2.585  25.341  0.00  0.00    +0.041 C 
ATOM     10  C   UNL     1      -6.275   1.967  25.283  0.00  0.00    +0.011 C 
ATOM     11  C   UNL     1      -5.587   2.073  25.191  0.00  0.00    +0.056 C 
ATOM     12  C   UNL     1      -5.144   2.909  25.315  0.00  0.00    +0.101 C 
ATOM     13  C   UNL     1      -4.816   1.632  24.955  0.00  0.00    +0.041 A 
ATOM     14  C   UNL     1      -4.548   0.885  24.732  0.00  0.00    +0.013 A 
ATOM     15  C   UNL     1      -3.749   0.766  24.567  0.00  0.00    +0.006 A 
ATOM     16  C   UNL     1      -3.217   1.394  24.626  0.00  0.00    +0.056 A 
ATOM     17  C   UNL     1      -3.485   2.142  24.850  0.00  0.00    +0.261 A 
ATOM     18  O   UNL     1      -2.953   2.770  24.909  0.00  0.00    -0.267 OA
ATOM     19  N   UNL     1      -4.285   2.261  25.014  0.00  0.00    -0.299 N 
ATOM     20  C   UNL     1      -4.937   2.134  25.095  0.00  0.00    +0.110 C 
ENDROOT
BRANCH  16  21
ATOM     21  C   UNL     1      -2.418   1.274  24.462  0.00  0.00    +0.005 A 
ATOM     22  C   UNL     1      -1.906   1.028  25.060  0.00  0.00    +0.001 A 
ATOM     23  C   UNL     1      -1.107   0.908  24.897  0.00  0.00    +0.006 A 
ATOM     24  C   UNL     1      -0.819   1.034  24.134  0.00  0.00    +0.025 A 
ATOM     27  C   UNL     1      -1.330   1.280  23.535  0.00  0.00    +0.006 A 
ATOM     28  C   UNL     1      -2.130   1.400  23.699  0.00  0.00    +0.001 A 
BRANCH  24  25
ATOM     25  S   UNL     1      -0.018   0.914  23.970  0.00  0.00    -0.113 S 
ATOM     26  C   UNL     1       0.225   0.222  23.594  0.00  0.00    +0.074 C 
ENDBRANCH  24  25
ENDBRANCH  16  21
BRANCH   7   4
ATOM      4  S   UNL     1      -3.683   3.260  25.150  0.00  0.00    +0.044 S 
ATOM      5  O   UNL     1      -3.818   3.448  24.358  0.00  0.00    -0.157 OA
ATOM      6  O   UNL     1      -3.548   3.071  25.942  0.00  0.00    -0.157 OA
BRANCH   4   3
ATOM      3  C   UNL     1      -2.869   3.315  25.025  0.00  0.00    +0.169 C 
BRANCH   3   2
ATOM      1  C   UNL     1      -1.913   4.284  25.462  0.00  0.00    +0.002 C 
ATOM      2  C   UNL     1      -2.514   4.055  24.944  0.00  0.00    +0.027 C 
ENDBRANCH   3   2
ENDBRANCH   4   3
ENDBRANCH   7   4
TORSDOF 5
ENDMDL
MODEL 6
REMARK VINA RESULT:     -12.0      1.154      2.474
REMARK  Name = 
REMARK  5 active torsions:
REMARK  status: ('A' for Active; 'I' for Inactive)
REMARK    1  A    between atoms: C_2  and  C_3
REMARK    2  A    between atoms: C_3  and  S_4
REMARK    3  A    between atoms: S_4  and  N_7
REMARK    4  A    between atoms: C_16  and  C_21
REMARK    5  A    between atoms: C_24  and  S_25
REMARK                            x       y       z     vdW  Elec       q    Type
REMARK                         _______ _______ _______ _____ _____    ______ ____
ROOT
ATOM      7  N   UNL     1      -5.067   1.474  25.010  0.00  0.00    -0.159 NA
ATOM      8  C   UNL     1      -5.815   1.799  25.192  0.00  0.00    +0.097 C 
ATOM      9  C   UNL     1      -5.551   2.734  25.369  0.00  0.00    +0.041 C 
ATOM     10  C   UNL     1      -5.500   3.528  25.545  0.00  0.00    +0.011 C 
ATOM     11  C   UNL     1      -5.065   3.007  25.363  0.00  0.00    +0.056 C 
ATOM     12  C   UNL     1      -5.336   2.107  25.194  0.00  0.00    +0.101 C 
ATOM     13  C   UNL     1      -4.178   2.834  25.196  0.00  0.00    +0.041 A 
ATOM     14  C   UNL     1      -3.444   3.210  25.178  0.00  0.00    +0.013 A 
ATOM     15  C   UNL     1      -2.767   2.782  24.983  0.00  0.00    +0.006 A 
ATOM     16  C   UNL     1      -2.823   1.978  24.806  0.00  0.00    +0.056 A 
ATOM     17  C   UNL     1      -3.556   1.602  24.824  0.00  0.00    +0.261 A 
ATOM     18  O   UNL     1      -3.612   0.798  24.647  0.00  0.00    -0.267 OA
ATOM     19  N   UNL     1      -4.234   2.030  25.019  0.00  0.00    -0.299 N 
ATOM     20  C   UNL     1      -4.627   2.543  25.194  0.00  0.00    +0.110 C 
ENDROOT
BRANCH  16  21
ATOM     21  C   UNL     1      -2.145   1.552  24.611  0.00  0.00    +0.005 A 
ATOM     22  C   UNL     1      -1.715   1.168  25.202  0.00  0.00    +0.001 A 
ATOM     23  C   UNL     1      -1.037   0.741  25.008  0.00  0.00    +0.006 A 
ATOM     24  C   UNL     1      -0.788   0.697  24.223  0.00  0.00    +0.025 A 
ATOM     27  C   UNL     1      -1.216   1.081  23.631  0.00  0.00    +0.006 A 
ATOM     28  C   UNL     1      -1.895   1.508  23.826  0.00  0.00    +0.001 A 
BRANCH  24  25
ATOM     25  S   UNL     1      -0.108   0.270  24.028  0.00  0.00    -0.113 S 
ATOM     26  C   UNL     1      -0.127  -0.554  24.030  0.00  0.00    +0.074 C 
ENDBRANCH  24  25
ENDBRANCH  16  21
BRANCH   7   4
ATOM      4  S   UNL     1      -4.504   0.909  24.800  0.00  0.00    +0.044 S 
ATOM      5  O   UNL     1      -4.431   0.686  25.591  0.00  0.00    -0.157 OA
ATOM      6  O   UNL     1      -4.576   1.131  24.008  0.00  0.00    -0.157 OA
BRANCH   4   3
ATOM      3  C   UNL     1      -3.940   0.343  24.589  0.00  0.00    +0.169 C 
BRANCH   3   2
ATOM      1  C   UNL     1      -4.083  -0.945  23.987  0.00  0.00    +0.002 C 
ATOM      2  C   UNL     1      -4.118  -0.459  24.654  0.00  0.00    +0.027 C 
ENDBRANCH   3   2
ENDBRANCH   4   3
ENDBRANCH   7   4
TORSDOF 5
ENDMDL
