MODEL 1
REMARK VINA RESULT:     -10.5      0.000      0.000
REMARK  Name = 
REMARK  3 active torsions:
REMARK  status: ('A' for Active; 'I' for Inactive)
REMARK    1  A    between atoms: C_2  and  C_4
REMARK    2  A    between atoms: C_4  and  N_5
REMARK    3  A    between atoms: C_8  and  C_10
REMARK                            x       y       z     vdW  Elec       q    Type
REMARK                         _______ _______ _______ _____ _____    ______ ____
ROOT
ATOM      5  N   UNL     1      -4.360   2.125  24.588  0.00  0.00    -0.272 NA
ATOM      6  C   UNL     1      -5.071   1.938  24.962  0.00  0.00    +0.073 C 
ATOM      7  C   UNL     1      -5.104   1.118  25.050  0.00  0.00    +0.025 C 
ATOM      8  C   UNL     1      -4.414   0.799  24.730  0.00  0.00    +0.064 C 
ATOM      9  C   UNL     1      -3.954   1.421  24.444  0.00  0.00    +0.079 C 
ENDROOT
BRANCH   8  10
ATOM     10  C   UNL     1      -4.217  -0.002  24.701  0.00  0.00    +0.089 A 
ATOM     11  N   UNL     1      -4.408  -0.526  24.093  0.00  0.00    -0.243 NA
ATOM     12  C   UNL     1      -4.105  -1.267  24.291  0.00  0.00    +0.087 A 
ATOM     13  C   UNL     1      -3.726  -1.201  25.021  0.00  0.00    +0.048 A 
ATOM     14  S   UNL     1      -3.796  -0.419  25.275  0.00  0.00    -0.071 S 
ATOM     15  C   UNL     1      -3.367  -1.862  25.360  0.00  0.00    +0.008 A 
ATOM     16  C   UNL     1      -3.387  -2.588  24.971  0.00  0.00    +0.001 A 
ATOM     17  C   UNL     1      -3.765  -2.654  24.241  0.00  0.00    +0.002 A 
ATOM     18  C   UNL     1      -4.125  -1.994  23.900  0.00  0.00    +0.020 A 
ENDBRANCH   8  10
BRANCH   5   4
ATOM      4  C   UNL     1      -4.101   2.883  24.391  0.00  0.00    +0.072 C 
BRANCH   4   2
ATOM      1  C   UNL     1      -3.001   3.454  25.102  0.00  0.00    +0.001 C 
ATOM      2  C   UNL     1      -3.813   3.386  24.978  0.00  0.00    +0.016 C 
ATOM      3  C   UNL     1      -4.340   3.822  25.442  0.00  0.00    +0.001 C 
ENDBRANCH   4   2
ENDBRANCH   5   4
TORSDOF 3
ENDMDL
MODEL 2
REMARK VINA RESULT:     -10.0      0.888      4.320
REMARK  Name = 
REMARK  3 active torsions:
REMARK  status: ('A' for Active; 'I' for Inactive)
REMARK    1  A    between atoms: C_2  and  C_4
REMARK    2  A    between atoms: C_4  and  N_5
REMARK    3  A    between atoms: C_8  and  C_10
REMARK                            x       y       z     vdW  Elec       q    Type
REMARK                         _______ _______ _______ _____ _____    ______ ____
ROOT
ATOM      5  N   UNL     1      -3.791  -1.150  24.916  0.00  0.00    -0.272 NA
ATOM      6  C   UNL     1      -4.016  -1.059  24.127  0.00  0.00    +0.073 C 
ATOM      7  C   UNL     1      -4.270  -0.281  24.022  0.00  0.00    +0.025 C 
ATOM      8  C   UNL     1      -4.202   0.109  24.747  0.00  0.00    +0.064 C 
ATOM      9  C   UNL     1      -3.906  -0.427  25.298  0.00  0.00    +0.079 C 
ENDROOT
BRANCH   8  10
ATOM     10  C   UNL     1      -4.396   0.898  24.892  0.00  0.00    +0.089 A 
ATOM     11  N   UNL     1      -5.080   1.168  25.265  0.00  0.00    -0.243 NA
ATOM     12  C   UNL     1      -5.046   1.991  25.294  0.00  0.00    +0.087 A 
ATOM     13  C   UNL     1      -4.341   2.230  24.939  0.00  0.00    +0.048 A 
ATOM     14  S   UNL     1      -3.939   1.555  24.691  0.00  0.00    -0.071 S 
ATOM     15  C   UNL     1      -4.157   3.033  24.888  0.00  0.00    +0.008 A 
ATOM     16  C   UNL     1      -4.677   3.596  25.191  0.00  0.00    +0.001 A 
ATOM     17  C   UNL     1      -5.382   3.357  25.546  0.00  0.00    +0.002 A 
ATOM     18  C   UNL     1      -5.567   2.555  25.598  0.00  0.00    +0.020 A 
ENDBRANCH   8  10
BRANCH   5   4
ATOM      4  C   UNL     1      -3.501  -1.840  25.262  0.00  0.00    +0.072 C 
BRANCH   4   2
ATOM      1  C   UNL     1      -2.301  -2.339  24.669  0.00  0.00    +0.001 C 
ATOM      2  C   UNL     1      -3.113  -2.402  24.799  0.00  0.00    +0.016 C 
ATOM      3  C   UNL     1      -3.537  -3.027  24.466  0.00  0.00    +0.001 C 
ENDBRANCH   4   2
ENDBRANCH   5   4
TORSDOF 3
ENDMDL
MODEL 3
REMARK VINA RESULT:      -9.6      1.531      4.610
REMARK  Name = 
REMARK  3 active torsions:
REMARK  status: ('A' for Active; 'I' for Inactive)
REMARK    1  A    between atoms: C_2  and  C_4
REMARK    2  A    between atoms: C_4  and  N_5
REMARK    3  A    between atoms: C_8  and  C_10
REMARK                            x       y       z     vdW  Elec       q    Type
REMARK                         _______ _______ _______ _____ _____    ______ ____
ROOT
ATOM      5  N   UNL     1      -3.746   0.577  24.529  0.00  0.00    -0.272 NA
ATOM      6  C   UNL     1      -3.531   0.652  23.736  0.00  0.00    +0.073 C 
ATOM      7  C   UNL     1      -3.074   1.335  23.660  0.00  0.00    +0.025 C 
ATOM      8  C   UNL     1      -3.008   1.682  24.406  0.00  0.00    +0.064 C 
ATOM      9  C   UNL     1      -3.423   1.214  24.943  0.00  0.00    +0.079 C 
ENDROOT
BRANCH   8  10
ATOM     10  C   UNL     1      -2.598   2.376  24.583  0.00  0.00    +0.089 A 
ATOM     11  N   UNL     1      -2.930   3.077  24.864  0.00  0.00    -0.243 NA
ATOM     12  C   UNL     1      -2.321   3.624  24.965  0.00  0.00    +0.087 A 
ATOM     13  C   UNL     1      -1.613   3.262  24.746  0.00  0.00    +0.048 A 
ATOM     14  S   UNL     1      -1.784   2.490  24.510  0.00  0.00    -0.071 S 
ATOM     15  C   UNL     1      -0.904   3.682  24.791  0.00  0.00    +0.008 A 
ATOM     16  C   UNL     1      -0.903   4.463  25.053  0.00  0.00    +0.001 A 
ATOM     17  C   UNL     1      -1.611   4.826  25.272  0.00  0.00    +0.002 A 
ATOM     18  C   UNL     1      -2.321   4.407  25.228  0.00  0.00    +0.020 A 
ENDBRANCH   8  10
BRANCH   5   4
ATOM      4  C   UNL     1      -4.205  -0.028  24.852  0.00  0.00    +0.072 C 
BRANCH   4   2
ATOM      1  C   UNL     1      -3.481  -1.049  25.542  0.00  0.00    +0.001 C 
ATOM      2  C   UNL     1      -3.909  -0.798  24.883  0.00  0.00    +0.016 C 
ATOM      3  C   UNL     1      -4.042  -1.316  24.255  0.00  0.00    +0.001 C 
ENDBRANCH   4   2
ENDBRANCH   5   4
TORSDOF 3
ENDMDL
