MODEL 1
REMARK VINA RESULT:     -14.4      0.000      0.000
REMARK  Name = 
REMARK  3 active torsions:
REMARK  status: ('A' for Active; 'I' for Inactive)
REMARK    1  A    between atoms: S_2  and  C_3
REMARK    2  A    between atoms: C_3  and  C_4
REMARK    3  A    between atoms: C_15  and  C_20
REMARK                            x       y       z     vdW  Elec       q    Type
REMARK                         _______ _______ _______ _____ _____    ______ ____
ROOT
ATOM      4  C   UNL     1      -2.690   1.397  24.097  0.00  0.00    +0.237 C 
ATOM      5  O   UNL     1      -3.129   0.728  24.300  0.00  0.00    -0.274 OA
ATOM      6  N   UNL     1      -3.004   2.150  24.219  0.00  0.00    -0.278 N 
ATOM      7  C   UNL     1      -3.049   2.984  24.224  0.00  0.00    +0.095 C 
ATOM      8  C   UNL     1      -3.950   3.099  24.613  0.00  0.00    +0.043 C 
ATOM      9  C   UNL     1      -4.660   3.360  24.916  0.00  0.00    +0.011 C 
ATOM     10  C   UNL     1      -4.344   2.746  24.790  0.00  0.00    +0.058 C 
ATOM     11  C   UNL     1      -3.471   2.652  24.413  0.00  0.00    +0.099 C 
ATOM     12  C   UNL     1      -4.475   1.840  24.864  0.00  0.00    +0.041 A 
ATOM     13  C   UNL     1      -5.037   1.292  25.118  0.00  0.00    +0.013 A 
ATOM     14  C   UNL     1      -4.879   0.484  25.064  0.00  0.00    +0.006 A 
ATOM     15  C   UNL     1      -4.159   0.224  24.757  0.00  0.00    +0.056 A 
ATOM     16  C   UNL     1      -3.597   0.771  24.502  0.00  0.00    +0.261 A 
ATOM     17  O   UNL     1      -2.985   0.282  24.246  0.00  0.00    -0.267 OA
ATOM     18  N   UNL     1      -3.755   1.579  24.556  0.00  0.00    -0.299 N 
ATOM     19  C   UNL     1      -4.078   2.151  24.686  0.00  0.00    +0.110 C 
ENDROOT
BRANCH  15  20
ATOM     20  C   UNL     1      -4.002  -0.584  24.704  0.00  0.00    +0.005 A 
ATOM     21  C   UNL     1      -4.203  -0.998  24.019  0.00  0.00    +0.001 A 
ATOM     22  C   UNL     1      -4.046  -1.807  23.965  0.00  0.00    +0.011 A 
ATOM     23  C   UNL     1      -3.689  -2.200  24.595  0.00  0.00    +0.058 A 
ATOM     24 CL   UNL     1      -3.532  -3.009  24.542  0.00  0.00    -0.082 Cl
ATOM     25  C   UNL     1      -3.488  -1.787  25.280  0.00  0.00    +0.011 A 
ATOM     26  C   UNL     1      -3.645  -0.978  25.334  0.00  0.00    +0.001 A 
ENDBRANCH  15  20
BRANCH   4   3
ATOM      3  C   UNL     1      -1.937   1.312  23.771  0.00  0.00    +0.143 C 
BRANCH   3   2
ATOM      1  C   UNL     1      -0.521   1.204  23.942  0.00  0.00    +0.070 C 
ATOM      2  S   UNL     1      -1.271   1.344  24.258  0.00  0.00    -0.130 S 
ENDBRANCH   3   2
ENDBRANCH   4   3
TORSDOF 3
ENDMDL
MODEL 2
REMARK VINA RESULT:     -13.4      1.807      3.636
REMARK  Name = 
REMARK  3 active torsions:
REMARK  status: ('A' for Active; 'I' for Inactive)
REMARK    1  A    between atoms: S_2  and  C_3
REMARK    2  A    between atoms: C_3  and  C_4
REMARK    3  A    between atoms: C_15  and  C_20
REMARK                            x       y       z     vdW  Elec       q    Type
REMARK                         _______ _______ _______ _____ _____    ______ ____
ROOT
ATOM      4  C   UNL     1      -1.946  -0.522  24.690  0.00  0.00    +0.237 C 
ATOM      5  O   UNL     1      -2.553   0.020  24.550  0.00  0.00    -0.274 OA
ATOM      6  N   UNL     1      -2.108  -1.331  24.690  0.00  0.00    -0.278 N 
ATOM      7  C   UNL     1      -1.970  -2.153  24.749  0.00  0.00    +0.095 C 
ATOM      8  C   UNL     1      -2.885  -2.487  24.583  0.00  0.00    +0.043 C 
ATOM      9  C   UNL     1      -3.568  -2.915  24.466  0.00  0.00    +0.011 C 
ATOM     10  C   UNL     1      -3.374  -2.240  24.478  0.00  0.00    +0.058 C 
ATOM     11  C   UNL     1      -2.485  -1.933  24.640  0.00  0.00    +0.099 C 
ATOM     12  C   UNL     1      -3.712  -1.391  24.378  0.00  0.00    +0.041 A 
ATOM     13  C   UNL     1      -4.420  -0.997  24.224  0.00  0.00    +0.013 A 
ATOM     14  C   UNL     1      -4.434  -0.173  24.189  0.00  0.00    +0.006 A 
ATOM     15  C   UNL     1      -3.740   0.257  24.308  0.00  0.00    +0.056 A 
ATOM     16  C   UNL     1      -3.032  -0.137  24.462  0.00  0.00    +0.261 A 
ATOM     17  O   UNL     1      -2.501   0.489  24.542  0.00  0.00    -0.267 OA
ATOM     18  N   UNL     1      -3.018  -0.961  24.498  0.00  0.00    -0.299 N 
ATOM     19  C   UNL     1      -3.229  -1.596  24.481  0.00  0.00    +0.110 C 
ENDROOT
BRANCH  15  20
ATOM     20  C   UNL     1      -3.756   1.081  24.273  0.00  0.00    +0.005 A 
ATOM     21  C   UNL     1      -3.953   1.518  24.944  0.00  0.00    +0.001 A 
ATOM     22  C   UNL     1      -3.969   2.342  24.910  0.00  0.00    +0.011 A 
ATOM     23  C   UNL     1      -3.787   2.729  24.205  0.00  0.00    +0.058 A 
ATOM     24 CL   UNL     1      -3.802   3.554  24.170  0.00  0.00    -0.082 Cl
ATOM     25  C   UNL     1      -3.589   2.292  23.533  0.00  0.00    +0.011 A 
ATOM     26  C   UNL     1      -3.573   1.467  23.568  0.00  0.00    +0.001 A 
ENDBRANCH  15  20
BRANCH   4   3
ATOM      3  C   UNL     1      -1.179  -0.254  24.830  0.00  0.00    +0.143 C 
BRANCH   3   2
ATOM      1  C   UNL     1       0.088   0.168  24.319  0.00  0.00    +0.070 C 
ATOM      2  S   UNL     1      -0.638  -0.210  24.208  0.00  0.00    -0.130 S 
ENDBRANCH   3   2
ENDBRANCH   4   3
TORSDOF 3
ENDMDL
MODEL 3
REMARK VINA RESULT:     -12.7      1.944      4.008
REMARK  Name = 
REMARK  3 active torsions:
REMARK  status: ('A' for Active; 'I' for Inactive)
REMARK    1  A    between atoms: S_2  and  C_3
REMARK    2  A    between atoms: C_3  and  C_4
REMARK    3  A    between atoms: C_15  and  C_20
REMARK                            x       y       z     vdW  Elec       q    Type
REMARK                         _______ _______ _______ _____ _____    ______ ____
ROOT
ATOM      4  C   UNL     1      -3.540  -0.027  24.353  0.00  0.00    +0.237 C 
ATOM      5  O   UNL     1      -2.742   0.076  24.539  0.00  0.00    -0.274 OA
ATOM      6  N   UNL     1      -3.852  -0.788  24.285  0.00  0.00    -0.278 N 
ATOM      7  C   UNL     1      -4.418  -1.389  24.157  0.00  0.00    +0.095 C 
ATOM      8  C   UNL     1      -3.847  -2.185  24.294  0.00  0.00    +0.043 C 
ATOM      9  C   UNL     1      -3.520  -2.927  24.374  0.00  0.00    +0.011 C 
ATOM     10  C   UNL     1      -3.309  -2.259  24.419  0.00  0.00    +0.058 C 
ATOM     11  C   UNL     1      -3.873  -1.500  24.284  0.00  0.00    +0.099 C 
ATOM     12  C   UNL     1      -2.564  -1.748  24.590  0.00  0.00    +0.041 A 
ATOM     13  C   UNL     1      -1.764  -1.825  24.777  0.00  0.00    +0.013 A 
ATOM     14  C   UNL     1      -1.299  -1.152  24.881  0.00  0.00    +0.006 A 
ATOM     15  C   UNL     1      -1.634  -0.402  24.799  0.00  0.00    +0.056 A 
ATOM     16  C   UNL     1      -2.434  -0.325  24.613  0.00  0.00    +0.261 A 
ATOM     17  O   UNL     1      -2.526   0.494  24.586  0.00  0.00    -0.267 OA
ATOM     18  N   UNL     1      -2.899  -0.999  24.508  0.00  0.00    -0.299 N 
ATOM     19  C   UNL     1      -3.075  -1.643  24.471  0.00  0.00    +0.110 C 
ENDROOT
BRANCH  15  20
ATOM     20  C   UNL     1      -1.168   0.270  24.904  0.00  0.00    +0.005 A 
ATOM     21  C   UNL     1      -1.103   0.614  25.651  0.00  0.00    +0.001 A 
ATOM     22  C   UNL     1      -0.638   1.287  25.757  0.00  0.00    +0.011 A 
ATOM     23  C   UNL     1      -0.237   1.616  25.115  0.00  0.00    +0.058 A 
ATOM     24 CL   UNL     1       0.229   2.289  25.221  0.00  0.00    -0.082 Cl
ATOM     25  C   UNL     1      -0.301   1.273  24.368  0.00  0.00    +0.011 A 
ATOM     26  C   UNL     1      -0.767   0.599  24.262  0.00  0.00    +0.001 A 
ENDBRANCH  15  20
BRANCH   4   3
ATOM      3  C   UNL     1      -4.025   0.630  24.237  0.00  0.00    +0.143 C 
BRANCH   3   2
ATOM      1  C   UNL     1      -4.923   1.611  24.759  0.00  0.00    +0.070 C 
ATOM      2  S   UNL     1      -4.479   0.923  24.861  0.00  0.00    -0.130 S 
ENDBRANCH   3   2
ENDBRANCH   4   3
TORSDOF 3
ENDMDL
MODEL 4
REMARK VINA RESULT:     -12.7      1.282      2.253
REMARK  Name = 
REMARK  3 active torsions:
REMARK  status: ('A' for Active; 'I' for Inactive)
REMARK    1  A    between atoms: S_2  and  C_3
REMARK    2  A    between atoms: C_3  and  C_4
REMARK    3  A    between atoms: C_15  and  C_20
REMARK                            x       y       z     vdW  Elec       q    Type
REMARK                         _______ _______ _______ _____ _____    ______ ____
ROOT
ATOM      4  C   UNL     1      -4.357   1.978  24.807  0.00  0.00    +0.237 C 
ATOM      5  O   UNL     1      -3.990   1.242  24.743  0.00  0.00    -0.274 OA
ATOM      6  N   UNL     1      -3.902   2.658  24.918  0.00  0.00    -0.278 N 
ATOM      7  C   UNL     1      -3.724   3.467  25.027  0.00  0.00    +0.095 C 
ATOM      8  C   UNL     1      -2.739   3.412  25.086  0.00  0.00    +0.043 C 
ATOM      9  C   UNL     1      -1.937   3.536  25.155  0.00  0.00    +0.011 C 
ATOM     10  C   UNL     1      -2.372   2.993  25.061  0.00  0.00    +0.058 C 
ATOM     11  C   UNL     1      -3.323   3.062  25.005  0.00  0.00    +0.099 C 
ATOM     12  C   UNL     1      -2.373   2.081  24.952  0.00  0.00    +0.041 A 
ATOM     13  C   UNL     1      -1.855   1.440  24.910  0.00  0.00    +0.013 A 
ATOM     14  C   UNL     1      -2.150   0.678  24.799  0.00  0.00    +0.006 A 
ATOM     15  C   UNL     1      -2.963   0.556  24.730  0.00  0.00    +0.056 A 
ATOM     16  C   UNL     1      -3.481   1.197  24.772  0.00  0.00    +0.261 A 
ATOM     17  O   UNL     1      -4.215   0.831  24.679  0.00  0.00    -0.267 OA
ATOM     18  N   UNL     1      -3.186   1.959  24.883  0.00  0.00    -0.299 N 
ATOM     19  C   UNL     1      -2.750   2.459  24.972  0.00  0.00    +0.110 C 
ENDROOT
BRANCH  15  20
ATOM     20  C   UNL     1      -3.258  -0.206  24.619  0.00  0.00    +0.005 A 
ATOM     21  C   UNL     1      -3.365  -0.705  25.268  0.00  0.00    +0.001 A 
ATOM     22  C   UNL     1      -3.659  -1.467  25.158  0.00  0.00    +0.011 A 
ATOM     23  C   UNL     1      -3.847  -1.731  24.400  0.00  0.00    +0.058 A 
ATOM     24 CL   UNL     1      -4.141  -2.495  24.289  0.00  0.00    -0.082 Cl
ATOM     25  C   UNL     1      -3.740  -1.234  23.751  0.00  0.00    +0.011 A 
ATOM     26  C   UNL     1      -3.445  -0.470  23.861  0.00  0.00    +0.001 A 
ENDBRANCH  15  20
BRANCH   4   3
ATOM      3  C   UNL     1      -5.179   2.035  24.758  0.00  0.00    +0.143 C 
BRANCH   3   2
ATOM      1  C   UNL     1      -6.457   2.047  25.399  0.00  0.00    +0.070 C 
ATOM      2  S   UNL     1      -5.633   2.041  25.448  0.00  0.00    -0.130 S 
ENDBRANCH   3   2
ENDBRANCH   4   3
TORSDOF 3
ENDMDL
MODEL 5
REMARK VINA RESULT:     -12.6      1.459      1.868
REMARK  Name = 
REMARK  3 active torsions:
REMARK  status: ('A' for Active; 'I' for Inactive)
REMARK    1  A    between atoms: S_2  and  C_3
REMARK    2  A    between atoms: C_3  and  C_4
REMARK    3  A    between atoms: C_15  and  C_20
REMARK                            x       y       z     vdW  Elec       q    Type
REMARK                         _______ _______ _______ _____ _____    ______ ____
ROOT
ATOM      4  C   UNL     1      -3.047   2.178  24.789  0.00  0.00    +0.237 C 
ATOM      5  O   UNL     1      -2.871   1.377  24.888  0.00  0.00    -0.274 OA
ATOM      6  N   UNL     1      -3.833   2.428  24.772  0.00  0.00    -0.278 N 
ATOM      7  C   UNL     1      -4.484   2.949  24.717  0.00  0.00    +0.095 C 
ATOM      8  C   UNL     1      -5.223   2.302  24.815  0.00  0.00    +0.043 C 
ATOM      9  C   UNL     1      -5.932   1.905  24.880  0.00  0.00    +0.011 C 
ATOM     10  C   UNL     1      -5.248   1.749  24.887  0.00  0.00    +0.058 C 
ATOM     11  C   UNL     1      -4.544   2.387  24.791  0.00  0.00    +0.099 C 
ATOM     12  C   UNL     1      -4.671   1.038  24.968  0.00  0.00    +0.041 A 
ATOM     13  C   UNL     1      -4.674   0.220  25.073  0.00  0.00    +0.013 A 
ATOM     14  C   UNL     1      -3.961  -0.193  25.113  0.00  0.00    +0.006 A 
ATOM     15  C   UNL     1      -3.245   0.212  25.046  0.00  0.00    +0.056 A 
ATOM     16  C   UNL     1      -3.242   1.030  24.941  0.00  0.00    +0.261 A 
ATOM     17  O   UNL     1      -2.435   1.195  24.903  0.00  0.00    -0.267 OA
ATOM     18  N   UNL     1      -3.955   1.443  24.901  0.00  0.00    -0.299 N 
ATOM     19  C   UNL     1      -4.614   1.565  24.898  0.00  0.00    +0.110 C 
ENDROOT
BRANCH  15  20
ATOM     20  C   UNL     1      -2.533  -0.202  25.086  0.00  0.00    +0.005 A 
ATOM     21  C   UNL     1      -2.175  -0.337  25.817  0.00  0.00    +0.001 A 
ATOM     22  C   UNL     1      -1.463  -0.751  25.857  0.00  0.00    +0.011 A 
ATOM     23  C   UNL     1      -1.108  -1.029  25.167  0.00  0.00    +0.058 A 
ATOM     24 CL   UNL     1      -0.395  -1.444  25.207  0.00  0.00    -0.082 Cl
ATOM     25  C   UNL     1      -1.465  -0.894  24.435  0.00  0.00    +0.011 A 
ATOM     26  C   UNL     1      -2.178  -0.480  24.395  0.00  0.00    +0.001 A 
ENDBRANCH  15  20
BRANCH   4   3
ATOM      3  C   UNL     1      -2.437   2.727  24.706  0.00  0.00    +0.143 C 
BRANCH   3   2
ATOM      1  C   UNL     1      -1.551   3.688  25.284  0.00  0.00    +0.070 C 
ATOM      2  S   UNL     1      -2.186   3.166  25.358  0.00  0.00    -0.130 S 
ENDBRANCH   3   2
ENDBRANCH   4   3
TORSDOF 3
ENDMDL
MODEL 6
REMARK VINA RESULT:     -12.6      2.228      3.749
REMARK  Name = 
REMARK  3 active torsions:
REMARK  status: ('A' for Active; 'I' for Inactive)
REMARK    1  A    between atoms: S_2  and  C_3
REMARK    2  A    between atoms: C_3  and  C_4
REMARK    3  A    between atoms: C_15  and  C_20
REMARK                            x       y       z     vdW  Elec       q    Type
REMARK                         _______ _______ _______ _____ _____    ______ ____
ROOT
ATOM      4  C   UNL     1      -3.428   1.491  24.625  0.00  0.00    +0.237 C 
ATOM      5  O   UNL     1      -3.225   2.268  24.818  0.00  0.00    -0.274 OA
ATOM      6  N   UNL     1      -4.202   1.227  24.733  0.00  0.00    -0.278 N 
ATOM      7  C   UNL     1      -4.856   0.707  24.732  0.00  0.00    +0.095 C 
ATOM      8  C   UNL     1      -5.550   1.311  25.091  0.00  0.00    +0.043 C 
ATOM      9  C   UNL     1      -6.224   1.674  25.370  0.00  0.00    +0.011 C 
ATOM     10  C   UNL     1      -5.552   1.843  25.258  0.00  0.00    +0.058 C 
ATOM     11  C   UNL     1      -4.892   1.247  24.909  0.00  0.00    +0.099 C 
ATOM     12  C   UNL     1      -4.964   2.545  25.332  0.00  0.00    +0.041 A 
ATOM     13  C   UNL     1      -4.934   3.334  25.571  0.00  0.00    +0.013 A 
ATOM     14  C   UNL     1      -4.225   3.752  25.527  0.00  0.00    +0.006 A 
ATOM     15  C   UNL     1      -3.544   3.381  25.244  0.00  0.00    +0.056 A 
ATOM     16  C   UNL     1      -3.573   2.592  25.005  0.00  0.00    +0.261 A 
ATOM     17  O   UNL     1      -2.795   2.455  24.770  0.00  0.00    -0.267 OA
ATOM     18  N   UNL     1      -4.283   2.174  25.049  0.00  0.00    -0.299 N 
ATOM     19  C   UNL     1      -4.928   2.038  25.165  0.00  0.00    +0.110 C 
ENDROOT
BRANCH  15  20
ATOM     20  C   UNL     1      -2.835   3.800  25.200  0.00  0.00    +0.005 A 
ATOM     21  C   UNL     1      -2.648   4.224  24.517  0.00  0.00    +0.001 A 
ATOM     22  C   UNL     1      -1.939   4.643  24.473  0.00  0.00    +0.011 A 
ATOM     23  C   UNL     1      -1.417   4.639  25.111  0.00  0.00    +0.058 A 
ATOM     24 CL   UNL     1      -0.707   5.058  25.066  0.00  0.00    -0.082 Cl
ATOM     25  C   UNL     1      -1.603   4.215  25.794  0.00  0.00    +0.011 A 
ATOM     26  C   UNL     1      -2.313   3.796  25.838  0.00  0.00    +0.001 A 
ENDBRANCH  15  20
BRANCH   4   3
ATOM      3  C   UNL     1      -2.856   0.978  24.324  0.00  0.00    +0.143 C 
BRANCH   3   2
ATOM      1  C   UNL     1      -1.859  -0.025  24.537  0.00  0.00    +0.070 C 
ATOM      2  S   UNL     1      -2.464   0.456  24.829  0.00  0.00    -0.130 S 
ENDBRANCH   3   2
ENDBRANCH   4   3
TORSDOF 3
ENDMDL
