REMARK  Name = 
REMARK  6 active torsions:
REMARK  status: ('A' for Active; 'I' for Inactive)
REMARK    1  A    between atoms: C_2  and  N_4
REMARK    2  A    between atoms: C_13  and  C_14
REMARK    3  A    between atoms: C_14  and  C_15
REMARK    4  A    between atoms: C_15  and  C_16
REMARK    5  A    between atoms: N_18  and  C_19
REMARK    6  A    between atoms: C_19  and  C_20
REMARK                            x       y       z     vdW  Elec       q    Type
REMARK                         _______ _______ _______ _____ _____    ______ ____
ROOT
ATOM      4  N   UNL     1       0.190  -1.999   0.000  0.00  0.00    -0.267 NA
ATOM      5  C   UNL     1       0.778  -2.578   0.000  0.00  0.00    +0.074 C 
ATOM      6  C   UNL     1       1.510  -2.198   0.000  0.00  0.00    +0.035 C 
ATOM      7  C   UNL     1       1.375  -1.384   0.000  0.00  0.00    +0.083 C 
ATOM      8  C   UNL     1       0.559  -1.261   0.000  0.00  0.00    +0.151 C 
ATOM      9  C   UNL     1       0.146  -0.546   0.000  0.00  0.00    +0.257 C 
ATOM     10  O   UNL     1      -0.676  -0.608   0.000  0.00  0.00    -0.272 OA
ATOM     11  N   UNL     1       0.448   0.222   0.000  0.00  0.00    -0.203 NA
ATOM     12  C   UNL     1       1.236   0.465   0.000  0.00  0.00    +0.131 C 
ATOM     13  C   UNL     1       1.918   0.000   0.000  0.00  0.00    +0.080 C 
ATOM     25  N   UNL     1       1.980  -0.823   0.000  0.00  0.00    -0.271 NA
ATOM     26  C   UNL     1       2.747  -1.124   0.000  0.00  0.00    +0.090 C 
ENDROOT
BRANCH   4   2
ATOM      1  C   UNL     1      -0.914  -2.906   0.000  0.00  0.00    +0.017 C 
ATOM      2  C   UNL     1      -0.624  -2.134   0.000  0.00  0.00    +0.058 C 
ATOM      3  C   UNL     1      -1.148  -1.497   0.000  0.00  0.00    +0.017 C 
ENDBRANCH   4   2
BRANCH  13  14
ATOM     14  C   UNL     1       2.632   0.412   0.000  0.00  0.00    +0.027 C 
BRANCH  14  15
ATOM     15  C   UNL     1       3.347   0.000   0.000  0.00  0.00    +0.088 C 
BRANCH  15  16
ATOM     16  C   UNL     1       4.061   0.412   0.000  0.00  0.00    +0.242 C 
ATOM     17  O   UNL     1       4.061   1.238   0.000  0.00  0.00    -0.273 OA
ATOM     18  N   UNL     1       4.776   0.000   0.000  0.00  0.00    -0.200 NA
BRANCH  18  19
ATOM     19  C   UNL     1       5.490   0.412   0.000  0.00  0.00    +0.148 C 
BRANCH  19  20
ATOM     20  C   UNL     1       6.205   0.000   0.000  0.00  0.00    +0.029 A 
ATOM     21  C   UNL     1       6.958   0.336   0.000  0.00  0.00    +0.004 A 
ATOM     22  C   UNL     1       7.510  -0.278   0.000  0.00  0.00    +0.007 A 
ATOM     23  C   UNL     1       7.098  -0.992   0.000  0.00  0.00    +0.035 A 
ATOM     24  S   UNL     1       6.291  -0.821   0.000  0.00  0.00    -0.089 S 
ENDBRANCH  19  20
ENDBRANCH  18  19
ENDBRANCH  15  16
ENDBRANCH  14  15
ENDBRANCH  13  14
TORSDOF 6
