MODEL 1
REMARK VINA RESULT:      -9.0      0.000      0.000
REMARK  Name = 
REMARK  6 active torsions:
REMARK  status: ('A' for Active; 'I' for Inactive)
REMARK    1  A    between atoms: O_2  and  C_3
REMARK    2  A    between atoms: C_6  and  C_9
REMARK    3  A    between atoms: C_15  and  C_18
REMARK    4  A    between atoms: C_21  and  C_23
REMARK    5  A    between atoms: N_27  and  C_28
REMARK    6  A    between atoms: C_28  and  C_29
REMARK                            x       y       z     vdW  Elec       q    Type
REMARK                         _______ _______ _______ _____ _____    ______ ____
ROOT
ATOM      9  C   UNL     1       2.100   0.426  23.062  0.00  0.00    +0.270 C 
ATOM     10  O   UNL     1       1.641  -0.052  22.569  0.00  0.00    -0.268 OA
ATOM     11  N   UNL     1       1.734   0.954  23.581  0.00  0.00    -0.157 NA
ATOM     12  C   UNL     1       0.911   1.004  23.607  0.00  0.00    +0.155 A 
ATOM     13  N   UNL     1       0.547   1.531  24.125  0.00  0.00    -0.227 NA
ATOM     14  C   UNL     1      -0.277   1.581  24.151  0.00  0.00    +0.103 A 
ATOM     15  C   UNL     1      -0.735   1.104  23.659  0.00  0.00    +0.058 A 
ATOM     16  C   UNL     1      -0.369   0.576  23.140  0.00  0.00    +0.008 A 
ATOM     17  C   UNL     1       0.454   0.526  23.114  0.00  0.00    +0.036 A 
ENDROOT
BRANCH   9   6
ATOM      3  C   UNL     1       4.569   0.276  22.984  0.00  0.00    +0.139 A 
ATOM      4  C   UNL     1       4.125  -0.361  23.264  0.00  0.00    +0.037 A 
ATOM      5  C   UNL     1       3.302  -0.311  23.290  0.00  0.00    +0.008 A 
ATOM      6  C   UNL     1       2.923   0.376  23.036  0.00  0.00    +0.056 A 
ATOM      7  C   UNL     1       3.366   1.014  22.756  0.00  0.00    +0.008 A 
ATOM      8  C   UNL     1       4.189   0.964  22.730  0.00  0.00    +0.037 A 
BRANCH   3   2
ATOM      1  C   UNL     1       5.820   0.107  23.654  0.00  0.00    +0.252 C 
ATOM      2  O   UNL     1       5.392   0.226  22.958  0.00  0.00    -0.471 OA
ENDBRANCH   3   2
ENDBRANCH   9   6
BRANCH  15  18
ATOM     18  C   UNL     1      -1.558   1.154  23.685  0.00  0.00    +0.205 A 
ATOM     19  N   UNL     1      -2.038   1.545  23.140  0.00  0.00    -0.056 NA
ATOM     20  O   UNL     1      -2.822   1.454  23.379  0.00  0.00    -0.336 OA
ATOM     21  C   UNL     1      -2.828   1.006  24.072  0.00  0.00    +0.251 A 
ATOM     22  N   UNL     1      -2.046   0.820  24.261  0.00  0.00    -0.190 NA
BRANCH  21  23
ATOM     23  C   UNL     1      -3.496   0.783  24.500  0.00  0.00    +0.138 C 
ATOM     24  C   UNL     1      -3.995   1.290  24.917  0.00  0.00    +0.027 C 
ATOM     25  C   UNL     1      -4.591   0.834  25.261  0.00  0.00    +0.019 C 
ATOM     26  C   UNL     1      -4.459   0.046  25.057  0.00  0.00    +0.073 C 
ATOM     27  N   UNL     1      -3.783   0.014  24.586  0.00  0.00    -0.266 NA
BRANCH  27  28
ATOM     28  C   UNL     1      -3.452  -0.666  24.259  0.00  0.00    +0.072 C 
BRANCH  28  29
ATOM     29  C   UNL     1      -3.798  -1.402  24.399  0.00  0.00    +0.016 C 
ATOM     30  C   UNL     1      -4.357  -1.701  23.871  0.00  0.00    +0.001 C 
ATOM     31  C   UNL     1      -3.585  -1.838  25.065  0.00  0.00    +0.001 C 
ENDBRANCH  28  29
ENDBRANCH  27  28
ENDBRANCH  21  23
ENDBRANCH  15  18
TORSDOF 6
ENDMDL
MODEL 2
REMARK VINA RESULT:      -8.5      0.814      1.768
REMARK  Name = 
REMARK  6 active torsions:
REMARK  status: ('A' for Active; 'I' for Inactive)
REMARK    1  A    between atoms: O_2  and  C_3
REMARK    2  A    between atoms: C_6  and  C_9
REMARK    3  A    between atoms: C_15  and  C_18
REMARK    4  A    between atoms: C_21  and  C_23
REMARK    5  A    between atoms: N_27  and  C_28
REMARK    6  A    between atoms: C_28  and  C_29
REMARK                            x       y       z     vdW  Elec       q    Type
REMARK                         _______ _______ _______ _____ _____    ______ ____
ROOT
ATOM      9  C   UNL     1       1.917   0.454  23.052  0.00  0.00    +0.270 C 
ATOM     10  O   UNL     1       1.448  -0.004  22.550  0.00  0.00    -0.268 OA
ATOM     11  N   UNL     1       1.564   0.986  23.575  0.00  0.00    -0.157 NA
ATOM     12  C   UNL     1       0.743   1.061  23.596  0.00  0.00    +0.155 A 
ATOM     13  N   UNL     1       0.391   1.592  24.119  0.00  0.00    -0.227 NA
ATOM     14  C   UNL     1      -0.431   1.666  24.140  0.00  0.00    +0.103 A 
ATOM     15  C   UNL     1      -0.900   1.209  23.640  0.00  0.00    +0.058 A 
ATOM     16  C   UNL     1      -0.547   0.676  23.116  0.00  0.00    +0.008 A 
ATOM     17  C   UNL     1       0.274   0.602  23.095  0.00  0.00    +0.036 A 
ENDROOT
BRANCH   9   6
ATOM      3  C   UNL     1       4.381   0.232  22.987  0.00  0.00    +0.139 A 
ATOM      4  C   UNL     1       3.914  -0.411  23.213  0.00  0.00    +0.037 A 
ATOM      5  C   UNL     1       3.093  -0.337  23.235  0.00  0.00    +0.008 A 
ATOM      6  C   UNL     1       2.739   0.380  23.030  0.00  0.00    +0.056 A 
ATOM      7  C   UNL     1       3.204   1.023  22.804  0.00  0.00    +0.008 A 
ATOM      8  C   UNL     1       4.026   0.948  22.783  0.00  0.00    +0.037 A 
BRANCH   3   2
ATOM      1  C   UNL     1       5.636   0.173  23.668  0.00  0.00    +0.252 C 
ATOM      2  O   UNL     1       5.203   0.158  22.966  0.00  0.00    -0.471 OA
ENDBRANCH   3   2
ENDBRANCH   9   6
BRANCH  15  18
ATOM     18  C   UNL     1      -1.721   1.283  23.661  0.00  0.00    +0.205 A 
ATOM     19  N   UNL     1      -2.198   1.579  23.056  0.00  0.00    -0.056 NA
ATOM     20  O   UNL     1      -2.982   1.553  23.313  0.00  0.00    -0.336 OA
ATOM     21  C   UNL     1      -2.990   1.241  24.077  0.00  0.00    +0.251 A 
ATOM     22  N   UNL     1      -2.211   1.074  24.292  0.00  0.00    -0.190 NA
BRANCH  21  23
ATOM     23  C   UNL     1      -3.659   1.117  24.543  0.00  0.00    +0.138 C 
ATOM     24  C   UNL     1      -3.973   0.385  24.755  0.00  0.00    +0.027 C 
ATOM     25  C   UNL     1      -4.640   0.520  25.223  0.00  0.00    +0.019 C 
ATOM     26  C   UNL     1      -4.737   1.335  25.299  0.00  0.00    +0.073 C 
ATOM     27  N   UNL     1      -4.131   1.704  24.879  0.00  0.00    -0.266 NA
BRANCH  27  28
ATOM     28  C   UNL     1      -4.017   2.518  24.808  0.00  0.00    +0.072 C 
BRANCH  28  29
ATOM     29  C   UNL     1      -4.447   3.038  25.282  0.00  0.00    +0.016 C 
ATOM     30  C   UNL     1      -4.073   3.438  25.900  0.00  0.00    +0.001 C 
ATOM     31  C   UNL     1      -5.250   3.158  25.140  0.00  0.00    +0.001 C 
ENDBRANCH  28  29
ENDBRANCH  27  28
ENDBRANCH  21  23
ENDBRANCH  15  18
TORSDOF 6
ENDMDL
MODEL 3
REMARK VINA RESULT:      -7.7      1.490      2.605
REMARK  Name = 
REMARK  6 active torsions:
REMARK  status: ('A' for Active; 'I' for Inactive)
REMARK    1  A    between atoms: O_2  and  C_3
REMARK    2  A    between atoms: C_6  and  C_9
REMARK    3  A    between atoms: C_15  and  C_18
REMARK    4  A    between atoms: C_21  and  C_23
REMARK    5  A    between atoms: N_27  and  C_28
REMARK    6  A    between atoms: C_28  and  C_29
REMARK                            x       y       z     vdW  Elec       q    Type
REMARK                         _______ _______ _______ _____ _____    ______ ____
ROOT
ATOM      9  C   UNL     1       0.566   0.581  23.449  0.00  0.00    +0.270 C 
ATOM     10  O   UNL     1       0.204   1.323  23.431  0.00  0.00    -0.268 OA
ATOM     11  N   UNL     1       0.156  -0.070  23.749  0.00  0.00    -0.157 NA
ATOM     12  C   UNL     1      -0.614   0.020  24.030  0.00  0.00    +0.155 A 
ATOM     13  N   UNL     1      -1.022  -0.630  24.330  0.00  0.00    -0.227 NA
ATOM     14  C   UNL     1      -1.793  -0.540  24.611  0.00  0.00    +0.103 A 
ATOM     15  C   UNL     1      -2.155   0.201  24.593  0.00  0.00    +0.058 A 
ATOM     16  C   UNL     1      -1.745   0.853  24.293  0.00  0.00    +0.008 A 
ATOM     17  C   UNL     1      -0.975   0.762  24.012  0.00  0.00    +0.036 A 
ENDROOT
BRANCH   9   6
ATOM      3  C   UNL     1       2.876   0.310  22.605  0.00  0.00    +0.139 A 
ATOM      4  C   UNL     1       2.273  -0.177  22.321  0.00  0.00    +0.037 A 
ATOM      5  C   UNL     1       1.503  -0.087  22.603  0.00  0.00    +0.008 A 
ATOM      6  C   UNL     1       1.336   0.491  23.168  0.00  0.00    +0.056 A 
ATOM      7  C   UNL     1       1.938   0.978  23.452  0.00  0.00    +0.008 A 
ATOM      8  C   UNL     1       2.708   0.888  23.170  0.00  0.00    +0.037 A 
BRANCH   3   2
ATOM      1  C   UNL     1       4.282   0.514  22.760  0.00  0.00    +0.252 C 
ATOM      2  O   UNL     1       3.647   0.219  22.324  0.00  0.00    -0.471 OA
ENDBRANCH   3   2
ENDBRANCH   9   6
BRANCH  15  18
ATOM     18  C   UNL     1      -2.925   0.292  24.874  0.00  0.00    +0.205 A 
ATOM     19  N   UNL     1      -3.295  -0.185  25.437  0.00  0.00    -0.056 NA
ATOM     20  O   UNL     1      -4.059   0.104  25.553  0.00  0.00    -0.336 OA
ATOM     21  C   UNL     1      -4.162   0.759  25.061  0.00  0.00    +0.251 A 
ATOM     22  N   UNL     1      -3.461   0.875  24.642  0.00  0.00    -0.190 NA
BRANCH  21  23
ATOM     23  C   UNL     1      -4.845   1.217  25.000  0.00  0.00    +0.138 C 
ATOM     24  C   UNL     1      -5.597   0.941  24.804  0.00  0.00    +0.027 C 
ATOM     25  C   UNL     1      -6.113   1.585  24.807  0.00  0.00    +0.019 C 
ATOM     26  C   UNL     1      -5.679   2.258  25.005  0.00  0.00    +0.073 C 
ATOM     27  N   UNL     1      -4.896   2.031  25.124  0.00  0.00    -0.266 NA
BRANCH  27  28
ATOM     28  C   UNL     1      -4.273   2.530  25.332  0.00  0.00    +0.072 C 
BRANCH  28  29
ATOM     29  C   UNL     1      -4.391   3.345  25.368  0.00  0.00    +0.016 C 
ATOM     30  C   UNL     1      -4.230   3.815  24.708  0.00  0.00    +0.001 C 
ATOM     31  C   UNL     1      -4.671   3.691  26.061  0.00  0.00    +0.001 C 
ENDBRANCH  28  29
ENDBRANCH  27  28
ENDBRANCH  21  23
ENDBRANCH  15  18
TORSDOF 6
ENDMDL
MODEL 4
REMARK VINA RESULT:      -7.6      1.830      6.835
REMARK  Name = 
REMARK  6 active torsions:
REMARK  status: ('A' for Active; 'I' for Inactive)
REMARK    1  A    between atoms: O_2  and  C_3
REMARK    2  A    between atoms: C_6  and  C_9
REMARK    3  A    between atoms: C_15  and  C_18
REMARK    4  A    between atoms: C_21  and  C_23
REMARK    5  A    between atoms: N_27  and  C_28
REMARK    6  A    between atoms: C_28  and  C_29
REMARK                            x       y       z     vdW  Elec       q    Type
REMARK                         _______ _______ _______ _____ _____    ______ ____
ROOT
ATOM      9  C   UNL     1      -3.370   2.105  24.668  0.00  0.00    +0.270 C 
ATOM     10  O   UNL     1      -3.442   1.718  23.942  0.00  0.00    -0.268 OA
ATOM     11  N   UNL     1      -2.665   2.055  25.094  0.00  0.00    -0.157 NA
ATOM     12  C   UNL     1      -2.032   1.618  24.795  0.00  0.00    +0.155 A 
ATOM     13  N   UNL     1      -1.328   1.568  25.221  0.00  0.00    -0.227 NA
ATOM     14  C   UNL     1      -0.696   1.131  24.922  0.00  0.00    +0.103 A 
ATOM     15  C   UNL     1      -0.767   0.744  24.197  0.00  0.00    +0.058 A 
ATOM     16  C   UNL     1      -1.473   0.794  23.771  0.00  0.00    +0.008 A 
ATOM     17  C   UNL     1      -2.105   1.231  24.070  0.00  0.00    +0.036 A 
ENDROOT
BRANCH   9   6
ATOM      3  C   UNL     1      -5.268   3.417  25.565  0.00  0.00    +0.139 A 
ATOM      4  C   UNL     1      -5.358   2.610  25.414  0.00  0.00    +0.037 A 
ATOM      5  C   UNL     1      -4.726   2.173  25.115  0.00  0.00    +0.008 A 
ATOM      6  C   UNL     1      -4.003   2.542  24.967  0.00  0.00    +0.056 A 
ATOM      7  C   UNL     1      -3.912   3.349  25.117  0.00  0.00    +0.008 A 
ATOM      8  C   UNL     1      -4.544   3.786  25.416  0.00  0.00    +0.037 A 
BRANCH   3   2
ATOM      1  C   UNL     1      -6.085   4.589  25.536  0.00  0.00    +0.252 C 
ATOM      2  O   UNL     1      -5.900   3.854  25.864  0.00  0.00    -0.471 OA
ENDBRANCH   3   2
ENDBRANCH   9   6
BRANCH  15  18
ATOM     18  C   UNL     1      -0.135   0.306  23.898  0.00  0.00    +0.205 A 
ATOM     19  N   UNL     1       0.219  -0.345  24.259  0.00  0.00    -0.056 NA
ATOM     20  O   UNL     1       0.828  -0.610  23.769  0.00  0.00    -0.336 OA
ATOM     21  C   UNL     1       0.851  -0.122  23.105  0.00  0.00    +0.251 A 
ATOM     22  N   UNL     1       0.256   0.445  23.184  0.00  0.00    -0.190 NA
BRANCH  21  23
ATOM     23  C   UNL     1       1.376  -0.189  22.472  0.00  0.00    +0.138 C 
ATOM     24  C   UNL     1       1.205  -0.514  21.734  0.00  0.00    +0.027 C 
ATOM     25  C   UNL     1       1.888  -0.468  21.272  0.00  0.00    +0.019 C 
ATOM     26  C   UNL     1       2.479  -0.114  21.725  0.00  0.00    +0.073 C 
ATOM     27  N   UNL     1       2.163   0.058  22.467  0.00  0.00    -0.266 NA
BRANCH  27  28
ATOM     28  C   UNL     1       2.563   0.415  23.093  0.00  0.00    +0.072 C 
BRANCH  28  29
ATOM     29  C   UNL     1       3.359   0.614  23.014  0.00  0.00    +0.016 C 
ATOM     30  C   UNL     1       3.943   0.057  23.188  0.00  0.00    +0.001 C 
ATOM     31  C   UNL     1       3.573   1.369  22.761  0.00  0.00    +0.001 C 
ENDBRANCH  28  29
ENDBRANCH  27  28
ENDBRANCH  21  23
ENDBRANCH  15  18
TORSDOF 6
ENDMDL
MODEL 5
REMARK VINA RESULT:      -7.4      1.258      6.811
REMARK  Name = 
REMARK  6 active torsions:
REMARK  status: ('A' for Active; 'I' for Inactive)
REMARK    1  A    between atoms: O_2  and  C_3
REMARK    2  A    between atoms: C_6  and  C_9
REMARK    3  A    between atoms: C_15  and  C_18
REMARK    4  A    between atoms: C_21  and  C_23
REMARK    5  A    between atoms: N_27  and  C_28
REMARK    6  A    between atoms: C_28  and  C_29
REMARK                            x       y       z     vdW  Elec       q    Type
REMARK                         _______ _______ _______ _____ _____    ______ ____
ROOT
ATOM      9  C   UNL     1      -2.232   1.136  24.144  0.00  0.00    +0.270 C 
ATOM     10  O   UNL     1      -1.936   1.692  23.610  0.00  0.00    -0.268 OA
ATOM     11  N   UNL     1      -1.776   0.479  24.350  0.00  0.00    -0.157 NA
ATOM     12  C   UNL     1      -1.026   0.378  24.023  0.00  0.00    +0.155 A 
ATOM     13  N   UNL     1      -0.572  -0.279  24.229  0.00  0.00    -0.227 NA
ATOM     14  C   UNL     1       0.179  -0.380  23.902  0.00  0.00    +0.103 A 
ATOM     15  C   UNL     1       0.475   0.175  23.368  0.00  0.00    +0.058 A 
ATOM     16  C   UNL     1       0.020   0.832  23.162  0.00  0.00    +0.008 A 
ATOM     17  C   UNL     1      -0.731   0.933  23.489  0.00  0.00    +0.036 A 
ENDROOT
BRANCH   9   6
ATOM      3  C   UNL     1      -4.483   1.440  25.126  0.00  0.00    +0.139 A 
ATOM      4  C   UNL     1      -4.227   0.687  24.905  0.00  0.00    +0.037 A 
ATOM      5  C   UNL     1      -3.477   0.585  24.577  0.00  0.00    +0.008 A 
ATOM      6  C   UNL     1      -2.982   1.237  24.471  0.00  0.00    +0.056 A 
ATOM      7  C   UNL     1      -3.237   1.990  24.692  0.00  0.00    +0.008 A 
ATOM      8  C   UNL     1      -3.988   2.092  25.020  0.00  0.00    +0.037 A 
BRANCH   3   2
ATOM      1  C   UNL     1      -5.822   1.927  25.023  0.00  0.00    +0.252 C 
ATOM      2  O   UNL     1      -5.234   1.541  25.453  0.00  0.00    -0.471 OA
ENDBRANCH   3   2
ENDBRANCH   9   6
BRANCH  15  18
ATOM     18  C   UNL     1       1.225   0.074  23.041  0.00  0.00    +0.205 A 
ATOM     19  N   UNL     1       1.426  -0.459  22.444  0.00  0.00    -0.056 NA
ATOM     20  O   UNL     1       2.232  -0.375  22.287  0.00  0.00    -0.336 OA
ATOM     21  C   UNL     1       2.529   0.210  22.787  0.00  0.00    +0.251 A 
ATOM     22  N   UNL     1       1.907   0.488  23.253  0.00  0.00    -0.190 NA
BRANCH  21  23
ATOM     23  C   UNL     1       3.311   0.472  22.816  0.00  0.00    +0.138 C 
ATOM     24  C   UNL     1       3.594   1.186  22.515  0.00  0.00    +0.027 C 
ATOM     25  C   UNL     1       4.405   1.221  22.665  0.00  0.00    +0.019 C 
ATOM     26  C   UNL     1       4.622   0.530  23.058  0.00  0.00    +0.073 C 
ATOM     27  N   UNL     1       3.946   0.067  23.152  0.00  0.00    -0.266 NA
BRANCH  27  28
ATOM     28  C   UNL     1       3.912  -0.671  23.518  0.00  0.00    +0.072 C 
BRANCH  28  29
ATOM     29  C   UNL     1       4.593  -1.003  23.842  0.00  0.00    +0.016 C 
ATOM     30  C   UNL     1       4.708  -1.820  23.814  0.00  0.00    +0.001 C 
ATOM     31  C   UNL     1       5.160  -0.519  24.195  0.00  0.00    +0.001 C 
ENDBRANCH  28  29
ENDBRANCH  27  28
ENDBRANCH  21  23
ENDBRANCH  15  18
TORSDOF 6
ENDMDL
MODEL 6
REMARK VINA RESULT:      -7.3      2.102      2.953
REMARK  Name = 
REMARK  6 active torsions:
REMARK  status: ('A' for Active; 'I' for Inactive)
REMARK    1  A    between atoms: O_2  and  C_3
REMARK    2  A    between atoms: C_6  and  C_9
REMARK    3  A    between atoms: C_15  and  C_18
REMARK    4  A    between atoms: C_21  and  C_23
REMARK    5  A    between atoms: N_27  and  C_28
REMARK    6  A    between atoms: C_28  and  C_29
REMARK                            x       y       z     vdW  Elec       q    Type
REMARK                         _______ _______ _______ _____ _____    ______ ____
ROOT
ATOM      9  C   UNL     1       0.319   1.132  23.846  0.00  0.00    +0.270 C 
ATOM     10  O   UNL     1      -0.244   0.619  24.164  0.00  0.00    -0.268 OA
ATOM     11  N   UNL     1       0.213   1.949  23.906  0.00  0.00    -0.157 NA
ATOM     12  C   UNL     1      -0.454   2.252  24.285  0.00  0.00    +0.155 A 
ATOM     13  N   UNL     1      -0.559   3.067  24.345  0.00  0.00    -0.227 NA
ATOM     14  C   UNL     1      -1.227   3.370  24.724  0.00  0.00    +0.103 A 
ATOM     15  C   UNL     1      -1.789   2.858  25.042  0.00  0.00    +0.058 A 
ATOM     16  C   UNL     1      -1.683   2.041  24.982  0.00  0.00    +0.008 A 
ATOM     17  C   UNL     1      -1.016   1.738  24.603  0.00  0.00    +0.036 A 
ENDROOT
BRANCH   9   6
ATOM      3  C   UNL     1       2.321   0.223  22.710  0.00  0.00    +0.139 A 
ATOM      4  C   UNL     1       2.387   0.889  23.193  0.00  0.00    +0.037 A 
ATOM      5  C   UNL     1       1.720   1.192  23.572  0.00  0.00    +0.008 A 
ATOM      6  C   UNL     1       0.986   0.829  23.467  0.00  0.00    +0.056 A 
ATOM      7  C   UNL     1       0.919   0.163  22.984  0.00  0.00    +0.008 A 
ATOM      8  C   UNL     1       1.587  -0.140  22.605  0.00  0.00    +0.037 A 
BRANCH   3   2
ATOM      1  C   UNL     1       3.717   0.300  22.413  0.00  0.00    +0.252 C 
ATOM      2  O   UNL     1       2.988  -0.080  22.331  0.00  0.00    -0.471 OA
ENDBRANCH   3   2
ENDBRANCH   9   6
BRANCH  15  18
ATOM     18  C   UNL     1      -2.456   3.160  25.421  0.00  0.00    +0.205 A 
ATOM     19  N   UNL     1      -2.487   3.450  26.193  0.00  0.00    -0.056 NA
ATOM     20  O   UNL     1      -3.260   3.695  26.343  0.00  0.00    -0.336 OA
ATOM     21  C   UNL     1      -3.708   3.558  25.664  0.00  0.00    +0.251 A 
ATOM     22  N   UNL     1      -3.211   3.227  25.094  0.00  0.00    -0.190 NA
BRANCH  21  23
ATOM     23  C   UNL     1      -4.511   3.722  25.571  0.00  0.00    +0.138 C 
ATOM     24  C   UNL     1      -4.843   4.469  25.465  0.00  0.00    +0.027 C 
ATOM     25  C   UNL     1      -5.660   4.377  25.396  0.00  0.00    +0.019 C 
ATOM     26  C   UNL     1      -5.832   3.573  25.460  0.00  0.00    +0.073 C 
ATOM     27  N   UNL     1      -5.122   3.168  25.568  0.00  0.00    -0.266 NA
BRANCH  27  28
ATOM     28  C   UNL     1      -5.038   2.353  25.658  0.00  0.00    +0.072 C 
BRANCH  28  29
ATOM     29  C   UNL     1      -5.697   1.861  25.597  0.00  0.00    +0.016 C 
ATOM     30  C   UNL     1      -5.909   1.545  24.864  0.00  0.00    +0.001 C 
ATOM     31  C   UNL     1      -6.143   1.684  26.267  0.00  0.00    +0.001 C 
ENDBRANCH  28  29
ENDBRANCH  27  28
ENDBRANCH  21  23
ENDBRANCH  15  18
TORSDOF 6
ENDMDL
