MODEL 1
REMARK VINA RESULT:     -14.9      0.000      0.000
REMARK  Name = 
REMARK  4 active torsions:
REMARK  status: ('A' for Active; 'I' for Inactive)
REMARK    1  A    between atoms: O_2  and  C_3
REMARK    2  A    between atoms: C_6  and  C_9
REMARK    3  A    between atoms: N_17  and  S_19
REMARK    4  A    between atoms: S_19  and  C_22
REMARK                            x       y       z     vdW  Elec       q    Type
REMARK                         _______ _______ _______ _____ _____    ______ ____
ROOT
ATOM      9  C   UNL     1      -4.406   0.818  24.964  0.00  0.00    +0.056 A 
ATOM     10  C   UNL     1      -5.197   0.903  25.184  0.00  0.00    +0.006 A 
ATOM     11  C   UNL     1      -5.506   1.654  25.329  0.00  0.00    +0.013 A 
ATOM     12  C   UNL     1      -5.024   2.319  25.255  0.00  0.00    +0.041 A 
ATOM     13  C   UNL     1      -5.053   3.234  25.339  0.00  0.00    +0.056 C 
ATOM     14  C   UNL     1      -5.490   3.759  25.501  0.00  0.00    +0.011 C 
ATOM     15  C   UNL     1      -4.710   3.671  25.283  0.00  0.00    +0.041 C 
ATOM     16  C   UNL     1      -3.759   3.769  25.036  0.00  0.00    +0.098 C 
ATOM     17  N   UNL     1      -3.561   2.967  24.916  0.00  0.00    -0.155 NA
ATOM     18  C   UNL     1      -4.134   3.346  25.101  0.00  0.00    +0.102 C 
ATOM     29  C   UNL     1      -4.670   2.716  25.193  0.00  0.00    +0.110 C 
ATOM     30  N   UNL     1      -4.233   2.234  25.035  0.00  0.00    -0.299 N 
ATOM     31  C   UNL     1      -3.924   1.483  24.890  0.00  0.00    +0.261 A 
ATOM     32  O   UNL     1      -3.133   1.398  24.670  0.00  0.00    -0.267 OA
ENDROOT
BRANCH   9   6
ATOM      3  C   UNL     1      -3.481  -1.436  24.530  0.00  0.00    +0.139 A 
ATOM      4  C   UNL     1      -3.816  -1.002  23.913  0.00  0.00    +0.037 A 
ATOM      5  C   UNL     1      -4.125  -0.250  24.058  0.00  0.00    +0.003 A 
ATOM      6  C   UNL     1      -4.098   0.067  24.819  0.00  0.00    +0.005 A 
ATOM      7  C   UNL     1      -3.762  -0.367  25.435  0.00  0.00    +0.003 A 
ATOM      8  C   UNL     1      -3.454  -1.119  25.291  0.00  0.00    +0.037 A 
BRANCH   3   2
ATOM      1  C   UNL     1      -3.599  -2.857  24.605  0.00  0.00    +0.252 C 
ATOM      2  O   UNL     1      -3.172  -2.188  24.385  0.00  0.00    -0.471 OA
ENDBRANCH   3   2
ENDBRANCH   9   6
BRANCH  17  19
ATOM     19  S   UNL     1      -3.100   2.306  24.737  0.00  0.00    +0.063 S 
ATOM     20  O   UNL     1      -2.879   2.245  25.530  0.00  0.00    -0.153 OA
ATOM     21  O   UNL     1      -3.321   2.366  23.944  0.00  0.00    -0.153 OA
BRANCH  19  22
ATOM     22  C   UNL     1      -2.639   1.645  24.558  0.00  0.00    +0.122 A 
ATOM     23  C   UNL     1      -2.595   1.371  23.781  0.00  0.00    +0.022 A 
ATOM     24  C   UNL     1      -2.134   0.711  23.602  0.00  0.00    +0.031 A 
ATOM     25  C   UNL     1      -1.718   0.324  24.200  0.00  0.00    +0.140 A 
ATOM     26  F   UNL     1      -1.257  -0.336  24.021  0.00  0.00    -0.204 F 
ATOM     27  C   UNL     1      -1.762   0.598  24.977  0.00  0.00    +0.031 A 
ATOM     28  C   UNL     1      -2.223   1.259  25.156  0.00  0.00    +0.022 A 
ENDBRANCH  19  22
ENDBRANCH  17  19
TORSDOF 4
ENDMDL
MODEL 2
REMARK VINA RESULT:     -14.5      1.687      3.928
REMARK  Name = 
REMARK  4 active torsions:
REMARK  status: ('A' for Active; 'I' for Inactive)
REMARK    1  A    between atoms: O_2  and  C_3
REMARK    2  A    between atoms: C_6  and  C_9
REMARK    3  A    between atoms: N_17  and  S_19
REMARK    4  A    between atoms: S_19  and  C_22
REMARK                            x       y       z     vdW  Elec       q    Type
REMARK                         _______ _______ _______ _____ _____    ______ ____
ROOT
ATOM      9  C   UNL     1      -3.484   0.162  24.294  0.00  0.00    +0.056 A 
ATOM     10  C   UNL     1      -4.205  -0.206  24.132  0.00  0.00    +0.006 A 
ATOM     11  C   UNL     1      -4.267  -1.027  24.170  0.00  0.00    +0.013 A 
ATOM     12  C   UNL     1      -3.608  -1.482  24.369  0.00  0.00    +0.041 A 
ATOM     13  C   UNL     1      -3.356  -2.357  24.490  0.00  0.00    +0.056 C 
ATOM     14  C   UNL     1      -3.608  -3.011  24.468  0.00  0.00    +0.011 C 
ATOM     15  C   UNL     1      -2.898  -2.645  24.627  0.00  0.00    +0.041 C 
ATOM     16  C   UNL     1      -1.969  -2.394  24.850  0.00  0.00    +0.098 C 
ATOM     17  N   UNL     1      -2.028  -1.564  24.781  0.00  0.00    -0.155 NA
ATOM     18  C   UNL     1      -2.454  -2.130  24.708  0.00  0.00    +0.102 C 
ATOM     29  C   UNL     1      -3.153  -1.728  24.502  0.00  0.00    +0.110 C 
ATOM     30  N   UNL     1      -2.887  -1.115  24.531  0.00  0.00    -0.299 N 
ATOM     31  C   UNL     1      -2.825  -0.293  24.493  0.00  0.00    +0.261 A 
ATOM     32  O   UNL     1      -2.104   0.074  24.655  0.00  0.00    -0.267 OA
ENDROOT
BRANCH   9   6
ATOM      3  C   UNL     1      -3.301   2.627  24.184  0.00  0.00    +0.139 A 
ATOM      4  C   UNL     1      -3.147   2.172  23.513  0.00  0.00    +0.037 A 
ATOM      5  C   UNL     1      -3.208   1.349  23.550  0.00  0.00    +0.003 A 
ATOM      6  C   UNL     1      -3.423   0.983  24.257  0.00  0.00    +0.005 A 
ATOM      7  C   UNL     1      -3.576   1.439  24.927  0.00  0.00    +0.003 A 
ATOM      8  C   UNL     1      -3.515   2.261  24.891  0.00  0.00    +0.037 A 
BRANCH   3   2
ATOM      1  C   UNL     1      -3.856   3.921  24.424  0.00  0.00    +0.252 C 
ATOM      2  O   UNL     1      -3.239   3.450  24.147  0.00  0.00    -0.471 OA
ENDBRANCH   3   2
ENDBRANCH   9   6
BRANCH  17  19
ATOM     19  S   UNL     1      -1.795  -0.772  24.790  0.00  0.00    +0.063 S 
ATOM     20  O   UNL     1      -1.581  -0.826  23.995  0.00  0.00    -0.153 OA
ATOM     21  O   UNL     1      -2.009  -0.718  25.585  0.00  0.00    -0.153 OA
BRANCH  19  22
ATOM     22  C   UNL     1      -1.561   0.020  24.799  0.00  0.00    +0.122 A 
ATOM     23  C   UNL     1      -1.619   0.458  25.494  0.00  0.00    +0.022 A 
ATOM     24  C   UNL     1      -1.385   1.250  25.503  0.00  0.00    +0.031 A 
ATOM     25  C   UNL     1      -1.095   1.602  24.816  0.00  0.00    +0.140 A 
ATOM     26  F   UNL     1      -0.862   2.393  24.825  0.00  0.00    -0.204 F 
ATOM     27  C   UNL     1      -1.038   1.163  24.120  0.00  0.00    +0.031 A 
ATOM     28  C   UNL     1      -1.271   0.371  24.111  0.00  0.00    +0.022 A 
ENDBRANCH  19  22
ENDBRANCH  17  19
TORSDOF 4
ENDMDL
MODEL 3
REMARK VINA RESULT:     -14.4      1.659      2.771
REMARK  Name = 
REMARK  4 active torsions:
REMARK  status: ('A' for Active; 'I' for Inactive)
REMARK    1  A    between atoms: O_2  and  C_3
REMARK    2  A    between atoms: C_6  and  C_9
REMARK    3  A    between atoms: N_17  and  S_19
REMARK    4  A    between atoms: S_19  and  C_22
REMARK                            x       y       z     vdW  Elec       q    Type
REMARK                         _______ _______ _______ _____ _____    ______ ____
ROOT
ATOM      9  C   UNL     1      -2.434   1.820  24.691  0.00  0.00    +0.056 A 
ATOM     10  C   UNL     1      -1.616   1.714  24.656  0.00  0.00    +0.006 A 
ATOM     11  C   UNL     1      -1.111   2.356  24.773  0.00  0.00    +0.013 A 
ATOM     12  C   UNL     1      -1.424   3.104  24.926  0.00  0.00    +0.041 A 
ATOM     13  C   UNL     1      -1.159   3.968  25.091  0.00  0.00    +0.056 C 
ATOM     14  C   UNL     1      -0.583   4.364  25.158  0.00  0.00    +0.011 C 
ATOM     15  C   UNL     1      -1.391   4.465  25.193  0.00  0.00    +0.041 C 
ATOM     16  C   UNL     1      -2.323   4.784  25.272  0.00  0.00    +0.098 C 
ATOM     17  N   UNL     1      -2.729   4.067  25.138  0.00  0.00    -0.155 NA
ATOM     18  C   UNL     1      -2.054   4.292  25.170  0.00  0.00    +0.102 C 
ATOM     29  C   UNL     1      -1.677   3.565  25.021  0.00  0.00    +0.110 C 
ATOM     30  N   UNL     1      -2.242   3.210  24.961  0.00  0.00    -0.299 N 
ATOM     31  C   UNL     1      -2.746   2.568  24.844  0.00  0.00    +0.261 A 
ATOM     32  O   UNL     1      -3.564   2.674  24.879  0.00  0.00    -0.267 OA
ENDROOT
BRANCH   9   6
ATOM      3  C   UNL     1      -3.945  -0.107  24.338  0.00  0.00    +0.139 A 
ATOM      4  C   UNL     1      -3.683   0.077  25.098  0.00  0.00    +0.037 A 
ATOM      5  C   UNL     1      -3.179   0.720  25.216  0.00  0.00    +0.003 A 
ATOM      6  C   UNL     1      -2.937   1.178  24.574  0.00  0.00    +0.005 A 
ATOM      7  C   UNL     1      -3.200   0.994  23.814  0.00  0.00    +0.003 A 
ATOM      8  C   UNL     1      -3.704   0.352  23.696  0.00  0.00    +0.037 A 
BRANCH   3   2
ATOM      1  C   UNL     1      -4.139  -1.509  24.151  0.00  0.00    +0.252 C 
ATOM      2  O   UNL     1      -4.450  -0.750  24.220  0.00  0.00    -0.471 OA
ENDBRANCH   3   2
ENDBRANCH   9   6
BRANCH  17  19
ATOM     19  S   UNL     1      -3.363   3.547  25.047  0.00  0.00    +0.063 S 
ATOM     20  O   UNL     1      -3.351   3.390  25.858  0.00  0.00    -0.153 OA
ATOM     21  O   UNL     1      -3.375   3.703  24.237  0.00  0.00    -0.153 OA
BRANCH  19  22
ATOM     22  C   UNL     1      -3.997   3.026  24.956  0.00  0.00    +0.122 A 
ATOM     23  C   UNL     1      -4.313   2.888  24.207  0.00  0.00    +0.022 A 
ATOM     24  C   UNL     1      -4.947   2.368  24.116  0.00  0.00    +0.031 A 
ATOM     25  C   UNL     1      -5.265   1.987  24.775  0.00  0.00    +0.140 A 
ATOM     26  F   UNL     1      -5.900   1.467  24.684  0.00  0.00    -0.204 F 
ATOM     27  C   UNL     1      -4.950   2.125  25.524  0.00  0.00    +0.031 A 
ATOM     28  C   UNL     1      -4.315   2.645  25.615  0.00  0.00    +0.022 A 
ENDBRANCH  19  22
ENDBRANCH  17  19
TORSDOF 4
ENDMDL
MODEL 4
REMARK VINA RESULT:     -14.4      1.946      3.019
REMARK  Name = 
REMARK  4 active torsions:
REMARK  status: ('A' for Active; 'I' for Inactive)
REMARK    1  A    between atoms: O_2  and  C_3
REMARK    2  A    between atoms: C_6  and  C_9
REMARK    3  A    between atoms: N_17  and  S_19
REMARK    4  A    between atoms: S_19  and  C_22
REMARK                            x       y       z     vdW  Elec       q    Type
REMARK                         _______ _______ _______ _____ _____    ______ ____
ROOT
ATOM      9  C   UNL     1      -3.055   1.897  24.747  0.00  0.00    +0.056 A 
ATOM     10  C   UNL     1      -3.412   1.176  24.564  0.00  0.00    +0.006 A 
ATOM     11  C   UNL     1      -4.228   1.086  24.645  0.00  0.00    +0.013 A 
ATOM     12  C   UNL     1      -4.688   1.718  24.908  0.00  0.00    +0.041 A 
ATOM     13  C   UNL     1      -5.560   1.937  25.095  0.00  0.00    +0.056 C 
ATOM     14  C   UNL     1      -6.208   1.666  25.095  0.00  0.00    +0.011 C 
ATOM     15  C   UNL     1      -5.853   2.376  25.274  0.00  0.00    +0.041 C 
ATOM     16  C   UNL     1      -5.614   3.299  25.537  0.00  0.00    +0.098 C 
ATOM     17  N   UNL     1      -4.788   3.269  25.417  0.00  0.00    -0.155 NA
ATOM     18  C   UNL     1      -5.346   2.831  25.352  0.00  0.00    +0.102 C 
ATOM     29  C   UNL     1      -4.938   2.157  25.082  0.00  0.00    +0.110 C 
ATOM     30  N   UNL     1      -4.331   2.440  25.091  0.00  0.00    -0.299 N 
ATOM     31  C   UNL     1      -3.515   2.529  25.010  0.00  0.00    +0.261 A 
ATOM     32  O   UNL     1      -3.159   3.251  25.193  0.00  0.00    -0.267 OA
ENDROOT
BRANCH   9   6
ATOM      3  C   UNL     1      -0.607   2.164  24.502  0.00  0.00    +0.139 A 
ATOM      4  C   UNL     1      -0.924   1.906  25.219  0.00  0.00    +0.037 A 
ATOM      5  C   UNL     1      -1.741   1.817  25.301  0.00  0.00    +0.003 A 
ATOM      6  C   UNL     1      -2.240   1.986  24.666  0.00  0.00    +0.005 A 
ATOM      7  C   UNL     1      -1.922   2.244  23.949  0.00  0.00    +0.003 A 
ATOM      8  C   UNL     1      -1.106   2.333  23.867  0.00  0.00    +0.037 A 
BRANCH   3   2
ATOM      1  C   UNL     1       0.663   1.631  24.126  0.00  0.00    +0.252 C 
ATOM      2  O   UNL     1       0.210   2.252  24.421  0.00  0.00    -0.471 OA
ENDBRANCH   3   2
ENDBRANCH   9   6
BRANCH  17  19
ATOM     19  S   UNL     1      -4.004   3.526  25.394  0.00  0.00    +0.063 S 
ATOM     20  O   UNL     1      -3.903   3.287  26.178  0.00  0.00    -0.153 OA
ATOM     21  O   UNL     1      -4.105   3.765  24.611  0.00  0.00    -0.153 OA
BRANCH  19  22
ATOM     22  C   UNL     1      -3.220   3.783  25.371  0.00  0.00    +0.122 A 
ATOM     23  C   UNL     1      -2.918   4.124  24.684  0.00  0.00    +0.022 A 
ATOM     24  C   UNL     1      -2.134   4.381  24.661  0.00  0.00    +0.031 A 
ATOM     25  C   UNL     1      -1.653   4.295  25.325  0.00  0.00    +0.140 A 
ATOM     26  F   UNL     1      -0.869   4.552  25.303  0.00  0.00    -0.204 F 
ATOM     27  C   UNL     1      -1.955   3.954  26.013  0.00  0.00    +0.031 A 
ATOM     28  C   UNL     1      -2.739   3.697  26.036  0.00  0.00    +0.022 A 
ENDBRANCH  19  22
ENDBRANCH  17  19
TORSDOF 4
ENDMDL
MODEL 5
REMARK VINA RESULT:     -14.2      1.696      4.026
REMARK  Name = 
REMARK  4 active torsions:
REMARK  status: ('A' for Active; 'I' for Inactive)
REMARK    1  A    between atoms: O_2  and  C_3
REMARK    2  A    between atoms: C_6  and  C_9
REMARK    3  A    between atoms: N_17  and  S_19
REMARK    4  A    between atoms: S_19  and  C_22
REMARK                            x       y       z     vdW  Elec       q    Type
REMARK                         _______ _______ _______ _____ _____    ______ ____
ROOT
ATOM      9  C   UNL     1      -2.138   1.383  25.089  0.00  0.00    +0.056 A 
ATOM     10  C   UNL     1      -1.573   0.847  25.362  0.00  0.00    +0.006 A 
ATOM     11  C   UNL     1      -1.739   0.039  25.367  0.00  0.00    +0.013 A 
ATOM     12  C   UNL     1      -2.470  -0.234  25.099  0.00  0.00    +0.041 A 
ATOM     13  C   UNL     1      -2.940  -1.014  24.979  0.00  0.00    +0.056 C 
ATOM     14  C   UNL     1      -2.885  -1.708  25.063  0.00  0.00    +0.011 C 
ATOM     15  C   UNL     1      -3.440  -1.177  24.794  0.00  0.00    +0.041 C 
ATOM     16  C   UNL     1      -4.229  -0.701  24.437  0.00  0.00    +0.098 C 
ATOM     17  N   UNL     1      -3.949   0.085  24.479  0.00  0.00    -0.155 NA
ATOM     18  C   UNL     1      -3.710  -0.568  24.632  0.00  0.00    +0.102 C 
ATOM     29  C   UNL     1      -2.956  -0.357  24.915  0.00  0.00    +0.110 C 
ATOM     30  N   UNL     1      -3.035   0.302  24.826  0.00  0.00    -0.299 N 
ATOM     31  C   UNL     1      -2.869   1.110  24.820  0.00  0.00    +0.261 A 
ATOM     32  O   UNL     1      -3.434   1.646  24.547  0.00  0.00    -0.267 OA
ENDROOT
BRANCH   9   6
ATOM      3  C   UNL     1      -1.638   3.806  25.073  0.00  0.00    +0.139 A 
ATOM      4  C   UNL     1      -1.993   3.463  25.734  0.00  0.00    +0.037 A 
ATOM      5  C   UNL     1      -2.160   2.655  25.739  0.00  0.00    +0.003 A 
ATOM      6  C   UNL     1      -1.972   2.190  25.084  0.00  0.00    +0.005 A 
ATOM      7  C   UNL     1      -1.616   2.534  24.423  0.00  0.00    +0.003 A 
ATOM      8  C   UNL     1      -1.449   3.342  24.418  0.00  0.00    +0.037 A 
BRANCH   3   2
ATOM      1  C   UNL     1      -0.712   4.877  24.883  0.00  0.00    +0.252 C 
ATOM      2  O   UNL     1      -1.471   4.615  25.067  0.00  0.00    -0.471 OA
ENDBRANCH   3   2
ENDBRANCH   9   6
BRANCH  17  19
ATOM     19  S   UNL     1      -3.949   0.907  24.407  0.00  0.00    +0.063 S 
ATOM     20  O   UNL     1      -3.631   0.841  23.648  0.00  0.00    -0.153 OA
ATOM     21  O   UNL     1      -4.268   0.974  25.165  0.00  0.00    -0.153 OA
BRANCH  19  22
ATOM     22  C   UNL     1      -3.950   1.730  24.334  0.00  0.00    +0.122 A 
ATOM     23  C   UNL     1      -3.677   2.082  23.640  0.00  0.00    +0.022 A 
ATOM     24  C   UNL     1      -3.677   2.904  23.568  0.00  0.00    +0.031 A 
ATOM     25  C   UNL     1      -3.950   3.373  24.189  0.00  0.00    +0.140 A 
ATOM     26  F   UNL     1      -3.951   4.195  24.116  0.00  0.00    -0.204 F 
ATOM     27  C   UNL     1      -4.223   3.020  24.883  0.00  0.00    +0.031 A 
ATOM     28  C   UNL     1      -4.223   2.198  24.955  0.00  0.00    +0.022 A 
ENDBRANCH  19  22
ENDBRANCH  17  19
TORSDOF 4
ENDMDL
