MODEL 1
REMARK VINA RESULT:     -12.5      0.000      0.000
REMARK  Name = 
REMARK  5 active torsions:
REMARK  status: ('A' for Active; 'I' for Inactive)
REMARK    1  A    between atoms: C_2  and  C_5
REMARK    2  A    between atoms: C_12  and  C_13
REMARK    3  A    between atoms: C_15  and  C_18
REMARK    4  A    between atoms: C_21  and  O_22
REMARK    5  A    between atoms: O_22  and  C_23
REMARK                            x       y       z     vdW  Elec       q    Type
REMARK                         _______ _______ _______ _____ _____    ______ ____
ROOT
ATOM     13  C   UNL     1      -4.279   1.916  24.729  0.00  0.00    +0.160 A 
ATOM     14  N   UNL     1      -4.292   1.176  25.093  0.00  0.00    -0.227 NA
ATOM     15  C   UNL     1      -3.944   0.633  24.578  0.00  0.00    +0.102 A 
ATOM     16  C   UNL     1      -3.715   1.038  23.897  0.00  0.00    +0.119 A 
ATOM     17  N   UNL     1      -3.922   1.831  23.990  0.00  0.00    -0.226 NA
ENDROOT
BRANCH  13  12
ATOM      5  C   UNL     1      -3.236   3.119  25.169  0.00  0.00    +0.225 C 
ATOM      6  O   UNL     1      -2.944   2.415  24.849  0.00  0.00    -0.275 OA
ATOM      7  N   UNL     1      -4.049   3.220  25.268  0.00  0.00    -0.270 N 
ATOM      8  C   UNL     1      -4.341   3.922  25.588  0.00  0.00    +0.126 C 
ATOM      9  C   UNL     1      -5.155   4.024  25.688  0.00  0.00    +0.164 C 
ATOM     10  O   UNL     1      -5.675   3.422  25.468  0.00  0.00    -0.350 OA
ATOM     11  C   UNL     1      -5.383   2.720  25.148  0.00  0.00    +0.170 C 
ATOM     12  C   UNL     1      -4.571   2.619  25.049  0.00  0.00    +0.164 C 
BRANCH   5   2
ATOM      1  C   UNL     1      -2.195   4.319  25.608  0.00  0.00    +0.009 C 
ATOM      2  C   UNL     1      -2.716   3.719  25.388  0.00  0.00    +0.069 C 
ATOM      3  C   UNL     1      -2.656   3.391  26.143  0.00  0.00    +0.009 C 
ATOM      4  C   UNL     1      -2.777   4.047  24.633  0.00  0.00    +0.009 C 
ENDBRANCH   5   2
ENDBRANCH  13  12
BRANCH  15  18
ATOM     18  C   UNL     1      -3.842  -0.174  24.720  0.00  0.00    +0.019 A 
ATOM     19  C   UNL     1      -4.148  -0.727  24.190  0.00  0.00    +0.005 A 
ATOM     20  C   UNL     1      -4.046  -1.534  24.332  0.00  0.00    +0.037 A 
ATOM     21  C   UNL     1      -3.639  -1.786  25.003  0.00  0.00    +0.147 A 
ATOM     27  C   UNL     1      -3.334  -1.233  25.533  0.00  0.00    +0.037 A 
ATOM     28  C   UNL     1      -3.435  -0.426  25.392  0.00  0.00    +0.005 A 
BRANCH  21  22
ATOM     22  O   UNL     1      -3.538  -2.593  25.145  0.00  0.00    -0.404 OA
BRANCH  22  23
ATOM     23  C   UNL     1      -3.193  -3.073  24.569  0.00  0.00    +0.575 C 
ATOM     24  F   UNL     1      -2.848  -3.553  23.993  0.00  0.00    -0.133 F 
ATOM     25  F   UNL     1      -3.943  -3.307  24.316  0.00  0.00    -0.133 F 
ATOM     26  F   UNL     1      -2.443  -2.838  24.822  0.00  0.00    -0.133 F 
ENDBRANCH  22  23
ENDBRANCH  21  22
ENDBRANCH  15  18
TORSDOF 5
ENDMDL
MODEL 2
REMARK VINA RESULT:     -11.9      0.810      1.670
REMARK  Name = 
REMARK  5 active torsions:
REMARK  status: ('A' for Active; 'I' for Inactive)
REMARK    1  A    between atoms: C_2  and  C_5
REMARK    2  A    between atoms: C_12  and  C_13
REMARK    3  A    between atoms: C_15  and  C_18
REMARK    4  A    between atoms: C_21  and  O_22
REMARK    5  A    between atoms: O_22  and  C_23
REMARK                            x       y       z     vdW  Elec       q    Type
REMARK                         _______ _______ _______ _____ _____    ______ ____
ROOT
ATOM     13  C   UNL     1      -2.874   1.988  24.677  0.00  0.00    +0.160 A 
ATOM     14  N   UNL     1      -3.034   1.265  25.036  0.00  0.00    -0.227 NA
ATOM     15  C   UNL     1      -3.180   0.711  24.442  0.00  0.00    +0.102 A 
ATOM     16  C   UNL     1      -3.109   1.094  23.714  0.00  0.00    +0.119 A 
ATOM     17  N   UNL     1      -2.920   1.884  23.860  0.00  0.00    -0.226 NA
ENDROOT
BRANCH  13  12
ATOM      5  C   UNL     1      -4.084   3.046  25.056  0.00  0.00    +0.225 C 
ATOM      6  O   UNL     1      -4.260   2.340  24.666  0.00  0.00    -0.275 OA
ATOM      7  N   UNL     1      -3.303   3.223  25.255  0.00  0.00    -0.270 N 
ATOM      8  C   UNL     1      -3.127   3.930  25.644  0.00  0.00    +0.126 C 
ATOM      9  C   UNL     1      -2.346   4.107  25.843  0.00  0.00    +0.164 C 
ATOM     10  O   UNL     1      -1.742   3.579  25.654  0.00  0.00    -0.350 OA
ATOM     11  C   UNL     1      -1.918   2.873  25.265  0.00  0.00    +0.170 C 
ATOM     12  C   UNL     1      -2.698   2.695  25.066  0.00  0.00    +0.164 C 
BRANCH   5   2
ATOM      1  C   UNL     1      -5.292   4.102  25.434  0.00  0.00    +0.009 C 
ATOM      2  C   UNL     1      -4.688   3.574  25.245  0.00  0.00    +0.069 C 
ATOM      3  C   UNL     1      -4.544   3.989  24.546  0.00  0.00    +0.009 C 
ATOM      4  C   UNL     1      -4.832   3.159  25.943  0.00  0.00    +0.009 C 
ENDBRANCH   5   2
ENDBRANCH  13  12
BRANCH  15  18
ATOM     18  C   UNL     1      -3.364  -0.086  24.554  0.00  0.00    +0.019 A 
ATOM     19  C   UNL     1      -3.936  -0.446  24.083  0.00  0.00    +0.005 A 
ATOM     20  C   UNL     1      -4.120  -1.243  24.196  0.00  0.00    +0.037 A 
ATOM     21  C   UNL     1      -3.732  -1.678  24.779  0.00  0.00    +0.147 A 
ATOM     27  C   UNL     1      -3.159  -1.316  25.251  0.00  0.00    +0.037 A 
ATOM     28  C   UNL     1      -2.975  -0.519  25.138  0.00  0.00    +0.005 A 
BRANCH  21  22
ATOM     22  O   UNL     1      -3.916  -2.474  24.892  0.00  0.00    -0.404 OA
BRANCH  22  23
ATOM     23  C   UNL     1      -3.561  -3.050  24.421  0.00  0.00    +0.575 C 
ATOM     24  F   UNL     1      -3.204  -3.627  23.949  0.00  0.00    -0.133 F 
ATOM     25  F   UNL     1      -4.191  -3.006  23.891  0.00  0.00    -0.133 F 
ATOM     26  F   UNL     1      -2.930  -3.095  24.951  0.00  0.00    -0.133 F 
ENDBRANCH  22  23
ENDBRANCH  21  22
ENDBRANCH  15  18
TORSDOF 5
ENDMDL
MODEL 3
REMARK VINA RESULT:     -11.8      1.283      2.089
REMARK  Name = 
REMARK  5 active torsions:
REMARK  status: ('A' for Active; 'I' for Inactive)
REMARK    1  A    between atoms: C_2  and  C_5
REMARK    2  A    between atoms: C_12  and  C_13
REMARK    3  A    between atoms: C_15  and  C_18
REMARK    4  A    between atoms: C_21  and  O_22
REMARK    5  A    between atoms: O_22  and  C_23
REMARK                            x       y       z     vdW  Elec       q    Type
REMARK                         _______ _______ _______ _____ _____    ______ ____
ROOT
ATOM     13  C   UNL     1      -2.200   2.022  24.139  0.00  0.00    +0.160 A 
ATOM     14  N   UNL     1      -2.275   1.291  24.513  0.00  0.00    -0.227 NA
ATOM     15  C   UNL     1      -2.886   0.878  24.143  0.00  0.00    +0.102 A 
ATOM     16  C   UNL     1      -3.188   1.354  23.540  0.00  0.00    +0.119 A 
ATOM     17  N   UNL     1      -2.764   2.062  23.538  0.00  0.00    -0.226 NA
ENDROOT
BRANCH  13  12
ATOM      5  C   UNL     1      -2.646   3.266  25.129  0.00  0.00    +0.225 C 
ATOM      6  O   UNL     1      -3.191   2.676  24.935  0.00  0.00    -0.275 OA
ATOM      7  N   UNL     1      -1.879   3.233  24.827  0.00  0.00    -0.270 N 
ATOM      8  C   UNL     1      -1.335   3.823  25.020  0.00  0.00    +0.126 C 
ATOM      9  C   UNL     1      -0.567   3.791  24.718  0.00  0.00    +0.164 C 
ATOM     10  O   UNL     1      -0.345   3.169  24.223  0.00  0.00    -0.350 OA
ATOM     11  C   UNL     1      -0.889   2.580  24.030  0.00  0.00    +0.170 C 
ATOM     12  C   UNL     1      -1.655   2.612  24.332  0.00  0.00    +0.164 C 
BRANCH   5   2
ATOM      1  C   UNL     1      -3.093   4.508  26.117  0.00  0.00    +0.009 C 
ATOM      2  C   UNL     1      -2.870   3.887  25.623  0.00  0.00    +0.069 C 
ATOM      3  C   UNL     1      -3.166   4.298  24.972  0.00  0.00    +0.009 C 
ATOM      4  C   UNL     1      -2.573   3.475  26.274  0.00  0.00    +0.009 C 
ENDBRANCH   5   2
ENDBRANCH  13  12
BRANCH  15  18
ATOM     18  C   UNL     1      -3.149   0.121  24.341  0.00  0.00    +0.019 A 
ATOM     19  C   UNL     1      -3.898  -0.130  24.103  0.00  0.00    +0.005 A 
ATOM     20  C   UNL     1      -4.161  -0.887  24.301  0.00  0.00    +0.037 A 
ATOM     21  C   UNL     1      -3.676  -1.392  24.736  0.00  0.00    +0.147 A 
ATOM     27  C   UNL     1      -2.926  -1.141  24.973  0.00  0.00    +0.037 A 
ATOM     28  C   UNL     1      -2.663  -0.384  24.776  0.00  0.00    +0.005 A 
BRANCH  21  22
ATOM     22  O   UNL     1      -3.939  -2.149  24.934  0.00  0.00    -0.404 OA
BRANCH  22  23
ATOM     23  C   UNL     1      -3.688  -2.800  24.495  0.00  0.00    +0.575 C 
ATOM     24  F   UNL     1      -3.437  -3.452  24.056  0.00  0.00    -0.133 F 
ATOM     25  F   UNL     1      -4.286  -2.659  23.944  0.00  0.00    -0.133 F 
ATOM     26  F   UNL     1      -3.090  -2.941  25.045  0.00  0.00    -0.133 F 
ENDBRANCH  22  23
ENDBRANCH  21  22
ENDBRANCH  15  18
TORSDOF 5
ENDMDL
MODEL 4
REMARK VINA RESULT:     -11.5      3.521      5.773
REMARK  Name = 
REMARK  5 active torsions:
REMARK  status: ('A' for Active; 'I' for Inactive)
REMARK    1  A    between atoms: C_2  and  C_5
REMARK    2  A    between atoms: C_12  and  C_13
REMARK    3  A    between atoms: C_15  and  C_18
REMARK    4  A    between atoms: C_21  and  O_22
REMARK    5  A    between atoms: O_22  and  C_23
REMARK                            x       y       z     vdW  Elec       q    Type
REMARK                         _______ _______ _______ _____ _____    ______ ____
ROOT
ATOM     13  C   UNL     1      -1.404   0.240  24.411  0.00  0.00    +0.160 A 
ATOM     14  N   UNL     1      -1.266   0.881  24.910  0.00  0.00    -0.227 NA
ATOM     15  C   UNL     1      -1.454   1.571  24.497  0.00  0.00    +0.102 A 
ATOM     16  C   UNL     1      -1.708   1.354  23.742  0.00  0.00    +0.119 A 
ATOM     17  N   UNL     1      -1.677   0.531  23.689  0.00  0.00    -0.226 NA
ENDROOT
BRANCH  13  12
ATOM      5  C   UNL     1      -2.703  -0.730  24.724  0.00  0.00    +0.225 C 
ATOM      6  O   UNL     1      -2.818   0.065  24.534  0.00  0.00    -0.275 OA
ATOM      7  N   UNL     1      -1.939  -1.040  24.757  0.00  0.00    -0.270 N 
ATOM      8  C   UNL     1      -1.825  -1.835  24.947  0.00  0.00    +0.126 C 
ATOM      9  C   UNL     1      -1.060  -2.145  24.980  0.00  0.00    +0.164 C 
ATOM     10  O   UNL     1      -0.412  -1.660  24.824  0.00  0.00    -0.350 OA
ATOM     11  C   UNL     1      -0.526  -0.865  24.634  0.00  0.00    +0.170 C 
ATOM     12  C   UNL     1      -1.289  -0.556  24.601  0.00  0.00    +0.164 C 
BRANCH   5   2
ATOM      1  C   UNL     1      -4.001  -1.699  25.036  0.00  0.00    +0.009 C 
ATOM      2  C   UNL     1      -3.352  -1.214  24.880  0.00  0.00    +0.069 C 
ATOM      3  C   UNL     1      -3.405  -1.401  24.078  0.00  0.00    +0.009 C 
ATOM      4  C   UNL     1      -3.299  -1.027  25.682  0.00  0.00    +0.009 C 
ENDBRANCH   5   2
ENDBRANCH  13  12
BRANCH  15  18
ATOM     18  C   UNL     1      -1.398   2.341  24.787  0.00  0.00    +0.019 A 
ATOM     19  C   UNL     1      -0.678   2.742  24.752  0.00  0.00    +0.005 A 
ATOM     20  C   UNL     1      -0.622   3.513  25.043  0.00  0.00    +0.037 A 
ATOM     21  C   UNL     1      -1.284   3.881  25.367  0.00  0.00    +0.147 A 
ATOM     27  C   UNL     1      -2.004   3.480  25.401  0.00  0.00    +0.037 A 
ATOM     28  C   UNL     1      -2.061   2.709  25.111  0.00  0.00    +0.005 A 
BRANCH  21  22
ATOM     22  O   UNL     1      -1.228   4.652  25.657  0.00  0.00    -0.404 OA
BRANCH  22  23
ATOM     23  C   UNL     1      -1.368   5.292  25.156  0.00  0.00    +0.575 C 
ATOM     24  F   UNL     1      -1.509   5.933  24.656  0.00  0.00    -0.133 F 
ATOM     25  F   UNL     1      -0.575   5.288  24.929  0.00  0.00    -0.133 F 
ATOM     26  F   UNL     1      -2.161   5.297  25.384  0.00  0.00    -0.133 F 
ENDBRANCH  22  23
ENDBRANCH  21  22
ENDBRANCH  15  18
TORSDOF 5
ENDMDL
MODEL 5
REMARK VINA RESULT:     -11.1      2.964      5.293
REMARK  Name = 
REMARK  5 active torsions:
REMARK  status: ('A' for Active; 'I' for Inactive)
REMARK    1  A    between atoms: C_2  and  C_5
REMARK    2  A    between atoms: C_12  and  C_13
REMARK    3  A    between atoms: C_15  and  C_18
REMARK    4  A    between atoms: C_21  and  O_22
REMARK    5  A    between atoms: O_22  and  C_23
REMARK                            x       y       z     vdW  Elec       q    Type
REMARK                         _______ _______ _______ _____ _____    ______ ____
ROOT
ATOM     13  C   UNL     1      -2.720   0.276  24.391  0.00  0.00    +0.160 A 
ATOM     14  N   UNL     1      -3.032   0.782  24.962  0.00  0.00    -0.227 NA
ATOM     15  C   UNL     1      -3.601   1.257  24.599  0.00  0.00    +0.102 A 
ATOM     16  C   UNL     1      -3.641   1.044  23.803  0.00  0.00    +0.119 A 
ATOM     17  N   UNL     1      -3.096   0.437  23.674  0.00  0.00    -0.226 NA
ENDROOT
BRANCH  13  12
ATOM      5  C   UNL     1      -3.141  -1.296  24.669  0.00  0.00    +0.225 C 
ATOM      6  O   UNL     1      -3.727  -0.727  24.546  0.00  0.00    -0.275 OA
ATOM      7  N   UNL     1      -2.345  -1.078  24.653  0.00  0.00    -0.270 N 
ATOM      8  C   UNL     1      -1.760  -1.646  24.776  0.00  0.00    +0.126 C 
ATOM      9  C   UNL     1      -0.963  -1.429  24.760  0.00  0.00    +0.164 C 
ATOM     10  O   UNL     1      -0.754  -0.643  24.620  0.00  0.00    -0.350 OA
ATOM     11  C   UNL     1      -1.339  -0.075  24.497  0.00  0.00    +0.170 C 
ATOM     12  C   UNL     1      -2.134  -0.293  24.514  0.00  0.00    +0.164 C 
BRANCH   5   2
ATOM      1  C   UNL     1      -3.561  -2.866  24.948  0.00  0.00    +0.009 C 
ATOM      2  C   UNL     1      -3.351  -2.081  24.808  0.00  0.00    +0.069 C 
ATOM      3  C   UNL     1      -3.317  -1.945  25.622  0.00  0.00    +0.009 C 
ATOM      4  C   UNL     1      -3.385  -2.216  23.995  0.00  0.00    +0.009 C 
ENDBRANCH   5   2
ENDBRANCH  13  12
BRANCH  15  18
ATOM     18  C   UNL     1      -4.052   1.842  24.968  0.00  0.00    +0.019 A 
ATOM     19  C   UNL     1      -3.711   2.570  25.149  0.00  0.00    +0.005 A 
ATOM     20  C   UNL     1      -4.161   3.156  25.518  0.00  0.00    +0.037 A 
ATOM     21  C   UNL     1      -4.951   3.012  25.704  0.00  0.00    +0.147 A 
ATOM     27  C   UNL     1      -5.293   2.283  25.522  0.00  0.00    +0.037 A 
ATOM     28  C   UNL     1      -4.842   1.697  25.154  0.00  0.00    +0.005 A 
BRANCH  21  22
ATOM     22  O   UNL     1      -5.402   3.597  26.073  0.00  0.00    -0.404 OA
BRANCH  22  23
ATOM     23  C   UNL     1      -5.788   4.167  25.619  0.00  0.00    +0.575 C 
ATOM     24  F   UNL     1      -6.175   4.737  25.164  0.00  0.00    -0.133 F 
ATOM     25  F   UNL     1      -5.106   4.630  25.620  0.00  0.00    -0.133 F 
ATOM     26  F   UNL     1      -6.471   3.704  25.617  0.00  0.00    -0.133 F 
ENDBRANCH  22  23
ENDBRANCH  21  22
ENDBRANCH  15  18
TORSDOF 5
ENDMDL
