REMARK  Name = 
REMARK  6 active torsions:
REMARK  status: ('A' for Active; 'I' for Inactive)
REMARK    1  A    between atoms: O_2  and  C_3
REMARK    2  A    between atoms: C_3  and  C_4
REMARK    3  A    between atoms: C_3  and  C_23
REMARK    4  A    between atoms: C_3  and  C_29
REMARK    5  A    between atoms: C_11  and  C_12
REMARK    6  A    between atoms: C_14  and  C_17
REMARK                            x       y       z     vdW  Elec       q    Type
REMARK                         _______ _______ _______ _____ _____    ______ ____
ROOT
ATOM      4  C   UNL     1       2.751  -2.537   0.000  0.00  0.00    +0.263 C 
ATOM      5  O   UNL     1       2.751  -3.362   0.000  0.00  0.00    -0.272 OA
ATOM      6  N   UNL     1       2.037  -2.124   0.000  0.00  0.00    -0.267 N 
ATOM      7  C   UNL     1       2.037  -1.299   0.000  0.00  0.00    +0.126 C 
ATOM      8  C   UNL     1       1.322  -0.887   0.000  0.00  0.00    +0.164 C 
ATOM      9  O   UNL     1       0.608  -1.299   0.000  0.00  0.00    -0.350 OA
ATOM     10  C   UNL     1       0.608  -2.124   0.000  0.00  0.00    +0.170 C 
ATOM     11  C   UNL     1       1.322  -2.537   0.000  0.00  0.00    +0.164 C 
ENDROOT
BRANCH  11  12
ATOM     12  C   UNL     1       1.322  -3.362   0.000  0.00  0.00    +0.160 A 
ATOM     13  N   UNL     1       1.990  -3.846   0.000  0.00  0.00    -0.227 NA
ATOM     14  C   UNL     1       1.735  -4.631   0.000  0.00  0.00    +0.102 A 
ATOM     15  C   UNL     1       0.910  -4.631   0.000  0.00  0.00    +0.119 A 
ATOM     16  N   UNL     1       0.655  -3.846   0.000  0.00  0.00    -0.226 NA
BRANCH  14  17
ATOM     17  C   UNL     1       2.220  -5.299   0.000  0.00  0.00    +0.019 A 
ATOM     18  C   UNL     1       3.040  -5.212   0.000  0.00  0.00    +0.002 A 
ATOM     19  C   UNL     1       3.525  -5.880   0.000  0.00  0.00    +0.000 A 
ATOM     20  C   UNL     1       3.189  -6.633   0.000  0.00  0.00    +0.000 A 
ATOM     21  C   UNL     1       2.369  -6.720   0.000  0.00  0.00    +0.000 A 
ATOM     22  C   UNL     1       1.884  -6.052   0.000  0.00  0.00    +0.002 A 
ENDBRANCH  14  17
ENDBRANCH  11  12
BRANCH   4   3
ATOM      3  C   UNL     1       3.466  -2.124   0.000  0.00  0.00    +0.267 C 
BRANCH   3  23
ATOM     23  C   UNL     1       4.180  -1.712   0.000  0.00  0.00    +0.019 A 
ATOM     24  C   UNL     1       4.180  -0.887   0.000  0.00  0.00    -0.001 A 
ATOM     25  C   UNL     1       4.895  -0.474   0.000  0.00  0.00    -0.000 A 
ATOM     26  C   UNL     1       5.609  -0.887   0.000  0.00  0.00    -0.000 A 
ATOM     27  C   UNL     1       5.609  -1.712   0.000  0.00  0.00    -0.000 A 
ATOM     28  C   UNL     1       4.895  -2.124   0.000  0.00  0.00    -0.001 A 
ENDBRANCH   3  23
BRANCH   3  29
ATOM     29  C   UNL     1       3.878  -2.839   0.000  0.00  0.00    +0.431 C 
ATOM     30  F   UNL     1       4.291  -3.553   0.000  0.00  0.00    -0.167 F 
ATOM     31  F   UNL     1       3.164  -3.251   0.000  0.00  0.00    -0.167 F 
ATOM     32  F   UNL     1       4.593  -2.426   0.000  0.00  0.00    -0.167 F 
ENDBRANCH   3  29
BRANCH   3   2
ATOM      1  C   UNL     1       3.466  -0.695   0.000  0.00  0.00    +0.175 C 
ATOM      2  O   UNL     1       3.053  -1.410   0.000  0.00  0.00    -0.336 OA
ENDBRANCH   3   2
ENDBRANCH   4   3
TORSDOF 6
