MODEL 1
REMARK VINA RESULT:      -9.4      0.000      0.000
REMARK  Name = 
REMARK  5 active torsions:
REMARK  status: ('A' for Active; 'I' for Inactive)
REMARK    1  A    between atoms: C_2  and  N_4
REMARK    2  A    between atoms: N_4  and  C_5
REMARK    3  A    between atoms: C_8  and  C_9
REMARK    4  A    between atoms: C_9  and  N_10
REMARK    5  A    between atoms: C_11  and  C_13
REMARK                            x       y       z     vdW  Elec       q    Type
REMARK                         _______ _______ _______ _____ _____    ______ ____
ROOT
ATOM      9  C   UNL     1      -3.867   2.022  24.934  0.00  0.00    +0.148 C 
ENDROOT
BRANCH   9   8
ATOM      5  C   UNL     1      -3.697  -0.074  24.568  0.00  0.00    +0.135 C 
ATOM      6  C   UNL     1      -4.398  -0.045  25.001  0.00  0.00    +0.162 C 
ATOM      7  O   UNL     1      -4.548   0.745  25.191  0.00  0.00    -0.350 OA
ATOM      8  C   UNL     1      -3.938   1.202  24.875  0.00  0.00    +0.169 C 
ATOM     20  C   UNL     1      -3.412   0.696  24.490  0.00  0.00    +0.199 C 
ATOM     21  O   UNL     1      -2.723   0.921  24.096  0.00  0.00    -0.219 OA
BRANCH   5   4
ATOM      4  N   UNL     1      -3.342  -0.755  24.265  0.00  0.00    -0.216 NA
BRANCH   4   2
ATOM      1  C   UNL     1      -3.465  -1.931  25.067  0.00  0.00    +0.019 C 
ATOM      2  C   UNL     1      -3.684  -1.493  24.403  0.00  0.00    +0.073 C 
ATOM      3  C   UNL     1      -4.244  -1.793  23.877  0.00  0.00    +0.019 C 
ENDBRANCH   4   2
ENDBRANCH   5   4
ENDBRANCH   9   8
BRANCH   9  10
ATOM     10  N   UNL     1      -4.541   2.490  25.024  0.00  0.00    -0.199 NA
ATOM     11  C   UNL     1      -4.465   3.292  25.198  0.00  0.00    +0.265 C 
ATOM     12  O   UNL     1      -5.138   3.760  25.288  0.00  0.00    -0.268 OA
BRANCH  11  13
ATOM     13  C   UNL     1      -3.716   3.628  25.282  0.00  0.00    +0.055 A 
ATOM     14  C   UNL     1      -3.367   3.675  26.029  0.00  0.00    +0.007 A 
ATOM     15  C   UNL     1      -2.618   4.010  26.113  0.00  0.00    +0.030 A 
ATOM     16  C   UNL     1      -2.218   4.299  25.452  0.00  0.00    +0.140 A 
ATOM     17  F   UNL     1      -1.469   4.635  25.537  0.00  0.00    -0.204 F 
ATOM     18  C   UNL     1      -2.567   4.252  24.706  0.00  0.00    +0.030 A 
ATOM     19  C   UNL     1      -3.316   3.916  24.621  0.00  0.00    +0.007 A 
ENDBRANCH  11  13
ENDBRANCH   9  10
TORSDOF 5
ENDMDL
MODEL 2
REMARK VINA RESULT:      -9.0      2.038      2.690
REMARK  Name = 
REMARK  5 active torsions:
REMARK  status: ('A' for Active; 'I' for Inactive)
REMARK    1  A    between atoms: C_2  and  N_4
REMARK    2  A    between atoms: N_4  and  C_5
REMARK    3  A    between atoms: C_8  and  C_9
REMARK    4  A    between atoms: C_9  and  N_10
REMARK    5  A    between atoms: C_11  and  C_13
REMARK                            x       y       z     vdW  Elec       q    Type
REMARK                         _______ _______ _______ _____ _____    ______ ____
ROOT
ATOM      9  C   UNL     1      -1.140   1.453  25.359  0.00  0.00    +0.148 C 
ENDROOT
BRANCH   9   8
ATOM      5  C   UNL     1      -2.084  -0.405  24.899  0.00  0.00    +0.135 C 
ATOM      6  C   UNL     1      -1.656  -0.607  25.575  0.00  0.00    +0.162 C 
ATOM      7  O   UNL     1      -1.250   0.065  25.830  0.00  0.00    -0.350 OA
ATOM      8  C   UNL     1      -1.428   0.682  25.311  0.00  0.00    +0.169 C 
ATOM     20  C   UNL     1      -1.943   0.391  24.736  0.00  0.00    +0.199 C 
ATOM     21  O   UNL     1      -2.262   0.821  24.108  0.00  0.00    -0.219 OA
BRANCH   5   4
ATOM      4  N   UNL     1      -2.569  -0.911  24.463  0.00  0.00    -0.216 NA
BRANCH   4   2
ATOM      1  C   UNL     1      -2.246  -2.301  24.546  0.00  0.00    +0.019 C 
ATOM      2  C   UNL     1      -2.736  -1.668  24.747  0.00  0.00    +0.073 C 
ATOM      3  C   UNL     1      -3.391  -1.791  25.231  0.00  0.00    +0.019 C 
ENDBRANCH   4   2
ENDBRANCH   5   4
ENDBRANCH   9   8
BRANCH   9  10
ATOM     10  N   UNL     1      -0.431   1.607  25.752  0.00  0.00    -0.199 NA
ATOM     11  C   UNL     1      -0.202   2.385  25.900  0.00  0.00    +0.265 C 
ATOM     12  O   UNL     1       0.507   2.538  26.293  0.00  0.00    -0.268 OA
BRANCH  11  13
ATOM     13  C   UNL     1      -0.681   3.010  25.657  0.00  0.00    +0.055 A 
ATOM     14  C   UNL     1      -0.519   3.402  24.948  0.00  0.00    +0.007 A 
ATOM     15  C   UNL     1      -0.999   4.027  24.704  0.00  0.00    +0.030 A 
ATOM     16  C   UNL     1      -1.639   4.262  25.168  0.00  0.00    +0.140 A 
ATOM     17  F   UNL     1      -2.118   4.888  24.924  0.00  0.00    -0.204 F 
ATOM     18  C   UNL     1      -1.801   3.871  25.876  0.00  0.00    +0.030 A 
ATOM     19  C   UNL     1      -1.322   3.244  26.120  0.00  0.00    +0.007 A 
ENDBRANCH  11  13
ENDBRANCH   9  10
TORSDOF 5
ENDMDL
MODEL 3
REMARK VINA RESULT:      -9.0      2.303      4.589
REMARK  Name = 
REMARK  5 active torsions:
REMARK  status: ('A' for Active; 'I' for Inactive)
REMARK    1  A    between atoms: C_2  and  N_4
REMARK    2  A    between atoms: N_4  and  C_5
REMARK    3  A    between atoms: C_8  and  C_9
REMARK    4  A    between atoms: C_9  and  N_10
REMARK    5  A    between atoms: C_11  and  C_13
REMARK                            x       y       z     vdW  Elec       q    Type
REMARK                         _______ _______ _______ _____ _____    ______ ____
ROOT
ATOM      9  C   UNL     1      -3.103   0.732  24.696  0.00  0.00    +0.148 C 
ENDROOT
BRANCH   9   8
ATOM      5  C   UNL     1      -1.547   2.193  24.732  0.00  0.00    +0.135 C 
ATOM      6  C   UNL     1      -2.151   2.592  25.129  0.00  0.00    +0.162 C 
ATOM      7  O   UNL     1      -2.807   2.093  25.164  0.00  0.00    -0.350 OA
ATOM      8  C   UNL     1      -2.610   1.386  24.788  0.00  0.00    +0.169 C 
ATOM     20  C   UNL     1      -1.831   1.447  24.521  0.00  0.00    +0.199 C 
ATOM     21  O   UNL     1      -1.410   0.865  24.115  0.00  0.00    -0.219 OA
BRANCH   5   4
ATOM      4  N   UNL     1      -0.793   2.487  24.573  0.00  0.00    -0.216 NA
BRANCH   4   2
ATOM      1  C   UNL     1      -0.616   3.895  24.737  0.00  0.00    +0.019 C 
ATOM      2  C   UNL     1      -0.500   3.125  25.008  0.00  0.00    +0.073 C 
ATOM      3  C   UNL     1      -0.092   2.992  25.711  0.00  0.00    +0.019 C 
ENDBRANCH   4   2
ENDBRANCH   5   4
ENDBRANCH   9   8
BRANCH   9  10
ATOM     10  N   UNL     1      -3.923   0.828  24.704  0.00  0.00    -0.199 NA
ATOM     11  C   UNL     1      -4.415   0.168  24.741  0.00  0.00    +0.265 C 
ATOM     12  O   UNL     1      -5.235   0.264  24.750  0.00  0.00    -0.268 OA
BRANCH  11  13
ATOM     13  C   UNL     1      -4.089  -0.590  24.770  0.00  0.00    +0.055 A 
ATOM     14  C   UNL     1      -4.026  -1.037  24.079  0.00  0.00    +0.007 A 
ATOM     15  C   UNL     1      -3.700  -1.794  24.107  0.00  0.00    +0.030 A 
ATOM     16  C   UNL     1      -3.438  -2.104  24.825  0.00  0.00    +0.140 A 
ATOM     17  F   UNL     1      -3.112  -2.862  24.853  0.00  0.00    -0.204 F 
ATOM     18  C   UNL     1      -3.501  -1.657  25.515  0.00  0.00    +0.030 A 
ATOM     19  C   UNL     1      -3.827  -0.899  25.488  0.00  0.00    +0.007 A 
ENDBRANCH  11  13
ENDBRANCH   9  10
TORSDOF 5
ENDMDL
MODEL 4
REMARK VINA RESULT:      -8.8      2.406      5.059
REMARK  Name = 
REMARK  5 active torsions:
REMARK  status: ('A' for Active; 'I' for Inactive)
REMARK    1  A    between atoms: C_2  and  N_4
REMARK    2  A    between atoms: N_4  and  C_5
REMARK    3  A    between atoms: C_8  and  C_9
REMARK    4  A    between atoms: C_9  and  N_10
REMARK    5  A    between atoms: C_11  and  C_13
REMARK                            x       y       z     vdW  Elec       q    Type
REMARK                         _______ _______ _______ _____ _____    ______ ____
ROOT
ATOM      9  C   UNL     1      -1.705   0.526  25.175  0.00  0.00    +0.148 C 
ENDROOT
BRANCH   9   8
ATOM      5  C   UNL     1      -1.604   2.651  24.999  0.00  0.00    +0.135 C 
ATOM      6  C   UNL     1      -1.061   2.516  25.605  0.00  0.00    +0.162 C 
ATOM      7  O   UNL     1      -1.033   1.703  25.745  0.00  0.00    -0.350 OA
ATOM      8  C   UNL     1      -1.558   1.336  25.225  0.00  0.00    +0.169 C 
ATOM     20  C   UNL     1      -1.911   1.923  24.764  0.00  0.00    +0.199 C 
ATOM     21  O   UNL     1      -2.473   1.801  24.172  0.00  0.00    -0.219 OA
BRANCH   5   4
ATOM      4  N   UNL     1      -1.805   3.387  24.683  0.00  0.00    -0.216 NA
BRANCH   4   2
ATOM      1  C   UNL     1      -2.157   4.379  25.649  0.00  0.00    +0.019 C 
ATOM      2  C   UNL     1      -1.623   4.077  25.098  0.00  0.00    +0.073 C 
ATOM      3  C   UNL     1      -0.907   4.463  24.961  0.00  0.00    +0.019 C 
ENDBRANCH   4   2
ENDBRANCH   5   4
ENDBRANCH   9   8
BRANCH   9  10
ATOM     10  N   UNL     1      -1.132  -0.014  25.423  0.00  0.00    -0.199 NA
ATOM     11  C   UNL     1      -1.314  -0.816  25.469  0.00  0.00    +0.265 C 
ATOM     12  O   UNL     1      -0.741  -1.356  25.717  0.00  0.00    -0.268 OA
BRANCH  11  13
ATOM     13  C   UNL     1      -2.069  -1.080  25.267  0.00  0.00    +0.055 A 
ATOM     14  C   UNL     1      -2.218  -1.361  24.505  0.00  0.00    +0.007 A 
ATOM     15  C   UNL     1      -2.973  -1.625  24.304  0.00  0.00    +0.030 A 
ATOM     16  C   UNL     1      -3.579  -1.609  24.863  0.00  0.00    +0.140 A 
ATOM     17  F   UNL     1      -4.334  -1.874  24.660  0.00  0.00    -0.204 F 
ATOM     18  C   UNL     1      -3.430  -1.329  25.624  0.00  0.00    +0.030 A 
ATOM     19  C   UNL     1      -2.675  -1.064  25.827  0.00  0.00    +0.007 A 
ENDBRANCH  11  13
ENDBRANCH   9  10
TORSDOF 5
ENDMDL
