MODEL 1
REMARK VINA RESULT:     -10.1      0.000      0.000
REMARK  Name = 
REMARK  7 active torsions:
REMARK  status: ('A' for Active; 'I' for Inactive)
REMARK    1  A    between atoms: O_2  and  C_3
REMARK    2  A    between atoms: C_3  and  C_4
REMARK    3  A    between atoms: C_4  and  N_5
REMARK    4  A    between atoms: N_8  and  C_9
REMARK    5  A    between atoms: C_9  and  C_10
REMARK    6  A    between atoms: C_10  and  C_11
REMARK    7  A    between atoms: C_11  and  C_12
REMARK                            x       y       z     vdW  Elec       q    Type
REMARK                         _______ _______ _______ _____ _____    ______ ____
ROOT
ATOM      5  N   UNL     1      -2.513   3.301  25.188  0.00  0.00    -0.273 N 
ATOM      6  C   UNL     1      -3.126   2.776  25.013  0.00  0.00    +0.120 C 
ATOM      7  C   UNL     1      -3.138   2.054  24.614  0.00  0.00    +0.095 C 
ATOM      8  N   UNL     1      -3.915   1.778  24.609  0.00  0.00    -0.269 NA
ATOM     18  C   UNL     1      -4.384   2.329  25.007  0.00  0.00    +0.104 C 
ATOM     19  C   UNL     1      -3.896   2.946  25.257  0.00  0.00    +0.151 C 
ATOM     20  O   UNL     1      -4.053   3.641  25.674  0.00  0.00    -0.344 OA
ATOM     21  C   UNL     1      -3.440   4.165  25.848  0.00  0.00    +0.227 C 
ATOM     22  C   UNL     1      -2.670   3.995  25.605  0.00  0.00    +0.256 C 
ATOM     23  O   UNL     1      -2.058   4.519  25.779  0.00  0.00    -0.272 OA
ENDROOT
BRANCH   5   4
ATOM      4  C   UNL     1      -1.743   3.131  24.944  0.00  0.00    +0.126 C 
BRANCH   4   3
ATOM      3  C   UNL     1      -1.185   2.871  25.493  0.00  0.00    +0.164 C 
BRANCH   3   2
ATOM      1  C   UNL     1       0.098   2.305  25.768  0.00  0.00    +0.174 C 
ATOM      2  O   UNL     1      -0.425   2.670  25.245  0.00  0.00    -0.349 OA
ENDBRANCH   3   2
ENDBRANCH   4   3
ENDBRANCH   5   4
BRANCH   8   9
ATOM      9  C   UNL     1      -4.178   1.074  24.268  0.00  0.00    +0.073 C 
BRANCH   9  10
ATOM     10  C   UNL     1      -3.964   0.350  24.600  0.00  0.00    +0.022 C 
BRANCH  10  11
ATOM     11  C   UNL     1      -4.393  -0.330  24.418  0.00  0.00    +0.028 C 
BRANCH  11  12
ATOM     12  C   UNL     1      -4.065  -1.074  24.553  0.00  0.00    -0.022 A 
ATOM     13  C   UNL     1      -4.090  -1.649  23.962  0.00  0.00    -0.004 A 
ATOM     14  C   UNL     1      -3.760  -2.394  24.097  0.00  0.00    -0.000 A 
ATOM     15  C   UNL     1      -3.407  -2.563  24.823  0.00  0.00    -0.000 A 
ATOM     16  C   UNL     1      -3.382  -1.987  25.414  0.00  0.00    -0.000 A 
ATOM     17  C   UNL     1      -3.710  -1.244  25.279  0.00  0.00    -0.004 A 
ENDBRANCH  11  12
ENDBRANCH  10  11
ENDBRANCH   9  10
ENDBRANCH   8   9
TORSDOF 7
ENDMDL
MODEL 2
REMARK VINA RESULT:      -9.5      1.322      2.586
REMARK  Name = 
REMARK  7 active torsions:
REMARK  status: ('A' for Active; 'I' for Inactive)
REMARK    1  A    between atoms: O_2  and  C_3
REMARK    2  A    between atoms: C_3  and  C_4
REMARK    3  A    between atoms: C_4  and  N_5
REMARK    4  A    between atoms: N_8  and  C_9
REMARK    5  A    between atoms: C_9  and  C_10
REMARK    6  A    between atoms: C_10  and  C_11
REMARK    7  A    between atoms: C_11  and  C_12
REMARK                            x       y       z     vdW  Elec       q    Type
REMARK                         _______ _______ _______ _____ _____    ______ ____
ROOT
ATOM      5  N   UNL     1      -1.203   2.600  25.023  0.00  0.00    -0.273 N 
ATOM      6  C   UNL     1      -1.206   1.781  25.125  0.00  0.00    +0.120 C 
ATOM      7  C   UNL     1      -1.770   1.265  25.436  0.00  0.00    +0.095 C 
ATOM      8  N   UNL     1      -1.465   0.500  25.396  0.00  0.00    -0.269 NA
ATOM     18  C   UNL     1      -0.712   0.543  25.060  0.00  0.00    +0.104 C 
ATOM     19  C   UNL     1      -0.552   1.335  24.893  0.00  0.00    +0.151 C 
ATOM     20  O   UNL     1       0.105   1.708  24.559  0.00  0.00    -0.344 OA
ATOM     21  C   UNL     1       0.106   2.526  24.457  0.00  0.00    +0.227 C 
ATOM     22  C   UNL     1      -0.548   2.972  24.690  0.00  0.00    +0.256 C 
ATOM     23  O   UNL     1      -0.545   3.790  24.588  0.00  0.00    -0.272 OA
ENDROOT
BRANCH   5   4
ATOM      4  C   UNL     1      -1.858   3.047  25.256  0.00  0.00    +0.126 C 
BRANCH   4   3
ATOM      3  C   UNL     1      -2.405   3.299  24.694  0.00  0.00    +0.164 C 
BRANCH   3   2
ATOM      1  C   UNL     1      -3.717   3.791  24.410  0.00  0.00    +0.174 C 
ATOM      2  O   UNL     1      -3.083   3.704  24.931  0.00  0.00    -0.349 OA
ENDBRANCH   3   2
ENDBRANCH   4   3
ENDBRANCH   5   4
BRANCH   8   9
ATOM      9  C   UNL     1      -1.845  -0.188  25.647  0.00  0.00    +0.073 C 
BRANCH   9  10
ATOM     10  C   UNL     1      -2.357  -0.586  25.137  0.00  0.00    +0.022 C 
BRANCH  10  11
ATOM     11  C   UNL     1      -2.907  -1.121  25.440  0.00  0.00    +0.028 C 
BRANCH  11  12
ATOM     12  C   UNL     1      -3.337  -1.604  24.928  0.00  0.00    -0.022 A 
ATOM     13  C   UNL     1      -3.184  -2.414  24.900  0.00  0.00    -0.004 A 
ATOM     14  C   UNL     1      -3.615  -2.898  24.388  0.00  0.00    -0.000 A 
ATOM     15  C   UNL     1      -4.198  -2.570  23.905  0.00  0.00    -0.000 A 
ATOM     16  C   UNL     1      -4.351  -1.760  23.933  0.00  0.00    -0.000 A 
ATOM     17  C   UNL     1      -3.920  -1.277  24.445  0.00  0.00    -0.004 A 
ENDBRANCH  11  12
ENDBRANCH  10  11
ENDBRANCH   9  10
ENDBRANCH   8   9
TORSDOF 7
ENDMDL
