MODEL 1
REMARK VINA RESULT:     -12.3      0.000      0.000
REMARK  Name = 
REMARK  8 active torsions:
REMARK  status: ('A' for Active; 'I' for Inactive)
REMARK    1  A    between atoms: O_2  and  C_3
REMARK    2  A    between atoms: C_6  and  C_9
REMARK    3  A    between atoms: C_11  and  C_12
REMARK    4  A    between atoms: C_12  and  C_13
REMARK    5  A    between atoms: C_18  and  C_19
REMARK    6  A    between atoms: C_19  and  C_20
REMARK    7  A    between atoms: N_22  and  C_23
REMARK    8  A    between atoms: C_23  and  C_24
REMARK                            x       y       z     vdW  Elec       q    Type
REMARK                         _______ _______ _______ _____ _____    ______ ____
ROOT
ATOM     13  C   UNL     1      -0.647   2.380  25.237  0.00  0.00    +0.024 C 
ATOM     14  C   UNL     1      -0.076   2.286  24.649  0.00  0.00    +0.089 C 
ATOM     15  N   UNL     1       0.076   2.901  24.119  0.00  0.00    -0.218 NA
ATOM     16  C   UNL     1      -0.342   3.609  24.178  0.00  0.00    +0.089 C 
ATOM     17  C   UNL     1      -0.913   3.703  24.766  0.00  0.00    +0.019 C 
ATOM     18  C   UNL     1      -1.065   3.088  25.296  0.00  0.00    +0.012 C 
ENDROOT
BRANCH  13  12
ATOM     12  C   UNL     1      -0.799   1.766  25.766  0.00  0.00    +0.051 C 
BRANCH  12  11
ATOM      9  C   UNL     1      -1.415  -0.192  25.180  0.00  0.00    +0.177 A 
ATOM     10  C   UNL     1      -1.576   0.544  25.517  0.00  0.00    +0.058 A 
ATOM     11  C   UNL     1      -0.885   0.994  25.489  0.00  0.00    +0.101 A 
ATOM     31  N   UNL     1      -0.297   0.537  25.135  0.00  0.00    -0.081 NA
ATOM     32  O   UNL     1      -0.624  -0.196  24.944  0.00  0.00    -0.354 OA
BRANCH   9   6
ATOM      3  C   UNL     1      -3.019  -2.059  24.923  0.00  0.00    +0.139 A 
ATOM      4  C   UNL     1      -3.258  -1.355  25.281  0.00  0.00    +0.037 A 
ATOM      5  C   UNL     1      -2.723  -0.733  25.367  0.00  0.00    +0.006 A 
ATOM      6  C   UNL     1      -1.949  -0.814  25.094  0.00  0.00    +0.037 A 
ATOM      7  C   UNL     1      -1.709  -1.517  24.736  0.00  0.00    +0.006 A 
ATOM      8  C   UNL     1      -2.244  -2.140  24.650  0.00  0.00    +0.037 A 
BRANCH   3   2
ATOM      1  C   UNL     1      -3.963  -2.777  24.127  0.00  0.00    +0.252 C 
ATOM      2  O   UNL     1      -3.554  -2.681  24.837  0.00  0.00    -0.471 OA
ENDBRANCH   3   2
ENDBRANCH   9   6
ENDBRANCH  12  11
ENDBRANCH  13  12
BRANCH  18  19
ATOM     19  C   UNL     1      -1.636   3.183  25.884  0.00  0.00    +0.087 C 
BRANCH  19  20
ATOM     20  C   UNL     1      -2.343   3.572  25.714  0.00  0.00    +0.242 C 
ATOM     21  O   UNL     1      -2.360   4.395  25.665  0.00  0.00    -0.273 OA
ATOM     22  N   UNL     1      -3.034   3.137  25.592  0.00  0.00    -0.201 NA
BRANCH  22  23
ATOM     23  C   UNL     1      -3.741   3.526  25.422  0.00  0.00    +0.141 C 
BRANCH  23  24
ATOM     24  C   UNL     1      -4.433   3.092  25.305  0.00  0.00    -0.000 A 
ATOM     25  C   UNL     1      -5.073   3.190  25.815  0.00  0.00    -0.000 A 
ATOM     26  C   UNL     1      -5.765   2.756  25.698  0.00  0.00    +0.029 A 
ATOM     27  C   UNL     1      -5.816   2.224  25.069  0.00  0.00    +0.140 A 
ATOM     28  F   UNL     1      -6.508   1.790  24.952  0.00  0.00    -0.204 F 
ATOM     29  C   UNL     1      -5.176   2.127  24.559  0.00  0.00    +0.029 A 
ATOM     30  C   UNL     1      -4.484   2.560  24.676  0.00  0.00    -0.000 A 
ENDBRANCH  23  24
ENDBRANCH  22  23
ENDBRANCH  19  20
ENDBRANCH  18  19
TORSDOF 8
ENDMDL
MODEL 2
REMARK VINA RESULT:     -12.1      1.828      3.770
REMARK  Name = 
REMARK  8 active torsions:
REMARK  status: ('A' for Active; 'I' for Inactive)
REMARK    1  A    between atoms: O_2  and  C_3
REMARK    2  A    between atoms: C_6  and  C_9
REMARK    3  A    between atoms: C_11  and  C_12
REMARK    4  A    between atoms: C_12  and  C_13
REMARK    5  A    between atoms: C_18  and  C_19
REMARK    6  A    between atoms: C_19  and  C_20
REMARK    7  A    between atoms: N_22  and  C_23
REMARK    8  A    between atoms: C_23  and  C_24
REMARK                            x       y       z     vdW  Elec       q    Type
REMARK                         _______ _______ _______ _____ _____    ______ ____
ROOT
ATOM     13  C   UNL     1      -5.033   2.438  24.935  0.00  0.00    +0.024 C 
ATOM     14  C   UNL     1      -5.627   2.361  25.504  0.00  0.00    +0.089 C 
ATOM     15  N   UNL     1      -5.790   2.987  26.017  0.00  0.00    -0.218 NA
ATOM     16  C   UNL     1      -5.360   3.688  25.963  0.00  0.00    +0.089 C 
ATOM     17  C   UNL     1      -4.766   3.765  25.394  0.00  0.00    +0.019 C 
ATOM     18  C   UNL     1      -4.603   3.139  24.881  0.00  0.00    +0.012 C 
ENDROOT
BRANCH  13  12
ATOM     12  C   UNL     1      -4.870   1.813  24.423  0.00  0.00    +0.051 C 
BRANCH  12  11
ATOM      9  C   UNL     1      -4.136  -0.128  24.925  0.00  0.00    +0.177 A 
ATOM     10  C   UNL     1      -4.098   0.563  24.475  0.00  0.00    +0.058 A 
ATOM     11  C   UNL     1      -4.705   1.063  24.724  0.00  0.00    +0.101 A 
ATOM     31  N   UNL     1      -5.119   0.682  25.328  0.00  0.00    -0.081 NA
ATOM     32  O   UNL     1      -4.767  -0.054  25.452  0.00  0.00    -0.354 OA
BRANCH   9   6
ATOM      3  C   UNL     1      -2.625  -2.078  24.728  0.00  0.00    +0.139 A 
ATOM      4  C   UNL     1      -3.392  -2.117  24.427  0.00  0.00    +0.037 A 
ATOM      5  C   UNL     1      -3.895  -1.467  24.492  0.00  0.00    +0.006 A 
ATOM      6  C   UNL     1      -3.632  -0.778  24.859  0.00  0.00    +0.037 A 
ATOM      7  C   UNL     1      -2.865  -0.737  25.161  0.00  0.00    +0.006 A 
ATOM      8  C   UNL     1      -2.362  -1.387  25.095  0.00  0.00    +0.037 A 
BRANCH   3   2
ATOM      1  C   UNL     1      -1.337  -2.619  24.427  0.00  0.00    +0.252 C 
ATOM      2  O   UNL     1      -2.121  -2.728  24.662  0.00  0.00    -0.471 OA
ENDBRANCH   3   2
ENDBRANCH   9   6
ENDBRANCH  12  11
ENDBRANCH  13  12
BRANCH  18  19
ATOM     19  C   UNL     1      -4.009   3.217  24.313  0.00  0.00    +0.087 C 
BRANCH  19  20
ATOM     20  C   UNL     1      -3.319   3.631  24.492  0.00  0.00    +0.242 C 
ATOM     21  O   UNL     1      -3.323   4.456  24.500  0.00  0.00    -0.273 OA
ATOM     22  N   UNL     1      -2.624   3.220  24.663  0.00  0.00    -0.201 NA
BRANCH  22  23
ATOM     23  C   UNL     1      -1.934   3.634  24.842  0.00  0.00    +0.141 C 
BRANCH  23  24
ATOM     24  C   UNL     1      -1.259   3.227  25.087  0.00  0.00    -0.000 A 
ATOM     25  C   UNL     1      -1.104   3.129  25.891  0.00  0.00    -0.000 A 
ATOM     26  C   UNL     1      -0.431   2.722  26.136  0.00  0.00    +0.029 A 
ATOM     27  C   UNL     1       0.090   2.411  25.577  0.00  0.00    +0.140 A 
ATOM     28  F   UNL     1       0.763   2.004  25.821  0.00  0.00    -0.204 F 
ATOM     29  C   UNL     1      -0.065   2.508  24.772  0.00  0.00    +0.029 A 
ATOM     30  C   UNL     1      -0.739   2.916  24.527  0.00  0.00    -0.000 A 
ENDBRANCH  23  24
ENDBRANCH  22  23
ENDBRANCH  19  20
ENDBRANCH  18  19
TORSDOF 8
ENDMDL
MODEL 3
REMARK VINA RESULT:     -11.8      1.473      4.453
REMARK  Name = 
REMARK  8 active torsions:
REMARK  status: ('A' for Active; 'I' for Inactive)
REMARK    1  A    between atoms: O_2  and  C_3
REMARK    2  A    between atoms: C_6  and  C_9
REMARK    3  A    between atoms: C_11  and  C_12
REMARK    4  A    between atoms: C_12  and  C_13
REMARK    5  A    between atoms: C_18  and  C_19
REMARK    6  A    between atoms: C_19  and  C_20
REMARK    7  A    between atoms: N_22  and  C_23
REMARK    8  A    between atoms: C_23  and  C_24
REMARK                            x       y       z     vdW  Elec       q    Type
REMARK                         _______ _______ _______ _____ _____    ______ ____
ROOT
ATOM     13  C   UNL     1      -0.204   1.020  24.689  0.00  0.00    +0.024 C 
ATOM     14  C   UNL     1       0.189   1.377  24.057  0.00  0.00    +0.089 C 
ATOM     15  N   UNL     1       0.467   0.917  23.431  0.00  0.00    -0.218 NA
ATOM     16  C   UNL     1       0.352   0.100  23.436  0.00  0.00    +0.089 C 
ATOM     17  C   UNL     1      -0.041  -0.257  24.068  0.00  0.00    +0.019 C 
ATOM     18  C   UNL     1      -0.319   0.203  24.694  0.00  0.00    +0.012 C 
ENDROOT
BRANCH  13  12
ATOM     12  C   UNL     1      -0.481   1.480  25.315  0.00  0.00    +0.051 C 
BRANCH  12  11
ATOM      9  C   UNL     1      -2.057   2.902  25.087  0.00  0.00    +0.177 A 
ATOM     10  C   UNL     1      -1.785   2.158  25.319  0.00  0.00    +0.058 A 
ATOM     11  C   UNL     1      -0.975   2.124  25.167  0.00  0.00    +0.101 A 
ATOM     31  N   UNL     1      -0.745   2.846  24.840  0.00  0.00    -0.081 NA
ATOM     32  O   UNL     1      -1.414   3.327  24.791  0.00  0.00    -0.354 OA
BRANCH   9   6
ATOM      3  C   UNL     1      -4.388   3.716  25.249  0.00  0.00    +0.139 A 
ATOM      4  C   UNL     1      -4.170   3.208  24.637  0.00  0.00    +0.037 A 
ATOM      5  C   UNL     1      -3.393   2.937  24.583  0.00  0.00    +0.006 A 
ATOM      6  C   UNL     1      -2.834   3.173  25.141  0.00  0.00    +0.037 A 
ATOM      7  C   UNL     1      -3.051   3.681  25.754  0.00  0.00    +0.006 A 
ATOM      8  C   UNL     1      -3.829   3.953  25.808  0.00  0.00    +0.037 A 
BRANCH   3   2
ATOM      1  C   UNL     1      -5.750   3.502  25.626  0.00  0.00    +0.252 C 
ATOM      2  O   UNL     1      -5.166   3.987  25.303  0.00  0.00    -0.471 OA
ENDBRANCH   3   2
ENDBRANCH   9   6
ENDBRANCH  12  11
ENDBRANCH  13  12
BRANCH  18  19
ATOM     19  C   UNL     1      -0.712  -0.154  25.325  0.00  0.00    +0.087 C 
BRANCH  19  20
ATOM     20  C   UNL     1      -0.996  -0.925  25.251  0.00  0.00    +0.242 C 
ATOM     21  O   UNL     1      -0.481  -1.564  25.326  0.00  0.00    -0.273 OA
ATOM     22  N   UNL     1      -1.797  -1.056  25.101  0.00  0.00    -0.201 NA
BRANCH  22  23
ATOM     23  C   UNL     1      -2.082  -1.827  25.026  0.00  0.00    +0.141 C 
BRANCH  23  24
ATOM     24  C   UNL     1      -2.821  -1.963  24.687  0.00  0.00    -0.000 A 
ATOM     25  C   UNL     1      -3.394  -1.369  24.691  0.00  0.00    -0.000 A 
ATOM     26  C   UNL     1      -4.133  -1.505  24.352  0.00  0.00    +0.029 A 
ATOM     27  C   UNL     1      -4.301  -2.237  24.007  0.00  0.00    +0.140 A 
ATOM     28  F   UNL     1      -5.039  -2.373  23.668  0.00  0.00    -0.204 F 
ATOM     29  C   UNL     1      -3.728  -2.830  24.003  0.00  0.00    +0.029 A 
ATOM     30  C   UNL     1      -2.988  -2.694  24.343  0.00  0.00    -0.000 A 
ENDBRANCH  23  24
ENDBRANCH  22  23
ENDBRANCH  19  20
ENDBRANCH  18  19
TORSDOF 8
ENDMDL
MODEL 4
REMARK VINA RESULT:     -11.8      1.237      4.183
REMARK  Name = 
REMARK  8 active torsions:
REMARK  status: ('A' for Active; 'I' for Inactive)
REMARK    1  A    between atoms: O_2  and  C_3
REMARK    2  A    between atoms: C_6  and  C_9
REMARK    3  A    between atoms: C_11  and  C_12
REMARK    4  A    between atoms: C_12  and  C_13
REMARK    5  A    between atoms: C_18  and  C_19
REMARK    6  A    between atoms: C_19  and  C_20
REMARK    7  A    between atoms: N_22  and  C_23
REMARK    8  A    between atoms: C_23  and  C_24
REMARK                            x       y       z     vdW  Elec       q    Type
REMARK                         _______ _______ _______ _____ _____    ______ ____
ROOT
ATOM     13  C   UNL     1      -1.958  -1.295  25.239  0.00  0.00    +0.024 C 
ATOM     14  C   UNL     1      -1.419  -1.739  24.799  0.00  0.00    +0.089 C 
ATOM     15  N   UNL     1      -1.689  -2.315  24.273  0.00  0.00    -0.218 NA
ATOM     16  C   UNL     1      -2.499  -2.447  24.186  0.00  0.00    +0.089 C 
ATOM     17  C   UNL     1      -3.038  -2.003  24.626  0.00  0.00    +0.019 C 
ATOM     18  C   UNL     1      -2.768  -1.428  25.152  0.00  0.00    +0.012 C 
ENDROOT
BRANCH  13  12
ATOM     12  C   UNL     1      -1.688  -0.720  25.764  0.00  0.00    +0.051 C 
BRANCH  12  11
ATOM      9  C   UNL     1      -0.770   1.125  25.209  0.00  0.00    +0.177 A 
ATOM     10  C   UNL     1      -1.390   0.704  25.553  0.00  0.00    +0.058 A 
ATOM     11  C   UNL     1      -1.217  -0.101  25.492  0.00  0.00    +0.101 A 
ATOM     31  N   UNL     1      -0.489  -0.177  25.110  0.00  0.00    -0.081 NA
ATOM     32  O   UNL     1      -0.213   0.581  24.935  0.00  0.00    -0.354 OA
BRANCH   9   6
ATOM      3  C   UNL     1      -0.608   3.588  25.031  0.00  0.00    +0.139 A 
ATOM      4  C   UNL     1      -0.676   3.128  24.349  0.00  0.00    +0.037 A 
ATOM      5  C   UNL     1      -0.730   2.307  24.409  0.00  0.00    +0.006 A 
ATOM      6  C   UNL     1      -0.716   1.946  25.150  0.00  0.00    +0.037 A 
ATOM      7  C   UNL     1      -0.648   2.405  25.832  0.00  0.00    +0.006 A 
ATOM      8  C   UNL     1      -0.594   3.226  25.773  0.00  0.00    +0.037 A 
BRANCH   3   2
ATOM      1  C   UNL     1      -1.235   4.872  25.025  0.00  0.00    +0.252 C 
ATOM      2  O   UNL     1      -0.554   4.409  24.971  0.00  0.00    -0.471 OA
ENDBRANCH   3   2
ENDBRANCH   9   6
ENDBRANCH  12  11
ENDBRANCH  13  12
BRANCH  18  19
ATOM     19  C   UNL     1      -3.308  -0.985  25.592  0.00  0.00    +0.087 C 
BRANCH  19  20
ATOM     20  C   UNL     1      -3.970  -0.659  25.224  0.00  0.00    +0.242 C 
ATOM     21  O   UNL     1      -4.449  -1.130  24.746  0.00  0.00    -0.273 OA
ATOM     22  N   UNL     1      -4.154   0.138  25.336  0.00  0.00    -0.201 NA
BRANCH  22  23
ATOM     23  C   UNL     1      -4.817   0.463  24.968  0.00  0.00    +0.141 C 
BRANCH  23  24
ATOM     24  C   UNL     1      -4.963   1.273  25.023  0.00  0.00    -0.000 A 
ATOM     25  C   UNL     1      -4.534   1.803  24.559  0.00  0.00    -0.000 A 
ATOM     26  C   UNL     1      -4.680   2.613  24.614  0.00  0.00    +0.029 A 
ATOM     27  C   UNL     1      -5.257   2.894  25.133  0.00  0.00    +0.140 A 
ATOM     28  F   UNL     1      -5.403   3.703  25.188  0.00  0.00    -0.204 F 
ATOM     29  C   UNL     1      -5.686   2.364  25.597  0.00  0.00    +0.029 A 
ATOM     30  C   UNL     1      -5.540   1.553  25.542  0.00  0.00    -0.000 A 
ENDBRANCH  23  24
ENDBRANCH  22  23
ENDBRANCH  19  20
ENDBRANCH  18  19
TORSDOF 8
ENDMDL
MODEL 5
REMARK VINA RESULT:     -11.4      1.858      4.791
REMARK  Name = 
REMARK  8 active torsions:
REMARK  status: ('A' for Active; 'I' for Inactive)
REMARK    1  A    between atoms: O_2  and  C_3
REMARK    2  A    between atoms: C_6  and  C_9
REMARK    3  A    between atoms: C_11  and  C_12
REMARK    4  A    between atoms: C_12  and  C_13
REMARK    5  A    between atoms: C_18  and  C_19
REMARK    6  A    between atoms: C_19  and  C_20
REMARK    7  A    between atoms: N_22  and  C_23
REMARK    8  A    between atoms: C_23  and  C_24
REMARK                            x       y       z     vdW  Elec       q    Type
REMARK                         _______ _______ _______ _____ _____    ______ ____
ROOT
ATOM     13  C   UNL     1      -2.727  -1.624  25.109  0.00  0.00    +0.024 C 
ATOM     14  C   UNL     1      -3.043  -2.184  24.592  0.00  0.00    +0.089 C 
ATOM     15  N   UNL     1      -2.544  -2.617  24.097  0.00  0.00    -0.218 NA
ATOM     16  C   UNL     1      -1.730  -2.489  24.119  0.00  0.00    +0.089 C 
ATOM     17  C   UNL     1      -1.414  -1.929  24.636  0.00  0.00    +0.019 C 
ATOM     18  C   UNL     1      -1.913  -1.496  25.131  0.00  0.00    +0.012 C 
ENDROOT
BRANCH  13  12
ATOM     12  C   UNL     1      -3.226  -1.192  25.604  0.00  0.00    +0.051 C 
BRANCH  12  11
ATOM      9  C   UNL     1      -4.513   0.413  25.034  0.00  0.00    +0.177 A 
ATOM     10  C   UNL     1      -3.901   0.110  25.496  0.00  0.00    +0.058 A 
ATOM     11  C   UNL     1      -3.784  -0.678  25.280  0.00  0.00    +0.101 A 
ATOM     31  N   UNL     1      -4.324  -0.862  24.684  0.00  0.00    -0.081 NA
ATOM     32  O   UNL     1      -4.775  -0.187  24.531  0.00  0.00    -0.354 OA
BRANCH   9   6
ATOM      3  C   UNL     1      -5.407   2.719  25.134  0.00  0.00    +0.139 A 
ATOM      4  C   UNL     1      -5.843   2.093  25.447  0.00  0.00    +0.037 A 
ATOM      5  C   UNL     1      -5.545   1.324  25.414  0.00  0.00    +0.006 A 
ATOM      6  C   UNL     1      -4.811   1.182  25.067  0.00  0.00    +0.037 A 
ATOM      7  C   UNL     1      -4.373   1.807  24.753  0.00  0.00    +0.006 A 
ATOM      8  C   UNL     1      -4.671   2.576  24.787  0.00  0.00    +0.037 A 
BRANCH   3   2
ATOM      1  C   UNL     1      -5.307   4.065  25.602  0.00  0.00    +0.252 C 
ATOM      2  O   UNL     1      -5.705   3.488  25.167  0.00  0.00    -0.471 OA
ENDBRANCH   3   2
ENDBRANCH   9   6
ENDBRANCH  12  11
ENDBRANCH  13  12
BRANCH  18  19
ATOM     19  C   UNL     1      -1.596  -0.936  25.647  0.00  0.00    +0.087 C 
BRANCH  19  20
ATOM     20  C   UNL     1      -0.969  -0.459  25.405  0.00  0.00    +0.242 C 
ATOM     21  O   UNL     1      -0.275  -0.802  25.122  0.00  0.00    -0.273 OA
ATOM     22  N   UNL     1      -1.037   0.363  25.444  0.00  0.00    -0.201 NA
BRANCH  22  23
ATOM     23  C   UNL     1      -0.410   0.840  25.201  0.00  0.00    +0.141 C 
BRANCH  23  24
ATOM     24  C   UNL     1      -0.495   1.661  25.194  0.00  0.00    -0.000 A 
ATOM     25  C   UNL     1      -0.518   2.081  25.903  0.00  0.00    -0.000 A 
ATOM     26  C   UNL     1      -0.603   2.901  25.896  0.00  0.00    +0.029 A 
ATOM     27  C   UNL     1      -0.665   3.303  25.177  0.00  0.00    +0.140 A 
ATOM     28  F   UNL     1      -0.750   4.123  25.170  0.00  0.00    -0.204 F 
ATOM     29  C   UNL     1      -0.642   2.883  24.468  0.00  0.00    +0.029 A 
ATOM     30  C   UNL     1      -0.558   2.062  24.475  0.00  0.00    -0.000 A 
ENDBRANCH  23  24
ENDBRANCH  22  23
ENDBRANCH  19  20
ENDBRANCH  18  19
TORSDOF 8
ENDMDL
MODEL 6
REMARK VINA RESULT:     -11.4      1.983      4.016
REMARK  Name = 
REMARK  8 active torsions:
REMARK  status: ('A' for Active; 'I' for Inactive)
REMARK    1  A    between atoms: O_2  and  C_3
REMARK    2  A    between atoms: C_6  and  C_9
REMARK    3  A    between atoms: C_11  and  C_12
REMARK    4  A    between atoms: C_12  and  C_13
REMARK    5  A    between atoms: C_18  and  C_19
REMARK    6  A    between atoms: C_19  and  C_20
REMARK    7  A    between atoms: N_22  and  C_23
REMARK    8  A    between atoms: C_23  and  C_24
REMARK                            x       y       z     vdW  Elec       q    Type
REMARK                         _______ _______ _______ _____ _____    ______ ____
ROOT
ATOM     13  C   UNL     1      -3.624   3.193  24.770  0.00  0.00    +0.024 C 
ATOM     14  C   UNL     1      -3.396   3.772  25.312  0.00  0.00    +0.089 C 
ATOM     15  N   UNL     1      -3.855   3.912  25.984  0.00  0.00    -0.218 NA
ATOM     16  C   UNL     1      -4.541   3.474  26.114  0.00  0.00    +0.089 C 
ATOM     17  C   UNL     1      -4.769   2.894  25.571  0.00  0.00    +0.019 C 
ATOM     18  C   UNL     1      -4.310   2.754  24.900  0.00  0.00    +0.012 C 
ENDROOT
BRANCH  13  12
ATOM     12  C   UNL     1      -3.166   3.053  24.099  0.00  0.00    +0.051 C 
BRANCH  12  11
ATOM      9  C   UNL     1      -1.195   2.232  24.116  0.00  0.00    +0.177 A 
ATOM     10  C   UNL     1      -1.997   2.177  23.931  0.00  0.00    +0.058 A 
ATOM     11  C   UNL     1      -2.364   2.874  24.176  0.00  0.00    +0.101 A 
ATOM     31  N   UNL     1      -1.789   3.361  24.512  0.00  0.00    -0.081 NA
ATOM     32  O   UNL     1      -1.066   2.964  24.475  0.00  0.00    -0.354 OA
BRANCH   9   6
ATOM      3  C   UNL     1       0.524   0.508  23.671  0.00  0.00    +0.139 A 
ATOM      4  C   UNL     1      -0.276   0.314  23.628  0.00  0.00    +0.037 A 
ATOM      5  C   UNL     1      -0.849   0.889  23.777  0.00  0.00    +0.006 A 
ATOM      6  C   UNL     1      -0.622   1.658  23.967  0.00  0.00    +0.037 A 
ATOM      7  C   UNL     1       0.179   1.853  24.010  0.00  0.00    +0.006 A 
ATOM      8  C   UNL     1       0.752   1.279  23.862  0.00  0.00    +0.037 A 
BRANCH   3   2
ATOM      1  C   UNL     1       1.427  -0.135  22.769  0.00  0.00    +0.252 C 
ATOM      2  O   UNL     1       1.097  -0.066  23.522  0.00  0.00    -0.471 OA
ENDBRANCH   3   2
ENDBRANCH   9   6
ENDBRANCH  12  11
ENDBRANCH  13  12
BRANCH  18  19
ATOM     19  C   UNL     1      -4.539   2.175  24.358  0.00  0.00    +0.087 C 
BRANCH  19  20
ATOM     20  C   UNL     1      -4.853   1.461  24.626  0.00  0.00    +0.242 C 
ATOM     21  O   UNL     1      -5.616   1.438  24.939  0.00  0.00    -0.273 OA
ATOM     22  N   UNL     1      -4.404   0.770  24.581  0.00  0.00    -0.201 NA
BRANCH  22  23
ATOM     23  C   UNL     1      -4.719   0.056  24.849  0.00  0.00    +0.141 C 
BRANCH  23  24
ATOM     24  C   UNL     1      -4.263  -0.631  24.822  0.00  0.00    -0.000 A 
ATOM     25  C   UNL     1      -4.291  -1.120  24.158  0.00  0.00    -0.000 A 
ATOM     26  C   UNL     1      -3.836  -1.807  24.131  0.00  0.00    +0.029 A 
ATOM     27  C   UNL     1      -3.352  -2.007  24.770  0.00  0.00    +0.140 A 
ATOM     28  F   UNL     1      -2.897  -2.693  24.743  0.00  0.00    -0.204 F 
ATOM     29  C   UNL     1      -3.324  -1.518  25.433  0.00  0.00    +0.029 A 
ATOM     30  C   UNL     1      -3.779  -0.830  25.460  0.00  0.00    -0.000 A 
ENDBRANCH  23  24
ENDBRANCH  22  23
ENDBRANCH  19  20
ENDBRANCH  18  19
TORSDOF 8
ENDMDL
