MODEL 1
REMARK VINA RESULT:     -14.4      0.000      0.000
REMARK  Name = 
REMARK  4 active torsions:
REMARK  status: ('A' for Active; 'I' for Inactive)
REMARK    1  A    between atoms: C_4  and  C_5
REMARK    2  A    between atoms: C_5  and  N_6
REMARK    3  A    between atoms: C_15  and  N_16
REMARK    4  A    between atoms: C_17  and  C_19
REMARK                            x       y       z     vdW  Elec       q    Type
REMARK                         _______ _______ _______ _____ _____    ______ ____
ROOT
ATOM      6  N   UNL     1      -3.273   3.085  25.173  0.00  0.00    -0.269 NA
ATOM      7  C   UNL     1      -3.521   3.858  25.368  0.00  0.00    +0.074 C 
ATOM      8  C   UNL     1      -4.496   3.708  25.432  0.00  0.00    +0.039 C 
ATOM      9  C   UNL     1      -5.304   3.749  25.522  0.00  0.00    +0.011 C 
ATOM     10  C   UNL     1      -4.824   3.262  25.367  0.00  0.00    +0.054 C 
ATOM     11  C   UNL     1      -3.885   3.423  25.308  0.00  0.00    +0.078 C 
ATOM     12  C   UNL     1      -4.743   2.369  25.162  0.00  0.00    +0.041 A 
ATOM     13  C   UNL     1      -5.202   1.692  25.058  0.00  0.00    +0.014 A 
ATOM     14  C   UNL     1      -4.841   0.976  24.864  0.00  0.00    +0.023 A 
ATOM     15  C   UNL     1      -4.022   0.937  24.774  0.00  0.00    +0.130 A 
ATOM     25  C   UNL     1      -3.563   1.615  24.878  0.00  0.00    +0.276 A 
ATOM     26  O   UNL     1      -2.744   1.576  24.787  0.00  0.00    -0.266 OA
ATOM     27  N   UNL     1      -3.924   2.331  25.072  0.00  0.00    -0.298 N 
ATOM     28  C   UNL     1      -4.401   2.777  25.217  0.00  0.00    +0.110 C 
ENDROOT
BRANCH  15  16
ATOM     16  N   UNL     1      -3.662   0.221  24.580  0.00  0.00    -0.171 NA
ATOM     17  C   UNL     1      -3.851  -0.463  25.003  0.00  0.00    +0.269 C 
ATOM     18  O   UNL     1      -4.399  -0.429  25.618  0.00  0.00    -0.268 OA
BRANCH  17  19
ATOM     19  C   UNL     1      -3.492  -1.180  24.809  0.00  0.00    +0.058 A 
ATOM     20  C   UNL     1      -2.735  -1.351  25.089  0.00  0.00    +0.025 A 
ATOM     21  C   UNL     1      -2.376  -2.068  24.896  0.00  0.00    +0.099 A 
ATOM     22  N   UNL     1      -2.774  -2.614  24.423  0.00  0.00    -0.242 NA
ATOM     23  C   UNL     1      -3.531  -2.444  24.143  0.00  0.00    +0.099 A 
ATOM     24  C   UNL     1      -3.890  -1.726  24.336  0.00  0.00    +0.025 A 
ENDBRANCH  17  19
ENDBRANCH  15  16
BRANCH   6   5
ATOM      5  C   UNL     1      -2.761   2.465  24.985  0.00  0.00    +0.101 C 
BRANCH   5   4
ATOM      1  C   UNL     1      -0.370   3.212  23.515  0.00  0.00    +0.130 C 
ATOM      2  N   UNL     1      -0.875   2.967  24.120  0.00  0.00    -0.324 N 
ATOM      3  C   UNL     1      -1.693   2.877  24.062  0.00  0.00    +0.073 A 
ATOM      4  C   UNL     1      -1.974   2.624  24.795  0.00  0.00    +0.012 A 
ATOM     29  C   UNL     1      -1.328   2.556  25.306  0.00  0.00    +0.015 A 
ATOM     30  C   UNL     1      -0.650   2.768  24.888  0.00  0.00    +0.060 A 
ATOM     31  C   UNL     1       0.086   2.753  25.261  0.00  0.00    +0.017 A 
ATOM     32  C   UNL     1       0.142   2.526  26.052  0.00  0.00    +0.001 A 
ATOM     33  C   UNL     1      -0.536   2.314  26.470  0.00  0.00    +0.000 A 
ATOM     34  C   UNL     1      -1.272   2.329  26.097  0.00  0.00    +0.001 A 
ENDBRANCH   5   4
ENDBRANCH   6   5
TORSDOF 4
ENDMDL
MODEL 2
REMARK VINA RESULT:     -14.3      1.006      3.869
REMARK  Name = 
REMARK  4 active torsions:
REMARK  status: ('A' for Active; 'I' for Inactive)
REMARK    1  A    between atoms: C_4  and  C_5
REMARK    2  A    between atoms: C_5  and  N_6
REMARK    3  A    between atoms: C_15  and  N_16
REMARK    4  A    between atoms: C_17  and  C_19
REMARK                            x       y       z     vdW  Elec       q    Type
REMARK                         _______ _______ _______ _____ _____    ______ ____
ROOT
ATOM      6  N   UNL     1      -4.884   0.958  25.083  0.00  0.00    -0.269 NA
ATOM      7  C   UNL     1      -5.698   0.973  25.274  0.00  0.00    +0.074 C 
ATOM      8  C   UNL     1      -5.826   1.947  25.373  0.00  0.00    +0.039 C 
ATOM      9  C   UNL     1      -6.093   2.708  25.490  0.00  0.00    +0.011 C 
ATOM     10  C   UNL     1      -5.490   2.389  25.326  0.00  0.00    +0.054 C 
ATOM     11  C   UNL     1      -5.381   1.445  25.234  0.00  0.00    +0.078 C 
ATOM     12  C   UNL     1      -4.609   2.569  25.134  0.00  0.00    +0.041 A 
ATOM     13  C   UNL     1      -4.086   3.202  25.057  0.00  0.00    +0.014 A 
ATOM     14  C   UNL     1      -3.297   3.063  24.863  0.00  0.00    +0.023 A 
ATOM     15  C   UNL     1      -3.030   2.291  24.746  0.00  0.00    +0.130 A 
ATOM     25  C   UNL     1      -3.552   1.658  24.823  0.00  0.00    +0.276 A 
ATOM     26  O   UNL     1      -3.285   0.886  24.706  0.00  0.00    -0.266 OA
ATOM     27  N   UNL     1      -4.342   1.797  25.017  0.00  0.00    -0.298 N 
ATOM     28  C   UNL     1      -4.905   2.125  25.171  0.00  0.00    +0.110 C 
ENDROOT
BRANCH  15  16
ATOM     16  N   UNL     1      -2.240   2.154  24.552  0.00  0.00    -0.171 NA
ATOM     17  C   UNL     1      -1.641   2.540  24.967  0.00  0.00    +0.269 C 
ATOM     18  O   UNL     1      -1.831   3.063  25.576  0.00  0.00    -0.268 OA
BRANCH  17  19
ATOM     19  C   UNL     1      -0.850   2.403  24.774  0.00  0.00    +0.058 A 
ATOM     20  C   UNL     1      -0.443   2.939  24.297  0.00  0.00    +0.025 A 
ATOM     21  C   UNL     1       0.347   2.802  24.103  0.00  0.00    +0.099 A 
ATOM     22  N   UNL     1       0.730   2.128  24.388  0.00  0.00    -0.242 NA
ATOM     23  C   UNL     1       0.324   1.592  24.865  0.00  0.00    +0.099 A 
ATOM     24  C   UNL     1      -0.467   1.730  25.058  0.00  0.00    +0.025 A 
ENDBRANCH  17  19
ENDBRANCH  15  16
BRANCH   6   5
ATOM      5  C   UNL     1      -4.145   0.646  24.889  0.00  0.00    +0.101 C 
BRANCH   5   4
ATOM      1  C   UNL     1      -4.272  -1.849  23.408  0.00  0.00    +0.130 C 
ATOM      2  N   UNL     1      -4.131  -1.296  24.005  0.00  0.00    -0.324 N 
ATOM      3  C   UNL     1      -4.304  -0.490  23.971  0.00  0.00    +0.073 A 
ATOM      4  C   UNL     1      -4.073  -0.149  24.686  0.00  0.00    +0.012 A 
ATOM     29  C   UNL     1      -3.757  -0.746  25.162  0.00  0.00    +0.015 A 
ATOM     30  C   UNL     1      -3.794  -1.454  24.741  0.00  0.00    +0.060 A 
ATOM     31  C   UNL     1      -3.514  -2.151  25.082  0.00  0.00    +0.017 A 
ATOM     32  C   UNL     1      -3.199  -2.139  25.844  0.00  0.00    +0.001 A 
ATOM     33  C   UNL     1      -3.163  -1.431  26.265  0.00  0.00    +0.000 A 
ATOM     34  C   UNL     1      -3.442  -0.734  25.924  0.00  0.00    +0.001 A 
ENDBRANCH   5   4
ENDBRANCH   6   5
TORSDOF 4
ENDMDL
MODEL 3
REMARK VINA RESULT:     -13.7      1.169      3.056
REMARK  Name = 
REMARK  4 active torsions:
REMARK  status: ('A' for Active; 'I' for Inactive)
REMARK    1  A    between atoms: C_4  and  C_5
REMARK    2  A    between atoms: C_5  and  N_6
REMARK    3  A    between atoms: C_15  and  N_16
REMARK    4  A    between atoms: C_17  and  C_19
REMARK                            x       y       z     vdW  Elec       q    Type
REMARK                         _______ _______ _______ _____ _____    ______ ____
ROOT
ATOM      6  N   UNL     1      -1.887   2.592  25.347  0.00  0.00    -0.269 NA
ATOM      7  C   UNL     1      -1.432   3.221  25.656  0.00  0.00    +0.074 C 
ATOM      8  C   UNL     1      -0.618   2.725  25.915  0.00  0.00    +0.039 C 
ATOM      9  C   UNL     1       0.109   2.469  26.179  0.00  0.00    +0.011 C 
ATOM     10  C   UNL     1      -0.464   2.190  25.884  0.00  0.00    +0.054 C 
ATOM     11  C   UNL     1      -1.244   2.683  25.639  0.00  0.00    +0.078 C 
ATOM     12  C   UNL     1      -0.807   1.389  25.592  0.00  0.00    +0.041 A 
ATOM     13  C   UNL     1      -0.608   0.591  25.533  0.00  0.00    +0.014 A 
ATOM     14  C   UNL     1      -1.144   0.056  25.206  0.00  0.00    +0.023 A 
ATOM     15  C   UNL     1      -1.879   0.319  24.939  0.00  0.00    +0.130 A 
ATOM     25  C   UNL     1      -2.078   1.117  24.998  0.00  0.00    +0.276 A 
ATOM     26  O   UNL     1      -2.813   1.380  24.731  0.00  0.00    -0.266 OA
ATOM     27  N   UNL     1      -1.542   1.652  25.325  0.00  0.00    -0.298 N 
ATOM     28  C   UNL     1      -0.984   1.893  25.607  0.00  0.00    +0.110 C 
ENDROOT
BRANCH  15  16
ATOM     16  N   UNL     1      -2.414  -0.217  24.613  0.00  0.00    -0.171 NA
ATOM     17  C   UNL     1      -2.571  -0.930  24.998  0.00  0.00    +0.269 C 
ATOM     18  O   UNL     1      -2.191  -1.106  25.709  0.00  0.00    -0.268 OA
BRANCH  17  19
ATOM     19  C   UNL     1      -3.106  -1.466  24.672  0.00  0.00    +0.058 A 
ATOM     20  C   UNL     1      -3.779  -1.192  24.281  0.00  0.00    +0.025 A 
ATOM     21  C   UNL     1      -4.314  -1.728  23.955  0.00  0.00    +0.099 A 
ATOM     22  N   UNL     1      -4.176  -2.539  24.022  0.00  0.00    -0.242 NA
ATOM     23  C   UNL     1      -3.505  -2.814  24.412  0.00  0.00    +0.099 A 
ATOM     24  C   UNL     1      -2.969  -2.277  24.738  0.00  0.00    +0.025 A 
ENDBRANCH  17  19
ENDBRANCH  15  16
BRANCH   6   5
ATOM      5  C   UNL     1      -2.528   2.202  25.002  0.00  0.00    +0.101 C 
BRANCH   5   4
ATOM      1  C   UNL     1      -4.067   3.782  23.113  0.00  0.00    +0.130 C 
ATOM      2  N   UNL     1      -3.845   3.363  23.789  0.00  0.00    -0.324 N 
ATOM      3  C   UNL     1      -3.121   2.984  23.909  0.00  0.00    +0.073 A 
ATOM      4  C   UNL     1      -3.137   2.637  24.657  0.00  0.00    +0.012 A 
ATOM     29  C   UNL     1      -3.871   2.800  24.999  0.00  0.00    +0.015 A 
ATOM     30  C   UNL     1      -4.308   3.249  24.462  0.00  0.00    +0.060 A 
ATOM     31  C   UNL     1      -5.071   3.496  24.655  0.00  0.00    +0.017 A 
ATOM     32  C   UNL     1      -5.396   3.294  25.386  0.00  0.00    +0.001 A 
ATOM     33  C   UNL     1      -4.959   2.845  25.923  0.00  0.00    +0.000 A 
ATOM     34  C   UNL     1      -4.196   2.598  25.729  0.00  0.00    +0.001 A 
ENDBRANCH   5   4
ENDBRANCH   6   5
TORSDOF 4
ENDMDL
MODEL 4
REMARK VINA RESULT:     -13.4      1.335      4.472
REMARK  Name = 
REMARK  4 active torsions:
REMARK  status: ('A' for Active; 'I' for Inactive)
REMARK    1  A    between atoms: C_4  and  C_5
REMARK    2  A    between atoms: C_5  and  N_6
REMARK    3  A    between atoms: C_15  and  N_16
REMARK    4  A    between atoms: C_17  and  C_19
REMARK                            x       y       z     vdW  Elec       q    Type
REMARK                         _______ _______ _______ _____ _____    ______ ____
ROOT
ATOM      6  N   UNL     1      -4.029  -0.478  24.489  0.00  0.00    -0.269 NA
ATOM      7  C   UNL     1      -4.548  -1.068  24.205  0.00  0.00    +0.074 C 
ATOM      8  C   UNL     1      -3.942  -1.848  24.234  0.00  0.00    +0.039 C 
ATOM      9  C   UNL     1      -3.577  -2.576  24.198  0.00  0.00    +0.011 C 
ATOM     10  C   UNL     1      -3.410  -1.921  24.385  0.00  0.00    +0.054 C 
ATOM     11  C   UNL     1      -4.008  -1.177  24.352  0.00  0.00    +0.078 C 
ATOM     12  C   UNL     1      -2.710  -1.420  24.708  0.00  0.00    +0.041 A 
ATOM     13  C   UNL     1      -1.922  -1.494  24.939  0.00  0.00    +0.014 A 
ATOM     14  C   UNL     1      -1.507  -0.834  25.206  0.00  0.00    +0.023 A 
ATOM     15  C   UNL     1      -1.879  -0.098  25.241  0.00  0.00    +0.130 A 
ATOM     25  C   UNL     1      -2.667  -0.023  25.009  0.00  0.00    +0.276 A 
ATOM     26  O   UNL     1      -3.039   0.712  25.045  0.00  0.00    -0.266 OA
ATOM     27  N   UNL     1      -3.083  -0.684  24.743  0.00  0.00    -0.298 N 
ATOM     28  C   UNL     1      -3.217  -1.317  24.570  0.00  0.00    +0.110 C 
ENDROOT
BRANCH  15  16
ATOM     16  N   UNL     1      -1.463   0.562  25.507  0.00  0.00    -0.171 NA
ATOM     17  C   UNL     1      -0.763   0.787  25.132  0.00  0.00    +0.269 C 
ATOM     18  O   UNL     1      -0.481   0.352  24.491  0.00  0.00    -0.268 OA
BRANCH  17  19
ATOM     19  C   UNL     1      -0.346   1.447  25.398  0.00  0.00    +0.058 A 
ATOM     20  C   UNL     1      -0.309   1.614  26.205  0.00  0.00    +0.025 A 
ATOM     21  C   UNL     1       0.108   2.275  26.471  0.00  0.00    +0.099 A 
ATOM     22  N   UNL     1       0.488   2.767  25.929  0.00  0.00    -0.242 NA
ATOM     23  C   UNL     1       0.452   2.601  25.123  0.00  0.00    +0.099 A 
ATOM     24  C   UNL     1       0.034   1.940  24.857  0.00  0.00    +0.025 A 
ENDBRANCH  17  19
ENDBRANCH  15  16
BRANCH   6   5
ATOM      5  C   UNL     1      -3.768   0.269  24.725  0.00  0.00    +0.101 C 
BRANCH   5   4
ATOM      1  C   UNL     1      -6.013   1.824  25.713  0.00  0.00    +0.130 C 
ATOM      2  N   UNL     1      -5.343   1.594  25.289  0.00  0.00    -0.324 N 
ATOM      3  C   UNL     1      -4.948   0.874  25.361  0.00  0.00    +0.073 A 
ATOM      4  C   UNL     1      -4.312   0.879  24.835  0.00  0.00    +0.012 A 
ATOM     29  C   UNL     1      -4.315   1.604  24.439  0.00  0.00    +0.015 A 
ATOM     30  C   UNL     1      -4.952   2.045  24.720  0.00  0.00    +0.060 A 
ATOM     31  C   UNL     1      -5.095   2.801  24.421  0.00  0.00    +0.017 A 
ATOM     32  C   UNL     1      -4.599   3.114  23.841  0.00  0.00    +0.001 A 
ATOM     33  C   UNL     1      -3.961   2.673  23.560  0.00  0.00    +0.000 A 
ATOM     34  C   UNL     1      -3.819   1.918  23.859  0.00  0.00    +0.001 A 
ENDBRANCH   5   4
ENDBRANCH   6   5
TORSDOF 4
ENDMDL
MODEL 5
REMARK VINA RESULT:     -13.3      1.258      3.764
REMARK  Name = 
REMARK  4 active torsions:
REMARK  status: ('A' for Active; 'I' for Inactive)
REMARK    1  A    between atoms: C_4  and  C_5
REMARK    2  A    between atoms: C_5  and  N_6
REMARK    3  A    between atoms: C_15  and  N_16
REMARK    4  A    between atoms: C_17  and  C_19
REMARK                            x       y       z     vdW  Elec       q    Type
REMARK                         _______ _______ _______ _____ _____    ______ ____
ROOT
ATOM      6  N   UNL     1      -1.745  -0.791  24.645  0.00  0.00    -0.269 NA
ATOM      7  C   UNL     1      -1.403  -1.554  24.643  0.00  0.00    +0.074 C 
ATOM      8  C   UNL     1      -2.225  -2.103  24.628  0.00  0.00    +0.039 C 
ATOM      9  C   UNL     1      -2.793  -2.686  24.616  0.00  0.00    +0.011 C 
ATOM     10  C   UNL     1      -2.770  -1.985  24.622  0.00  0.00    +0.054 C 
ATOM     11  C   UNL     1      -1.967  -1.468  24.636  0.00  0.00    +0.078 C 
ATOM     12  C   UNL     1      -3.315  -1.245  24.622  0.00  0.00    +0.041 A 
ATOM     13  C   UNL     1      -4.114  -1.039  24.613  0.00  0.00    +0.014 A 
ATOM     14  C   UNL     1      -4.334  -0.244  24.617  0.00  0.00    +0.023 A 
ATOM     15  C   UNL     1      -3.755   0.345  24.629  0.00  0.00    +0.130 A 
ATOM     25  C   UNL     1      -2.957   0.138  24.637  0.00  0.00    +0.276 A 
ATOM     26  O   UNL     1      -2.378   0.726  24.649  0.00  0.00    -0.266 OA
ATOM     27  N   UNL     1      -2.737  -0.657  24.634  0.00  0.00    -0.298 N 
ATOM     28  C   UNL     1      -2.787  -1.325  24.628  0.00  0.00    +0.110 C 
ENDROOT
BRANCH  15  16
ATOM     16  N   UNL     1      -3.976   1.139  24.633  0.00  0.00    -0.171 NA
ATOM     17  C   UNL     1      -4.600   1.391  25.111  0.00  0.00    +0.269 C 
ATOM     18  O   UNL     1      -5.002   0.849  25.584  0.00  0.00    -0.268 OA
BRANCH  17  19
ATOM     19  C   UNL     1      -4.821   2.186  25.115  0.00  0.00    +0.058 A 
ATOM     20  C   UNL     1      -4.438   2.724  24.621  0.00  0.00    +0.025 A 
ATOM     21  C   UNL     1      -4.659   3.519  24.625  0.00  0.00    +0.099 A 
ATOM     22  N   UNL     1      -5.265   3.775  25.124  0.00  0.00    -0.242 NA
ATOM     23  C   UNL     1      -5.648   3.238  25.618  0.00  0.00    +0.099 A 
ATOM     24  C   UNL     1      -5.426   2.442  25.614  0.00  0.00    +0.025 A 
ENDBRANCH  17  19
ENDBRANCH  15  16
BRANCH   6   5
ATOM      5  C   UNL     1      -1.787   0.033  24.651  0.00  0.00    +0.101 C 
BRANCH   5   4
ATOM      1  C   UNL     1       0.562   1.146  23.356  0.00  0.00    +0.130 C 
ATOM      2  N   UNL     1      -0.031   0.993  23.909  0.00  0.00    -0.324 N 
ATOM      3  C   UNL     1      -0.650   0.455  23.820  0.00  0.00    +0.073 A 
ATOM      4  C   UNL     1      -1.111   0.482  24.504  0.00  0.00    +0.012 A 
ATOM     29  C   UNL     1      -0.776   1.037  25.015  0.00  0.00    +0.015 A 
ATOM     30  C   UNL     1      -0.109   1.353  24.647  0.00  0.00    +0.060 A 
ATOM     31  C   UNL     1       0.341   1.927  25.032  0.00  0.00    +0.017 A 
ATOM     32  C   UNL     1       0.123   2.186  25.784  0.00  0.00    +0.001 A 
ATOM     33  C   UNL     1      -0.544   1.870  26.153  0.00  0.00    +0.000 A 
ATOM     34  C   UNL     1      -0.994   1.296  25.768  0.00  0.00    +0.001 A 
ENDBRANCH   5   4
ENDBRANCH   6   5
TORSDOF 4
ENDMDL
MODEL 6
REMARK VINA RESULT:     -12.9      1.400      4.713
REMARK  Name = 
REMARK  4 active torsions:
REMARK  status: ('A' for Active; 'I' for Inactive)
REMARK    1  A    between atoms: C_4  and  C_5
REMARK    2  A    between atoms: C_5  and  N_6
REMARK    3  A    between atoms: C_15  and  N_16
REMARK    4  A    between atoms: C_17  and  C_19
REMARK                            x       y       z     vdW  Elec       q    Type
REMARK                         _______ _______ _______ _____ _____    ______ ____
ROOT
ATOM      6  N   UNL     1      -1.381   0.105  24.442  0.00  0.00    -0.269 NA
ATOM      7  C   UNL     1      -0.664  -0.222  24.165  0.00  0.00    +0.074 C 
ATOM      8  C   UNL     1      -0.144   0.608  24.032  0.00  0.00    +0.039 C 
ATOM      9  C   UNL     1       0.407   1.186  23.872  0.00  0.00    +0.011 C 
ATOM     10  C   UNL     1      -0.253   1.150  24.105  0.00  0.00    +0.054 C 
ATOM     11  C   UNL     1      -0.743   0.339  24.229  0.00  0.00    +0.078 C 
ATOM     12  C   UNL     1      -0.948   1.681  24.387  0.00  0.00    +0.041 A 
ATOM     13  C   UNL     1      -1.141   2.474  24.506  0.00  0.00    +0.014 A 
ATOM     14  C   UNL     1      -1.889   2.679  24.786  0.00  0.00    +0.023 A 
ATOM     15  C   UNL     1      -2.445   2.091  24.947  0.00  0.00    +0.130 A 
ATOM     25  C   UNL     1      -2.253   1.298  24.828  0.00  0.00    +0.276 A 
ATOM     26  O   UNL     1      -2.809   0.710  24.989  0.00  0.00    -0.266 OA
ATOM     27  N   UNL     1      -1.504   1.093  24.548  0.00  0.00    -0.298 N 
ATOM     28  C   UNL     1      -0.875   1.155  24.328  0.00  0.00    +0.110 C 
ENDROOT
BRANCH  15  16
ATOM     16  N   UNL     1      -3.193   2.297  25.227  0.00  0.00    -0.171 NA
ATOM     17  C   UNL     1      -3.643   2.859  24.824  0.00  0.00    +0.269 C 
ATOM     18  O   UNL     1      -3.346   3.214  24.142  0.00  0.00    -0.268 OA
BRANCH  17  19
ATOM     19  C   UNL     1      -4.392   3.065  25.104  0.00  0.00    +0.058 A 
ATOM     20  C   UNL     1      -5.013   2.525  25.057  0.00  0.00    +0.025 A 
ATOM     21  C   UNL     1      -5.762   2.731  25.336  0.00  0.00    +0.099 A 
ATOM     22  N   UNL     1      -5.887   3.479  25.662  0.00  0.00    -0.242 NA
ATOM     23  C   UNL     1      -5.267   4.019  25.709  0.00  0.00    +0.099 A 
ATOM     24  C   UNL     1      -4.518   3.812  25.430  0.00  0.00    +0.025 A 
ENDBRANCH  17  19
ENDBRANCH  15  16
BRANCH   6   5
ATOM      5  C   UNL     1      -2.157   0.132  24.720  0.00  0.00    +0.101 C 
BRANCH   5   4
ATOM      1  C   UNL     1      -2.962  -2.212  26.234  0.00  0.00    +0.130 C 
ATOM      2  N   UNL     1      -2.910  -1.640  25.641  0.00  0.00    -0.324 N 
ATOM      3  C   UNL     1      -2.410  -0.983  25.644  0.00  0.00    +0.073 A 
ATOM      4  C   UNL     1      -2.539  -0.563  24.946  0.00  0.00    +0.012 A 
ATOM     29  C   UNL     1      -3.118  -0.961  24.511  0.00  0.00    +0.015 A 
ATOM     30  C   UNL     1      -3.346  -1.627  24.942  0.00  0.00    +0.060 A 
ATOM     31  C   UNL     1      -3.923  -2.135  24.641  0.00  0.00    +0.017 A 
ATOM     32  C   UNL     1      -4.270  -1.976  23.910  0.00  0.00    +0.001 A 
ATOM     33  C   UNL     1      -4.042  -1.311  23.479  0.00  0.00    +0.000 A 
ATOM     34  C   UNL     1      -3.466  -0.803  23.780  0.00  0.00    +0.001 A 
ENDBRANCH   5   4
ENDBRANCH   6   5
TORSDOF 4
ENDMDL
