MODEL 1
REMARK VINA RESULT:     -11.0      0.000      0.000
REMARK  Name = 
REMARK  3 active torsions:
REMARK  status: ('A' for Active; 'I' for Inactive)
REMARK    1  A    between atoms: C_2  and  C_3
REMARK    2  A    between atoms: C_3  and  C_4
REMARK    3  A    between atoms: C_22  and  N_25
REMARK                            x       y       z     vdW  Elec       q    Type
REMARK                         _______ _______ _______ _____ _____    ______ ____
ROOT
ATOM      4  C   UNL     1       0.472   0.086  23.750  0.00  0.00    +0.012 C 
ATOM      5  C   UNL     1       0.457  -0.724  23.904  0.00  0.00    +0.022 C 
ATOM      6  C   UNL     1      -0.233  -1.077  24.188  0.00  0.00    +0.093 C 
ATOM      7  N   UNL     1      -0.909  -0.696  24.331  0.00  0.00    -0.278 N 
ATOM      8  C   UNL     1      -0.892   0.191  24.162  0.00  0.00    +0.093 C 
ATOM      9  C   UNL     1      -0.378   0.778  23.891  0.00  0.00    +0.021 C 
ATOM     10  C   UNL     1      -0.789   1.494  23.888  0.00  0.00    +0.006 C 
ATOM     11  C   UNL     1      -1.555   1.349  24.157  0.00  0.00    +0.047 C 
ATOM     12  C   UNL     1      -2.329   1.785  24.321  0.00  0.00    +0.205 C 
ATOM     13  O   UNL     1      -2.771   1.637  24.489  0.00  0.00    -0.476 OA
ATOM     14  C   UNL     1      -2.983   0.589  24.749  0.00  0.00    +0.136 A 
ATOM     15  C   UNL     1      -3.656   0.204  25.033  0.00  0.00    +0.030 A 
ATOM     16  C   UNL     1      -3.638  -0.608  25.178  0.00  0.00    +0.119 C 
ATOM     17  N   UNL     1      -2.946  -1.036  25.038  0.00  0.00    -0.204 NA
ATOM     18  C   UNL     1      -2.273  -0.651  24.754  0.00  0.00    +0.174 C 
ATOM     19  C   UNL     1      -1.582  -1.079  24.615  0.00  0.00    +0.243 C 
ATOM     20  O   UNL     1      -1.563  -1.891  24.759  0.00  0.00    -0.273 OA
ATOM     21  C   UNL     1      -4.347   0.632  25.173  0.00  0.00    +0.015 A 
ATOM     22  C   UNL     1      -4.366   1.444  25.029  0.00  0.00    +0.048 A 
ATOM     23  C   UNL     1      -3.693   1.829  24.744  0.00  0.00    +0.018 A 
ATOM     24  C   UNL     1      -3.002   1.401  24.605  0.00  0.00    +0.038 A 
ENDROOT
BRANCH  22  25
ATOM     25  N   UNL     1      -5.057   1.872  25.168  0.00  0.00    -0.303 N 
ATOM     26  C   UNL     1      -5.040   2.536  25.658  0.00  0.00    +0.123 C 
ATOM     27  C   UNL     1      -5.731   2.964  25.797  0.00  0.00    +0.164 C 
ATOM     28  O   UNL     1      -6.440   2.728  25.447  0.00  0.00    -0.350 OA
ATOM     29  C   UNL     1      -6.457   2.065  24.957  0.00  0.00    +0.164 C 
ATOM     30  C   UNL     1      -5.766   1.637  24.817  0.00  0.00    +0.123 C 
ENDBRANCH  22  25
BRANCH   4   3
ATOM      3  C   UNL     1       1.178   0.406  23.467  0.00  0.00    +0.085 C 
BRANCH   3   2
ATOM      1  O   UNL     1       1.096  -0.401  22.290  0.00  0.00    -0.275 OA
ATOM      2  C   UNL     1       1.529   0.095  22.787  0.00  0.00    +0.226 C 
ATOM     31  N   UNL     1       2.311   0.281  22.606  0.00  0.00    -0.274 N 
ATOM     32  C   UNL     1       2.663  -0.030  21.926  0.00  0.00    +0.125 C 
ATOM     33  C   UNL     1       3.445   0.156  21.745  0.00  0.00    +0.164 C 
ATOM     34  O   UNL     1       3.878   0.653  22.242  0.00  0.00    -0.350 OA
ATOM     35  C   UNL     1       3.527   0.963  22.921  0.00  0.00    +0.164 C 
ATOM     36  C   UNL     1       2.744   0.777  23.103  0.00  0.00    +0.125 C 
ENDBRANCH   3   2
ENDBRANCH   4   3
TORSDOF 3
ENDMDL
MODEL 2
REMARK VINA RESULT:      -9.8      0.871      6.226
REMARK  Name = 
REMARK  3 active torsions:
REMARK  status: ('A' for Active; 'I' for Inactive)
REMARK    1  A    between atoms: C_2  and  C_3
REMARK    2  A    between atoms: C_3  and  C_4
REMARK    3  A    between atoms: C_22  and  N_25
REMARK                            x       y       z     vdW  Elec       q    Type
REMARK                         _______ _______ _______ _____ _____    ______ ____
ROOT
ATOM      4  C   UNL     1      -4.045   0.873  24.653  0.00  0.00    +0.012 C 
ATOM      5  C   UNL     1      -4.211   0.165  25.043  0.00  0.00    +0.022 C 
ATOM      6  C   UNL     1      -3.625  -0.412  25.116  0.00  0.00    +0.093 C 
ATOM      7  N   UNL     1      -2.891  -0.347  24.836  0.00  0.00    -0.278 N 
ATOM      8  C   UNL     1      -2.709   0.427  24.410  0.00  0.00    +0.093 C 
ATOM      9  C   UNL     1      -3.073   1.138  24.199  0.00  0.00    +0.021 C 
ATOM     10  C   UNL     1      -2.519   1.597  23.794  0.00  0.00    +0.006 C 
ATOM     11  C   UNL     1      -1.814   1.170  23.756  0.00  0.00    +0.047 C 
ATOM     12  C   UNL     1      -0.973   1.243  23.436  0.00  0.00    +0.205 C 
ATOM     13  O   UNL     1      -0.580   0.941  23.445  0.00  0.00    -0.476 OA
ATOM     14  C   UNL     1      -0.610  -0.050  23.922  0.00  0.00    +0.136 A 
ATOM     15  C   UNL     1      -0.048  -0.648  24.013  0.00  0.00    +0.030 A 
ATOM     16  C   UNL     1      -0.246  -1.344  24.408  0.00  0.00    +0.119 C 
ATOM     17  N   UNL     1      -1.007  -1.444  24.713  0.00  0.00    -0.204 NA
ATOM     18  C   UNL     1      -1.569  -0.845  24.622  0.00  0.00    +0.174 C 
ATOM     19  C   UNL     1      -2.329  -0.945  24.927  0.00  0.00    +0.243 C 
ATOM     20  O   UNL     1      -2.527  -1.641  25.322  0.00  0.00    -0.273 OA
ATOM     21  C   UNL     1       0.712  -0.549  23.709  0.00  0.00    +0.015 A 
ATOM     22  C   UNL     1       0.911   0.147  23.314  0.00  0.00    +0.048 A 
ATOM     23  C   UNL     1       0.349   0.745  23.223  0.00  0.00    +0.018 A 
ATOM     24  C   UNL     1      -0.411   0.646  23.527  0.00  0.00    +0.038 A 
ENDROOT
BRANCH  22  25
ATOM     25  N   UNL     1       1.671   0.246  23.009  0.00  0.00    -0.303 N 
ATOM     26  C   UNL     1       2.200   0.761  23.378  0.00  0.00    +0.123 C 
ATOM     27  C   UNL     1       2.960   0.860  23.074  0.00  0.00    +0.164 C 
ATOM     28  O   UNL     1       3.192   0.445  22.400  0.00  0.00    -0.350 OA
ATOM     29  C   UNL     1       2.663  -0.070  22.030  0.00  0.00    +0.164 C 
ATOM     30  C   UNL     1       1.903  -0.169  22.335  0.00  0.00    +0.123 C 
ENDBRANCH  22  25
BRANCH   4   3
ATOM      3  C   UNL     1      -4.653   1.428  24.598  0.00  0.00    +0.085 C 
BRANCH   3   2
ATOM      1  O   UNL     1      -5.391   0.972  25.735  0.00  0.00    -0.275 OA
ATOM      2  C   UNL     1      -5.125   1.590  25.257  0.00  0.00    +0.226 C 
ATOM     31  N   UNL     1      -5.329   2.368  25.435  0.00  0.00    -0.274 N 
ATOM     32  C   UNL     1      -5.801   2.530  26.093  0.00  0.00    +0.125 C 
ATOM     33  C   UNL     1      -6.005   3.308  26.272  0.00  0.00    +0.164 C 
ATOM     34  O   UNL     1      -5.740   3.926  25.794  0.00  0.00    -0.350 OA
ATOM     35  C   UNL     1      -5.269   3.764  25.136  0.00  0.00    +0.164 C 
ATOM     36  C   UNL     1      -5.064   2.985  24.957  0.00  0.00    +0.125 C 
ENDBRANCH   3   2
ENDBRANCH   4   3
TORSDOF 3
ENDMDL
MODEL 3
REMARK VINA RESULT:      -8.4     13.424     14.254
REMARK  Name = 
REMARK  3 active torsions:
REMARK  status: ('A' for Active; 'I' for Inactive)
REMARK    1  A    between atoms: C_2  and  C_3
REMARK    2  A    between atoms: C_3  and  C_4
REMARK    3  A    between atoms: C_22  and  N_25
REMARK                            x       y       z     vdW  Elec       q    Type
REMARK                         _______ _______ _______ _____ _____    ______ ____
ROOT
ATOM      4  C   UNL     1      -4.130 -10.650  15.068  0.00  0.00    +0.012 C 
ATOM      5  C   UNL     1      -4.278 -10.781  14.267  0.00  0.00    +0.022 C 
ATOM      6  C   UNL     1      -5.037 -10.667  13.964  0.00  0.00    +0.093 C 
ATOM      7  N   UNL     1      -5.660 -10.434  14.386  0.00  0.00    -0.278 N 
ATOM      8  C   UNL     1      -5.499 -10.290  15.263  0.00  0.00    +0.093 C 
ATOM      9  C   UNL     1      -4.880 -10.321  15.809  0.00  0.00    +0.021 C 
ATOM     10  C   UNL     1      -5.180 -10.098  16.545  0.00  0.00    +0.006 C 
ATOM     11  C   UNL     1      -5.982  -9.930  16.453  0.00  0.00    +0.047 C 
ATOM     12  C   UNL     1      -6.697  -9.662  16.936  0.00  0.00    +0.205 C 
ATOM     13  O   UNL     1      -7.171  -9.576  16.819  0.00  0.00    -0.476 OA
ATOM     14  C   UNL     1      -7.557  -9.698  15.796  0.00  0.00    +0.136 A 
ATOM     15  C   UNL     1      -8.304  -9.593  15.460  0.00  0.00    +0.030 A 
ATOM     16  C   UNL     1      -8.419  -9.734  14.656  0.00  0.00    +0.119 C 
ATOM     17  N   UNL     1      -7.786  -9.979  14.185  0.00  0.00    -0.204 NA
ATOM     18  C   UNL     1      -7.039 -10.084  14.521  0.00  0.00    +0.174 C 
ATOM     19  C   UNL     1      -6.407 -10.329  14.051  0.00  0.00    +0.243 C 
ATOM     20  O   UNL     1      -6.522 -10.469  13.247  0.00  0.00    -0.273 OA
ATOM     21  C   UNL     1      -8.936  -9.348  15.930  0.00  0.00    +0.015 A 
ATOM     22  C   UNL     1      -8.823  -9.208  16.735  0.00  0.00    +0.048 A 
ATOM     23  C   UNL     1      -8.076  -9.313  17.071  0.00  0.00    +0.018 A 
ATOM     24  C   UNL     1      -7.444  -9.558  16.601  0.00  0.00    +0.038 A 
ENDROOT
BRANCH  22  25
ATOM     25  N   UNL     1      -9.455  -8.963  17.205  0.00  0.00    -0.303 N 
ATOM     26  C   UNL     1      -9.803  -9.489  17.736  0.00  0.00    +0.123 C 
ATOM     27  C   UNL     1     -10.435  -9.244  18.206  0.00  0.00    +0.164 C 
ATOM     28  O   UNL     1     -10.719  -8.472  18.145  0.00  0.00    -0.350 OA
ATOM     29  C   UNL     1     -10.371  -7.946  17.613  0.00  0.00    +0.164 C 
ATOM     30  C   UNL     1      -9.739  -8.191  17.143  0.00  0.00    +0.123 C 
ENDBRANCH  22  25
BRANCH   4   3
ATOM      3  C   UNL     1      -3.359 -10.774  15.337  0.00  0.00    +0.085 C 
BRANCH   3   2
ATOM      1  O   UNL     1      -2.821 -10.241  14.124  0.00  0.00    -0.275 OA
ATOM      2  C   UNL     1      -2.719 -10.474  14.909  0.00  0.00    +0.226 C 
ATOM     31  N   UNL     1      -1.980 -10.407  15.267  0.00  0.00    -0.274 N 
ATOM     32  C   UNL     1      -1.340 -10.107  14.840  0.00  0.00    +0.125 C 
ATOM     33  C   UNL     1      -0.600 -10.041  15.198  0.00  0.00    +0.164 C 
ATOM     34  O   UNL     1      -0.499 -10.274  15.984  0.00  0.00    -0.350 OA
ATOM     35  C   UNL     1      -1.138 -10.573  16.410  0.00  0.00    +0.164 C 
ATOM     36  C   UNL     1      -1.878 -10.640  16.052  0.00  0.00    +0.125 C 
ENDBRANCH   3   2
ENDBRANCH   4   3
TORSDOF 3
ENDMDL
MODEL 4
REMARK VINA RESULT:      -8.1     17.399     18.784
REMARK  Name = 
REMARK  3 active torsions:
REMARK  status: ('A' for Active; 'I' for Inactive)
REMARK    1  A    between atoms: C_2  and  C_3
REMARK    2  A    between atoms: C_3  and  C_4
REMARK    3  A    between atoms: C_22  and  N_25
REMARK                            x       y       z     vdW  Elec       q    Type
REMARK                         _______ _______ _______ _____ _____    ______ ____
ROOT
ATOM      4  C   UNL     1      -7.713  -7.681   8.520  0.00  0.00    +0.012 C 
ATOM      5  C   UNL     1      -8.005  -8.344   8.124  0.00  0.00    +0.022 C 
ATOM      6  C   UNL     1      -7.586  -9.054   8.147  0.00  0.00    +0.093 C 
ATOM      7  N   UNL     1      -6.904  -9.164   8.528  0.00  0.00    -0.278 N 
ATOM      8  C   UNL     1      -6.585  -8.439   8.961  0.00  0.00    +0.093 C 
ATOM      9  C   UNL     1      -6.775  -7.649   9.103  0.00  0.00    +0.021 C 
ATOM     10  C   UNL     1      -6.179  -7.324   9.574  0.00  0.00    +0.006 C 
ATOM     11  C   UNL     1      -5.622  -7.915   9.721  0.00  0.00    +0.047 C 
ATOM     12  C   UNL     1      -4.841  -8.042  10.157  0.00  0.00    +0.205 C 
ATOM     13  O   UNL     1      -4.544  -8.434  10.210  0.00  0.00    -0.476 OA
ATOM     14  C   UNL     1      -4.768  -9.410   9.753  0.00  0.00    +0.136 A 
ATOM     15  C   UNL     1      -4.375 -10.136   9.755  0.00  0.00    +0.030 A 
ATOM     16  C   UNL     1      -4.693 -10.780   9.350  0.00  0.00    +0.119 C 
ATOM     17  N   UNL     1      -5.406 -10.698   8.941  0.00  0.00    -0.204 NA
ATOM     18  C   UNL     1      -5.799  -9.971   8.939  0.00  0.00    +0.174 C 
ATOM     19  C   UNL     1      -6.511  -9.890   8.530  0.00  0.00    +0.243 C 
ATOM     20  O   UNL     1      -6.830 -10.533   8.125  0.00  0.00    -0.273 OA
ATOM     21  C   UNL     1      -3.663 -10.218  10.164  0.00  0.00    +0.015 A 
ATOM     22  C   UNL     1      -3.343  -9.575  10.570  0.00  0.00    +0.048 A 
ATOM     23  C   UNL     1      -3.736  -8.849  10.568  0.00  0.00    +0.018 A 
ATOM     24  C   UNL     1      -4.448  -8.767  10.159  0.00  0.00    +0.038 A 
ENDROOT
BRANCH  22  25
ATOM     25  N   UNL     1      -2.631  -9.657  10.978  0.00  0.00    -0.303 N 
ATOM     26  C   UNL     1      -1.952  -9.276  10.705  0.00  0.00    +0.123 C 
ATOM     27  C   UNL     1      -1.240  -9.358  11.113  0.00  0.00    +0.164 C 
ATOM     28  O   UNL     1      -1.207  -9.821  11.795  0.00  0.00    -0.350 OA
ATOM     29  C   UNL     1      -1.886 -10.201  12.068  0.00  0.00    +0.164 C 
ATOM     30  C   UNL     1      -2.598 -10.120  11.660  0.00  0.00    +0.123 C 
ENDBRANCH  22  25
BRANCH   4   3
ATOM      3  C   UNL     1      -8.157  -6.987   8.476  0.00  0.00    +0.085 C 
BRANCH   3   2
ATOM      1  O   UNL     1      -9.337  -7.716   8.822  0.00  0.00    -0.275 OA
ATOM      2  C   UNL     1      -8.960  -6.998   8.667  0.00  0.00    +0.226 C 
ATOM     31  N   UNL     1      -9.385  -6.293   8.701  0.00  0.00    -0.274 N 
ATOM     32  C   UNL     1     -10.189  -6.303   8.892  0.00  0.00    +0.125 C 
ATOM     33  C   UNL     1     -10.614  -5.598   8.926  0.00  0.00    +0.164 C 
ATOM     34  O   UNL     1     -10.237  -4.880   8.771  0.00  0.00    -0.350 OA
ATOM     35  C   UNL     1      -9.434  -4.869   8.581  0.00  0.00    +0.164 C 
ATOM     36  C   UNL     1      -9.009  -5.575   8.546  0.00  0.00    +0.125 C 
ENDBRANCH   3   2
ENDBRANCH   4   3
TORSDOF 3
ENDMDL
MODEL 5
REMARK VINA RESULT:      -7.8     15.965     17.446
REMARK  Name = 
REMARK  3 active torsions:
REMARK  status: ('A' for Active; 'I' for Inactive)
REMARK    1  A    between atoms: C_2  and  C_3
REMARK    2  A    between atoms: C_3  and  C_4
REMARK    3  A    between atoms: C_22  and  N_25
REMARK                            x       y       z     vdW  Elec       q    Type
REMARK                         _______ _______ _______ _____ _____    ______ ____
ROOT
ATOM      4  C   UNL     1      -6.146  -9.997  10.400  0.00  0.00    +0.012 C 
ATOM      5  C   UNL     1      -5.668 -10.044   9.729  0.00  0.00    +0.022 C 
ATOM      6  C   UNL     1      -4.854 -10.156   9.809  0.00  0.00    +0.093 C 
ATOM      7  N   UNL     1      -4.475 -10.226  10.497  0.00  0.00    -0.278 N 
ATOM      8  C   UNL     1      -4.997 -10.175  11.231  0.00  0.00    +0.093 C 
ATOM      9  C   UNL     1      -5.789 -10.073  11.443  0.00  0.00    +0.021 C 
ATOM     10  C   UNL     1      -5.836 -10.089  12.267  0.00  0.00    +0.006 C 
ATOM     11  C   UNL     1      -5.074 -10.200  12.563  0.00  0.00    +0.047 C 
ATOM     12  C   UNL     1      -4.638 -10.280  13.350  0.00  0.00    +0.205 C 
ATOM     13  O   UNL     1      -4.161 -10.347  13.467  0.00  0.00    -0.476 OA
ATOM     14  C   UNL     1      -3.373 -10.433  12.704  0.00  0.00    +0.136 A 
ATOM     15  C   UNL     1      -2.556 -10.545  12.748  0.00  0.00    +0.030 A 
ATOM     16  C   UNL     1      -2.107 -10.587  12.058  0.00  0.00    +0.119 C 
ATOM     17  N   UNL     1      -2.475 -10.518  11.322  0.00  0.00    -0.204 NA
ATOM     18  C   UNL     1      -3.292 -10.406  11.277  0.00  0.00    +0.174 C 
ATOM     19  C   UNL     1      -3.658 -10.337  10.542  0.00  0.00    +0.243 C 
ATOM     20  O   UNL     1      -3.209 -10.379   9.852  0.00  0.00    -0.273 OA
ATOM     21  C   UNL     1      -2.189 -10.614  13.484  0.00  0.00    +0.015 A 
ATOM     22  C   UNL     1      -2.638 -10.572  14.175  0.00  0.00    +0.048 A 
ATOM     23  C   UNL     1      -3.455 -10.460  14.130  0.00  0.00    +0.018 A 
ATOM     24  C   UNL     1      -3.822 -10.391  13.395  0.00  0.00    +0.038 A 
ENDROOT
BRANCH  22  25
ATOM     25  N   UNL     1      -2.271 -10.641  14.910  0.00  0.00    -0.303 N 
ATOM     26  C   UNL     1      -2.727 -10.703  15.595  0.00  0.00    +0.123 C 
ATOM     27  C   UNL     1      -2.360 -10.773  16.330  0.00  0.00    +0.164 C 
ATOM     28  O   UNL     1      -1.537 -10.780  16.382  0.00  0.00    -0.350 OA
ATOM     29  C   UNL     1      -1.081 -10.718  15.697  0.00  0.00    +0.164 C 
ATOM     30  C   UNL     1      -1.448 -10.649  14.961  0.00  0.00    +0.123 C 
ENDBRANCH  22  25
BRANCH   4   3
ATOM      3  C   UNL     1      -6.955  -9.884  10.283  0.00  0.00    +0.085 C 
BRANCH   3   2
ATOM      1  O   UNL     1      -6.687  -8.788   9.406  0.00  0.00    -0.275 OA
ATOM      2  C   UNL     1      -7.222  -9.239   9.843  0.00  0.00    +0.226 C 
ATOM     31  N   UNL     1      -8.023  -9.045   9.841  0.00  0.00    -0.274 N 
ATOM     32  C   UNL     1      -8.291  -8.400   9.401  0.00  0.00    +0.125 C 
ATOM     33  C   UNL     1      -9.093  -8.206   9.399  0.00  0.00    +0.164 C 
ATOM     34  O   UNL     1      -9.628  -8.657   9.836  0.00  0.00    -0.350 OA
ATOM     35  C   UNL     1      -9.361  -9.302  10.275  0.00  0.00    +0.164 C 
ATOM     36  C   UNL     1      -8.559  -9.496  10.278  0.00  0.00    +0.125 C 
ENDBRANCH   3   2
ENDBRANCH   4   3
TORSDOF 3
ENDMDL
MODEL 6
REMARK VINA RESULT:      -7.8     14.339     15.360
REMARK  Name = 
REMARK  3 active torsions:
REMARK  status: ('A' for Active; 'I' for Inactive)
REMARK    1  A    between atoms: C_2  and  C_3
REMARK    2  A    between atoms: C_3  and  C_4
REMARK    3  A    between atoms: C_22  and  N_25
REMARK                            x       y       z     vdW  Elec       q    Type
REMARK                         _______ _______ _______ _____ _____    ______ ____
ROOT
ATOM      4  C   UNL     1      -5.917  -9.902  12.574  0.00  0.00    +0.012 C 
ATOM      5  C   UNL     1      -6.672  -9.716  12.299  0.00  0.00    +0.022 C 
ATOM      6  C   UNL     1      -7.299  -9.648  12.832  0.00  0.00    +0.093 C 
ATOM      7  N   UNL     1      -7.242  -9.750  13.612  0.00  0.00    -0.278 N 
ATOM      8  C   UNL     1      -6.415  -9.953  13.912  0.00  0.00    +0.093 C 
ATOM      9  C   UNL     1      -5.649 -10.078  13.631  0.00  0.00    +0.021 C 
ATOM     10  C   UNL     1      -5.166 -10.251  14.278  0.00  0.00    +0.006 C 
ATOM     11  C   UNL     1      -5.634 -10.233  14.957  0.00  0.00    +0.047 C 
ATOM     12  C   UNL     1      -5.569 -10.349  15.850  0.00  0.00    +0.205 C 
ATOM     13  O   UNL     1      -5.899 -10.324  16.219  0.00  0.00    -0.476 OA
ATOM     14  C   UNL     1      -6.959 -10.087  16.047  0.00  0.00    +0.136 A 
ATOM     15  C   UNL     1      -7.608 -10.012  16.552  0.00  0.00    +0.030 A 
ATOM     16  C   UNL     1      -8.351  -9.825  16.245  0.00  0.00    +0.119 C 
ATOM     17  N   UNL     1      -8.445  -9.712  15.433  0.00  0.00    -0.204 NA
ATOM     18  C   UNL     1      -7.796  -9.787  14.928  0.00  0.00    +0.174 C 
ATOM     19  C   UNL     1      -7.890  -9.675  14.116  0.00  0.00    +0.243 C 
ATOM     20  O   UNL     1      -8.632  -9.487  13.810  0.00  0.00    -0.273 OA
ATOM     21  C   UNL     1      -7.514 -10.124  17.364  0.00  0.00    +0.015 A 
ATOM     22  C   UNL     1      -6.772 -10.312  17.671  0.00  0.00    +0.048 A 
ATOM     23  C   UNL     1      -6.123 -10.387  17.167  0.00  0.00    +0.018 A 
ATOM     24  C   UNL     1      -6.217 -10.274  16.355  0.00  0.00    +0.038 A 
ENDROOT
BRANCH  22  25
ATOM     25  N   UNL     1      -6.678 -10.424  18.483  0.00  0.00    -0.303 N 
ATOM     26  C   UNL     1      -5.943 -10.294  18.835  0.00  0.00    +0.123 C 
ATOM     27  C   UNL     1      -5.849 -10.407  19.647  0.00  0.00    +0.164 C 
ATOM     28  O   UNL     1      -6.490 -10.649  20.107  0.00  0.00    -0.350 OA
ATOM     29  C   UNL     1      -7.224 -10.779  19.755  0.00  0.00    +0.164 C 
ATOM     30  C   UNL     1      -7.318 -10.666  18.943  0.00  0.00    +0.123 C 
ENDBRANCH  22  25
BRANCH   4   3
ATOM      3  C   UNL     1      -5.313  -9.961  12.014  0.00  0.00    +0.085 C 
BRANCH   3   2
ATOM      1  O   UNL     1      -5.559  -8.615  11.598  0.00  0.00    -0.275 OA
ATOM      2  C   UNL     1      -5.171  -9.336  11.493  0.00  0.00    +0.226 C 
ATOM     31  N   UNL     1      -4.641  -9.433  10.869  0.00  0.00    -0.274 N 
ATOM     32  C   UNL     1      -4.498  -8.809  10.348  0.00  0.00    +0.125 C 
ATOM     33  C   UNL     1      -3.968  -8.906   9.724  0.00  0.00    +0.164 C 
ATOM     34  O   UNL     1      -3.581  -9.627   9.619  0.00  0.00    -0.350 OA
ATOM     35  C   UNL     1      -3.723 -10.251  10.140  0.00  0.00    +0.164 C 
ATOM     36  C   UNL     1      -4.253 -10.154  10.765  0.00  0.00    +0.125 C 
ENDBRANCH   3   2
ENDBRANCH   4   3
TORSDOF 3
ENDMDL
MODEL 7
REMARK VINA RESULT:      -7.7      1.448      2.356
REMARK  Name = 
REMARK  3 active torsions:
REMARK  status: ('A' for Active; 'I' for Inactive)
REMARK    1  A    between atoms: C_2  and  C_3
REMARK    2  A    between atoms: C_3  and  C_4
REMARK    3  A    between atoms: C_22  and  N_25
REMARK                            x       y       z     vdW  Elec       q    Type
REMARK                         _______ _______ _______ _____ _____    ______ ____
ROOT
ATOM      4  C   UNL     1       0.327   1.447  23.891  0.00  0.00    +0.012 C 
ATOM      5  C   UNL     1       0.650   2.185  24.066  0.00  0.00    +0.022 C 
ATOM      6  C   UNL     1       0.169   2.784  24.368  0.00  0.00    +0.093 C 
ATOM      7  N   UNL     1      -0.603   2.713  24.510  0.00  0.00    -0.278 N 
ATOM      8  C   UNL     1      -0.957   1.905  24.318  0.00  0.00    +0.093 C 
ATOM      9  C   UNL     1      -0.733   1.166  24.025  0.00  0.00    +0.021 C 
ATOM     10  C   UNL     1      -1.404   0.685  24.010  0.00  0.00    +0.006 C 
ATOM     11  C   UNL     1      -2.040   1.127  24.292  0.00  0.00    +0.047 C 
ATOM     12  C   UNL     1      -2.925   1.047  24.456  0.00  0.00    +0.205 C 
ATOM     13  O   UNL     1      -3.266   1.361  24.632  0.00  0.00    -0.476 OA
ATOM     14  C   UNL     1      -3.023   2.394  24.922  0.00  0.00    +0.136 A 
ATOM     15  C   UNL     1      -3.475   3.015  25.225  0.00  0.00    +0.030 A 
ATOM     16  C   UNL     1      -3.121   3.742  25.390  0.00  0.00    +0.119 C 
ATOM     17  N   UNL     1      -2.314   3.848  25.252  0.00  0.00    -0.204 NA
ATOM     18  C   UNL     1      -1.862   3.227  24.950  0.00  0.00    +0.174 C 
ATOM     19  C   UNL     1      -1.056   3.334  24.812  0.00  0.00    +0.243 C 
ATOM     20  O   UNL     1      -0.702   4.060  24.977  0.00  0.00    -0.273 OA
ATOM     21  C   UNL     1      -4.281   2.909  25.362  0.00  0.00    +0.015 A 
ATOM     22  C   UNL     1      -4.636   2.182  25.198  0.00  0.00    +0.048 A 
ATOM     23  C   UNL     1      -4.183   1.561  24.895  0.00  0.00    +0.018 A 
ATOM     24  C   UNL     1      -3.377   1.668  24.758  0.00  0.00    +0.038 A 
ENDROOT
BRANCH  22  25
ATOM     25  N   UNL     1      -5.442   2.076  25.335  0.00  0.00    -0.303 N 
ATOM     26  C   UNL     1      -5.734   2.083  26.107  0.00  0.00    +0.123 C 
ATOM     27  C   UNL     1      -6.540   1.977  26.244  0.00  0.00    +0.164 C 
ATOM     28  O   UNL     1      -7.055   1.862  25.610  0.00  0.00    -0.350 OA
ATOM     29  C   UNL     1      -6.763   1.855  24.839  0.00  0.00    +0.164 C 
ATOM     30  C   UNL     1      -5.957   1.961  24.701  0.00  0.00    +0.123 C 
ENDBRANCH  22  25
BRANCH   4   3
ATOM      3  C   UNL     1       0.837   0.870  23.591  0.00  0.00    +0.085 C 
BRANCH   3   2
ATOM      1  O   UNL     1       1.998   1.592  24.011  0.00  0.00    -0.275 OA
ATOM      2  C   UNL     1       1.644   1.030  23.521  0.00  0.00    +0.226 C 
ATOM     31  N   UNL     1       2.096   0.628  22.961  0.00  0.00    -0.274 N 
ATOM     32  C   UNL     1       2.904   0.787  22.890  0.00  0.00    +0.125 C 
ATOM     33  C   UNL     1       3.356   0.385  22.331  0.00  0.00    +0.164 C 
ATOM     34  O   UNL     1       3.002  -0.177  21.841  0.00  0.00    -0.350 OA
ATOM     35  C   UNL     1       2.196  -0.336  21.911  0.00  0.00    +0.164 C 
ATOM     36  C   UNL     1       1.743   0.066  22.471  0.00  0.00    +0.125 C 
ENDBRANCH   3   2
ENDBRANCH   4   3
TORSDOF 3
ENDMDL
MODEL 8
REMARK VINA RESULT:      -7.5     15.408     16.562
REMARK  Name = 
REMARK  3 active torsions:
REMARK  status: ('A' for Active; 'I' for Inactive)
REMARK    1  A    between atoms: C_2  and  C_3
REMARK    2  A    between atoms: C_3  and  C_4
REMARK    3  A    between atoms: C_22  and  N_25
REMARK                            x       y       z     vdW  Elec       q    Type
REMARK                         _______ _______ _______ _____ _____    ______ ____
ROOT
ATOM      4  C   UNL     1      -5.628  -9.865  10.807  0.00  0.00    +0.012 C 
ATOM      5  C   UNL     1      -4.868  -9.975  10.505  0.00  0.00    +0.022 C 
ATOM      6  C   UNL     1      -4.243 -10.149  11.015  0.00  0.00    +0.093 C 
ATOM      7  N   UNL     1      -4.307 -10.222  11.798  0.00  0.00    -0.278 N 
ATOM      8  C   UNL     1      -5.139 -10.101  12.128  0.00  0.00    +0.093 C 
ATOM      9  C   UNL     1      -5.905  -9.929  11.874  0.00  0.00    +0.021 C 
ATOM     10  C   UNL     1      -6.395  -9.908  12.539  0.00  0.00    +0.006 C 
ATOM     11  C   UNL     1      -5.930 -10.068  13.202  0.00  0.00    +0.047 C 
ATOM     12  C   UNL     1      -6.003 -10.152  14.098  0.00  0.00    +0.205 C 
ATOM     13  O   UNL     1      -5.675 -10.253  14.456  0.00  0.00    -0.476 OA
ATOM     14  C   UNL     1      -4.609 -10.431  14.246  0.00  0.00    +0.136 A 
ATOM     15  C   UNL     1      -3.962 -10.605  14.728  0.00  0.00    +0.030 A 
ATOM     16  C   UNL     1      -3.215 -10.710  14.395  0.00  0.00    +0.119 C 
ATOM     17  N   UNL     1      -3.114 -10.640  13.578  0.00  0.00    -0.204 NA
ATOM     18  C   UNL     1      -3.762 -10.466  13.096  0.00  0.00    +0.174 C 
ATOM     19  C   UNL     1      -3.661 -10.396  12.280  0.00  0.00    +0.243 C 
ATOM     20  O   UNL     1      -2.914 -10.501  11.947  0.00  0.00    -0.273 OA
ATOM     21  C   UNL     1      -4.063 -10.675  15.544  0.00  0.00    +0.015 A 
ATOM     22  C   UNL     1      -4.810 -10.570  15.878  0.00  0.00    +0.048 A 
ATOM     23  C   UNL     1      -5.457 -10.396  15.396  0.00  0.00    +0.018 A 
ATOM     24  C   UNL     1      -5.356 -10.326  14.580  0.00  0.00    +0.038 A 
ENDROOT
BRANCH  22  25
ATOM     25  N   UNL     1      -4.911 -10.640  16.694  0.00  0.00    -0.303 N 
ATOM     26  C   UNL     1      -4.253 -10.644  17.192  0.00  0.00    +0.123 C 
ATOM     27  C   UNL     1      -4.354 -10.714  18.008  0.00  0.00    +0.164 C 
ATOM     28  O   UNL     1      -5.112 -10.779  18.326  0.00  0.00    -0.350 OA
ATOM     29  C   UNL     1      -5.770 -10.775  17.827  0.00  0.00    +0.164 C 
ATOM     30  C   UNL     1      -5.669 -10.705  17.012  0.00  0.00    +0.123 C 
ENDBRANCH  22  25
BRANCH   4   3
ATOM      3  C   UNL     1      -6.229  -9.693  10.268  0.00  0.00    +0.085 C 
BRANCH   3   2
ATOM      1  O   UNL     1      -5.583  -8.461   9.937  0.00  0.00    -0.275 OA
ATOM      2  C   UNL     1      -6.222  -8.977   9.856  0.00  0.00    +0.226 C 
ATOM     31  N   UNL     1      -6.853  -8.778   9.365  0.00  0.00    -0.274 N 
ATOM     32  C   UNL     1      -6.847  -8.063   8.953  0.00  0.00    +0.125 C 
ATOM     33  C   UNL     1      -7.478  -7.864   8.462  0.00  0.00    +0.164 C 
ATOM     34  O   UNL     1      -8.117  -8.379   8.382  0.00  0.00    -0.350 OA
ATOM     35  C   UNL     1      -8.124  -9.094   8.793  0.00  0.00    +0.164 C 
ATOM     36  C   UNL     1      -7.493  -9.293   9.285  0.00  0.00    +0.125 C 
ENDBRANCH   3   2
ENDBRANCH   4   3
TORSDOF 3
ENDMDL
MODEL 9
REMARK VINA RESULT:      -7.4     14.746     15.861
REMARK  Name = 
REMARK  3 active torsions:
REMARK  status: ('A' for Active; 'I' for Inactive)
REMARK    1  A    between atoms: C_2  and  C_3
REMARK    2  A    between atoms: C_3  and  C_4
REMARK    3  A    between atoms: C_22  and  N_25
REMARK                            x       y       z     vdW  Elec       q    Type
REMARK                         _______ _______ _______ _____ _____    ______ ____
ROOT
ATOM      4  C   UNL     1      -6.229  -9.701  12.352  0.00  0.00    +0.012 C 
ATOM      5  C   UNL     1      -5.448  -9.895  12.174  0.00  0.00    +0.022 C 
ATOM      6  C   UNL     1      -4.935 -10.132  12.775  0.00  0.00    +0.093 C 
ATOM      7  N   UNL     1      -5.130 -10.193  13.537  0.00  0.00    -0.278 N 
ATOM      8  C   UNL     1      -5.985  -9.980  13.732  0.00  0.00    +0.093 C 
ATOM      9  C   UNL     1      -6.678  -9.727  13.361  0.00  0.00    +0.021 C 
ATOM     10  C   UNL     1      -7.263  -9.649  13.940  0.00  0.00    +0.006 C 
ATOM     11  C   UNL     1      -6.930  -9.854  14.666  0.00  0.00    +0.047 C 
ATOM     12  C   UNL     1      -7.153  -9.924  15.539  0.00  0.00    +0.205 C 
ATOM     13  O   UNL     1      -6.899 -10.058  15.943  0.00  0.00    -0.476 OA
ATOM     14  C   UNL     1      -5.839 -10.352  15.903  0.00  0.00    +0.136 A 
ATOM     15  C   UNL     1      -5.300 -10.593  16.480  0.00  0.00    +0.030 A 
ATOM     16  C   UNL     1      -4.525 -10.781  16.268  0.00  0.00    +0.119 C 
ATOM     17  N   UNL     1      -4.289 -10.728  15.479  0.00  0.00    -0.204 NA
ATOM     18  C   UNL     1      -4.828 -10.487  14.902  0.00  0.00    +0.174 C 
ATOM     19  C   UNL     1      -4.592 -10.434  14.114  0.00  0.00    +0.243 C 
ATOM     20  O   UNL     1      -3.817 -10.621  13.902  0.00  0.00    -0.273 OA
ATOM     21  C   UNL     1      -5.536 -10.646  17.268  0.00  0.00    +0.015 A 
ATOM     22  C   UNL     1      -6.311 -10.459  17.481  0.00  0.00    +0.048 A 
ATOM     23  C   UNL     1      -6.851 -10.218  16.904  0.00  0.00    +0.018 A 
ATOM     24  C   UNL     1      -6.614 -10.165  16.115  0.00  0.00    +0.038 A 
ENDROOT
BRANCH  22  25
ATOM     25  N   UNL     1      -6.548 -10.512  18.269  0.00  0.00    -0.303 N 
ATOM     26  C   UNL     1      -7.335 -10.673  18.454  0.00  0.00    +0.123 C 
ATOM     27  C   UNL     1      -7.572 -10.727  19.242  0.00  0.00    +0.164 C 
ATOM     28  O   UNL     1      -7.020 -10.618  19.847  0.00  0.00    -0.350 OA
ATOM     29  C   UNL     1      -6.233 -10.457  19.662  0.00  0.00    +0.164 C 
ATOM     30  C   UNL     1      -5.996 -10.404  18.873  0.00  0.00    +0.123 C 
ENDBRANCH  22  25
BRANCH   4   3
ATOM      3  C   UNL     1      -6.715  -9.467  11.727  0.00  0.00    +0.085 C 
BRANCH   3   2
ATOM      1  O   UNL     1      -6.628 -10.778  11.162  0.00  0.00    -0.275 OA
ATOM      2  C   UNL     1      -6.867  -9.990  11.106  0.00  0.00    +0.226 C 
ATOM     31  N   UNL     1      -7.257  -9.724  10.430  0.00  0.00    -0.274 N 
ATOM     32  C   UNL     1      -7.409 -10.246   9.809  0.00  0.00    +0.125 C 
ATOM     33  C   UNL     1      -7.799  -9.980   9.133  0.00  0.00    +0.164 C 
ATOM     34  O   UNL     1      -8.038  -9.192   9.077  0.00  0.00    -0.350 OA
ATOM     35  C   UNL     1      -7.886  -8.671   9.697  0.00  0.00    +0.164 C 
ATOM     36  C   UNL     1      -7.496  -8.936  10.374  0.00  0.00    +0.125 C 
ENDBRANCH   3   2
ENDBRANCH   4   3
TORSDOF 3
ENDMDL
MODEL 10
REMARK VINA RESULT:      -7.3     14.784     16.357
REMARK  Name = 
REMARK  3 active torsions:
REMARK  status: ('A' for Active; 'I' for Inactive)
REMARK    1  A    between atoms: C_2  and  C_3
REMARK    2  A    between atoms: C_3  and  C_4
REMARK    3  A    between atoms: C_22  and  N_25
REMARK                            x       y       z     vdW  Elec       q    Type
REMARK                         _______ _______ _______ _____ _____    ______ ____
ROOT
ATOM      4  C   UNL     1      -6.678 -10.351  16.015  0.00  0.00    +0.012 C 
ATOM      5  C   UNL     1      -7.483 -10.176  15.970  0.00  0.00    +0.022 C 
ATOM      6  C   UNL     1      -7.818  -9.961  15.247  0.00  0.00    +0.093 C 
ATOM      7  N   UNL     1      -7.424  -9.905  14.566  0.00  0.00    -0.278 N 
ATOM      8  C   UNL     1      -6.543 -10.098  14.616  0.00  0.00    +0.093 C 
ATOM      9  C   UNL     1      -5.972 -10.327  15.166  0.00  0.00    +0.021 C 
ATOM     10  C   UNL     1      -5.251 -10.396  14.770  0.00  0.00    +0.006 C 
ATOM     11  C   UNL     1      -5.378 -10.210  13.976  0.00  0.00    +0.047 C 
ATOM     12  C   UNL     1      -4.927 -10.146  13.196  0.00  0.00    +0.205 C 
ATOM     13  O   UNL     1      -5.064 -10.025  12.735  0.00  0.00    -0.476 OA
ATOM     14  C   UNL     1      -6.101  -9.759  12.480  0.00  0.00    +0.136 A 
ATOM     15  C   UNL     1      -6.468  -9.541  11.773  0.00  0.00    +0.030 A 
ATOM     16  C   UNL     1      -7.275  -9.371  11.762  0.00  0.00    +0.119 C 
ATOM     17  N   UNL     1      -7.716  -9.420  12.458  0.00  0.00    -0.204 NA
ATOM     18  C   UNL     1      -7.349  -9.639  13.165  0.00  0.00    +0.174 C 
ATOM     19  C   UNL     1      -7.790  -9.687  13.860  0.00  0.00    +0.243 C 
ATOM     20  O   UNL     1      -8.597  -9.518  13.849  0.00  0.00    -0.273 OA
ATOM     21  C   UNL     1      -6.027  -9.492  11.078  0.00  0.00    +0.015 A 
ATOM     22  C   UNL     1      -5.220  -9.661  11.088  0.00  0.00    +0.048 A 
ATOM     23  C   UNL     1      -4.853  -9.880  11.794  0.00  0.00    +0.018 A 
ATOM     24  C   UNL     1      -5.293  -9.928  12.490  0.00  0.00    +0.038 A 
ENDROOT
BRANCH  22  25
ATOM     25  N   UNL     1      -4.779  -9.613  10.392  0.00  0.00    -0.303 N 
ATOM     26  C   UNL     1      -4.416  -8.902  10.182  0.00  0.00    +0.123 C 
ATOM     27  C   UNL     1      -3.975  -8.853   9.487  0.00  0.00    +0.164 C 
ATOM     28  O   UNL     1      -3.897  -9.515   9.001  0.00  0.00    -0.350 OA
ATOM     29  C   UNL     1      -4.260 -10.226   9.211  0.00  0.00    +0.164 C 
ATOM     30  C   UNL     1      -4.701 -10.275   9.906  0.00  0.00    +0.123 C 
ENDBRANCH  22  25
BRANCH   4   3
ATOM      3  C   UNL     1      -6.376 -10.563  16.754  0.00  0.00    +0.085 C 
BRANCH   3   2
ATOM      1  O   UNL     1      -7.618 -10.219  17.374  0.00  0.00    -0.275 OA
ATOM      2  C   UNL     1      -6.822 -10.427  17.436  0.00  0.00    +0.226 C 
ATOM     31  N   UNL     1      -6.471 -10.500  18.178  0.00  0.00    -0.274 N 
ATOM     32  C   UNL     1      -6.916 -10.365  18.860  0.00  0.00    +0.125 C 
ATOM     33  C   UNL     1      -6.565 -10.438  19.603  0.00  0.00    +0.164 C 
ATOM     34  O   UNL     1      -5.769 -10.646  19.665  0.00  0.00    -0.350 OA
ATOM     35  C   UNL     1      -5.324 -10.781  18.984  0.00  0.00    +0.164 C 
ATOM     36  C   UNL     1      -5.675 -10.708  18.240  0.00  0.00    +0.125 C 
ENDBRANCH   3   2
ENDBRANCH   4   3
TORSDOF 3
ENDMDL
