REMARK  Name = 
REMARK  5 active torsions:
REMARK  status: ('A' for Active; 'I' for Inactive)
REMARK    1  A    between atoms: C_2  and  N_3
REMARK    2  A    between atoms: N_6  and  C_7
REMARK    3  A    between atoms: C_14  and  C_15
REMARK    4  A    between atoms: C_15  and  C_17
REMARK    5  A    between atoms: N_19  and  C_20
REMARK                            x       y       z     vdW  Elec       q    Type
REMARK                         _______ _______ _______ _____ _____    ______ ____
ROOT
ATOM      7  C   UNL     1       5.716  -2.475   0.000  0.00  0.00    +0.097 C 
ATOM      8  C   UNL     1       5.716  -1.650   0.000  0.00  0.00    +0.022 C 
ATOM      9  C   UNL     1       6.430  -1.238   0.000  0.00  0.00    +0.002 C 
ATOM     10  C   UNL     1       7.145  -1.650   0.000  0.00  0.00    +0.002 C 
ATOM     11  C   UNL     1       7.145  -0.825   0.000  0.00  0.00    +0.000 C 
ATOM     12  C   UNL     1       7.859  -1.238   0.000  0.00  0.00    +0.000 C 
ATOM     13  C   UNL     1       8.574  -1.650   0.000  0.00  0.00    +0.003 C 
ATOM     14  C   UNL     1       8.574  -2.475   0.000  0.00  0.00    +0.039 C 
ATOM     23  C   UNL     1       7.859  -2.888   0.000  0.00  0.00    +0.152 C 
ATOM     24  O   UNL     1       7.859  -3.712   0.000  0.00  0.00    -0.223 OA
ATOM     25  C   UNL     1       7.145  -2.475   0.000  0.00  0.00    +0.032 C 
ATOM     26  C   UNL     1       6.430  -2.888   0.000  0.00  0.00    +0.023 C 
ATOM     27  C   UNL     1       6.430  -3.712   0.000  0.00  0.00    +0.002 C 
ENDROOT
BRANCH   7   6
ATOM      3  N   UNL     1       3.572  -2.888   0.000  0.00  0.00    -0.187 NA
ATOM      4  C   UNL     1       4.287  -2.475   0.000  0.00  0.00    +0.339 C 
ATOM      5  O   UNL     1       4.287  -1.650   0.000  0.00  0.00    -0.249 OA
ATOM      6  N   UNL     1       5.001  -2.888   0.000  0.00  0.00    -0.189 NA
BRANCH   3   2
ATOM      1  C   UNL     1       2.143  -2.888   0.000  0.00  0.00    +0.025 C 
ATOM      2  C   UNL     1       2.858  -2.475   0.000  0.00  0.00    +0.117 C 
ENDBRANCH   3   2
ENDBRANCH   7   6
BRANCH  14  15
ATOM     15  C   UNL     1       9.288  -2.888   0.000  0.00  0.00    +0.081 C 
ATOM     16  C   UNL     1      10.003  -2.475   0.000  0.00  0.00    +0.010 C 
BRANCH  15  17
ATOM     17  C   UNL     1       9.288  -3.712   0.000  0.00  0.00    +0.241 C 
ATOM     18  O   UNL     1       8.574  -4.125   0.000  0.00  0.00    -0.273 OA
ATOM     19  N   UNL     1      10.003  -4.125   0.000  0.00  0.00    -0.207 NA
BRANCH  19  20
ATOM     20  C   UNL     1      10.003  -4.950   0.000  0.00  0.00    +0.095 C 
ATOM     21  C   UNL     1      10.415  -5.665   0.000  0.00  0.00    +0.023 C 
ATOM     22  C   UNL     1       9.590  -5.665   0.000  0.00  0.00    +0.023 C 
ENDBRANCH  19  20
ENDBRANCH  15  17
ENDBRANCH  14  15
TORSDOF 5
