REMARK  Name = 
REMARK  7 active torsions:
REMARK  status: ('A' for Active; 'I' for Inactive)
REMARK    1  A    between atoms: C_2  and  C_3
REMARK    2  A    between atoms: C_3  and  C_4
REMARK    3  A    between atoms: N_6  and  C_7
REMARK    4  A    between atoms: C_10  and  C_13
REMARK    5  A    between atoms: N_18  and  C_19
REMARK    6  A    between atoms: C_19  and  C_20
REMARK    7  A    between atoms: C_23  and  C_24
REMARK                            x       y       z     vdW  Elec       q    Type
REMARK                         _______ _______ _______ _____ _____    ______ ____
ROOT
ATOM     13  C   UNL     1       5.716  -6.600   0.000  0.00  0.00    +0.159 C 
ATOM     14  O   UNL     1       6.430  -6.188   0.000  0.00  0.00    -0.341 OA
ATOM     15  C   UNL     1       7.145  -6.600   0.000  0.00  0.00    +0.227 C 
ATOM     16  C   UNL     1       7.145  -7.425   0.000  0.00  0.00    +0.256 C 
ATOM     17  O   UNL     1       7.859  -7.838   0.000  0.00  0.00    -0.272 OA
ATOM     18  N   UNL     1       6.430  -7.838   0.000  0.00  0.00    -0.274 N 
ATOM     23  C   UNL     1       5.716  -7.425   0.000  0.00  0.00    +0.140 C 
ENDROOT
BRANCH  13  10
ATOM      7  C   UNL     1       3.572  -5.362   0.000  0.00  0.00    +0.073 A 
ATOM      8  C   UNL     1       4.287  -4.950   0.000  0.00  0.00    +0.016 A 
ATOM      9  C   UNL     1       5.001  -5.362   0.000  0.00  0.00    -0.001 A 
ATOM     10  C   UNL     1       5.001  -6.188   0.000  0.00  0.00    +0.006 A 
ATOM     11  C   UNL     1       4.287  -6.600   0.000  0.00  0.00    -0.001 A 
ATOM     12  C   UNL     1       3.572  -6.188   0.000  0.00  0.00    +0.016 A 
BRANCH   7   6
ATOM      4  C   UNL     1       2.143  -5.362   0.000  0.00  0.00    +0.246 C 
ATOM      5  O   UNL     1       2.143  -6.188   0.000  0.00  0.00    -0.273 OA
ATOM      6  N   UNL     1       2.858  -4.950   0.000  0.00  0.00    -0.179 NA
BRANCH   4   3
ATOM      3  C   UNL     1       1.429  -4.950   0.000  0.00  0.00    +0.087 C 
BRANCH   3   2
ATOM      1  C   UNL     1       0.000  -4.950   0.000  0.00  0.00    +0.001 C 
ATOM      2  C   UNL     1       0.715  -5.362   0.000  0.00  0.00    +0.010 C 
ENDBRANCH   3   2
ENDBRANCH   4   3
ENDBRANCH   7   6
ENDBRANCH  13  10
BRANCH  23  24
ATOM     24  C   UNL     1       5.001  -7.838   0.000  0.00  0.00    +0.205 C 
ATOM     25  O   UNL     1       4.287  -7.425   0.000  0.00  0.00    -0.218 OA
ENDBRANCH  23  24
BRANCH  18  19
ATOM     19  C   UNL     1       6.430  -8.662   0.000  0.00  0.00    +0.094 C 
BRANCH  19  20
ATOM     20  C   UNL     1       7.145  -9.075   0.000  0.00  0.00    +0.020 C 
ATOM     21  C   UNL     1       7.859  -8.662   0.000  0.00  0.00    +0.002 C 
ATOM     22  C   UNL     1       7.145  -9.900   0.000  0.00  0.00    +0.002 C 
ENDBRANCH  19  20
ENDBRANCH  18  19
TORSDOF 7
