MODEL 1
REMARK VINA RESULT:     -10.7      0.000      0.000
REMARK  Name = 
REMARK  6 active torsions:
REMARK  status: ('A' for Active; 'I' for Inactive)
REMARK    1  A    between atoms: O_2  and  C_3
REMARK    2  A    between atoms: C_6  and  C_9
REMARK    3  A    between atoms: C_12  and  C_14
REMARK    4  A    between atoms: N_18  and  C_19
REMARK    5  A    between atoms: C_19  and  C_20
REMARK    6  A    between atoms: C_23  and  N_24
REMARK                            x       y       z     vdW  Elec       q    Type
REMARK                         _______ _______ _______ _____ _____    ______ ____
ROOT
ATOM     14  C   UNL     1      -4.872   2.417  25.274  0.00  0.00    +0.138 C 
ATOM     15  C   UNL     1      -5.676   2.591  25.206  0.00  0.00    +0.027 C 
ATOM     16  C   UNL     1      -6.058   1.925  24.907  0.00  0.00    +0.019 C 
ATOM     17  C   UNL     1      -5.490   1.337  24.788  0.00  0.00    +0.073 C 
ATOM     18  N   UNL     1      -4.757   1.642  25.015  0.00  0.00    -0.263 NA
ENDROOT
BRANCH  14  12
ATOM      9  C   UNL     1      -3.186   3.680  25.617  0.00  0.00    +0.205 A 
ATOM     10  N   UNL     1      -3.586   3.749  26.336  0.00  0.00    -0.056 NA
ATOM     11  O   UNL     1      -4.267   3.284  26.295  0.00  0.00    -0.336 OA
ATOM     12  C   UNL     1      -4.287   2.928  25.551  0.00  0.00    +0.251 A 
ATOM     13  N   UNL     1      -3.619   3.173  25.133  0.00  0.00    -0.190 NA
BRANCH   9   6
ATOM      3  C   UNL     1      -1.060   4.798  25.023  0.00  0.00    +0.225 A 
ATOM      4  N   UNL     1      -1.758   5.235  25.064  0.00  0.00    -0.210 NA
ATOM      5  C   UNL     1      -2.467   4.862  25.262  0.00  0.00    +0.105 A 
ATOM      6  C   UNL     1      -2.477   4.053  25.419  0.00  0.00    +0.058 A 
ATOM      7  C   UNL     1      -1.779   3.615  25.378  0.00  0.00    +0.010 A 
ATOM      8  C   UNL     1      -1.070   3.988  25.180  0.00  0.00    +0.058 A 
BRANCH   3   2
ATOM      1  C   UNL     1      -0.007   5.037  24.087  0.00  0.00    +0.254 C 
ATOM      2  O   UNL     1      -0.351   5.171  24.825  0.00  0.00    -0.456 OA
ENDBRANCH   3   2
ENDBRANCH   9   6
ENDBRANCH  14  12
BRANCH  18  19
ATOM     19  C   UNL     1      -4.036   1.242  24.988  0.00  0.00    +0.099 C 
BRANCH  19  20
ATOM     20  C   UNL     1      -4.020   0.431  24.842  0.00  0.00    -0.006 A 
ATOM     21  C   UNL     1      -4.062  -0.103  25.469  0.00  0.00    -0.002 A 
ATOM     22  C   UNL     1      -4.045  -0.915  25.322  0.00  0.00    +0.016 A 
ATOM     23  C   UNL     1      -3.987  -1.192  24.547  0.00  0.00    +0.073 A 
ATOM     28  C   UNL     1      -3.946  -0.659  23.920  0.00  0.00    +0.016 A 
ATOM     29  C   UNL     1      -3.962   0.153  24.067  0.00  0.00    -0.002 A 
BRANCH  23  24
ATOM     24  N   UNL     1      -3.971  -2.005  24.400  0.00  0.00    -0.179 NA
ATOM     25  C   UNL     1      -3.265  -2.424  24.482  0.00  0.00    +0.246 C 
ATOM     26  C   UNL     1      -3.249  -3.236  24.335  0.00  0.00    +0.097 C 
ATOM     27  O   UNL     1      -2.576  -2.032  24.710  0.00  0.00    -0.273 OA
ENDBRANCH  23  24
ENDBRANCH  19  20
ENDBRANCH  18  19
TORSDOF 6
ENDMDL
MODEL 2
REMARK VINA RESULT:     -10.2      1.078      5.260
REMARK  Name = 
REMARK  6 active torsions:
REMARK  status: ('A' for Active; 'I' for Inactive)
REMARK    1  A    between atoms: O_2  and  C_3
REMARK    2  A    between atoms: C_6  and  C_9
REMARK    3  A    between atoms: C_12  and  C_14
REMARK    4  A    between atoms: N_18  and  C_19
REMARK    5  A    between atoms: C_19  and  C_20
REMARK    6  A    between atoms: C_23  and  N_24
REMARK                            x       y       z     vdW  Elec       q    Type
REMARK                         _______ _______ _______ _____ _____    ______ ____
ROOT
ATOM     14  C   UNL     1      -5.118   1.855  25.353  0.00  0.00    +0.138 C 
ATOM     15  C   UNL     1      -5.722   2.067  25.874  0.00  0.00    +0.027 C 
ATOM     16  C   UNL     1      -5.622   2.862  26.071  0.00  0.00    +0.019 C 
ATOM     17  C   UNL     1      -4.955   3.141  25.672  0.00  0.00    +0.073 C 
ATOM     18  N   UNL     1      -4.644   2.519  25.228  0.00  0.00    -0.263 NA
ENDROOT
BRANCH  14  12
ATOM      9  C   UNL     1      -4.525  -0.108  24.760  0.00  0.00    +0.205 A 
ATOM     10  N   UNL     1      -5.148   0.034  24.238  0.00  0.00    -0.056 NA
ATOM     11  O   UNL     1      -5.446   0.788  24.397  0.00  0.00    -0.336 OA
ATOM     12  C   UNL     1      -5.007   1.110  25.017  0.00  0.00    +0.251 A 
ATOM     13  N   UNL     1      -4.438   0.557  25.241  0.00  0.00    -0.190 NA
BRANCH   9   6
ATOM      3  C   UNL     1      -3.157  -2.168  24.863  0.00  0.00    +0.225 A 
ATOM      4  N   UNL     1      -3.143  -1.632  25.490  0.00  0.00    -0.210 NA
ATOM      5  C   UNL     1      -3.599  -0.945  25.455  0.00  0.00    +0.105 A 
ATOM      6  C   UNL     1      -4.069  -0.795  24.795  0.00  0.00    +0.058 A 
ATOM      7  C   UNL     1      -4.083  -1.331  24.167  0.00  0.00    +0.010 A 
ATOM      8  C   UNL     1      -3.627  -2.017  24.202  0.00  0.00    +0.058 A 
BRANCH   3   2
ATOM      1  C   UNL     1      -1.967  -2.881  24.522  0.00  0.00    +0.254 C 
ATOM      2  O   UNL     1      -2.701  -2.855  24.898  0.00  0.00    -0.456 OA
ENDBRANCH   3   2
ENDBRANCH   9   6
ENDBRANCH  14  12
BRANCH  18  19
ATOM     19  C   UNL     1      -3.977   2.555  24.745  0.00  0.00    +0.099 C 
BRANCH  19  20
ATOM     20  C   UNL     1      -3.416   3.148  24.859  0.00  0.00    -0.006 A 
ATOM     21  C   UNL     1      -2.828   3.055  25.430  0.00  0.00    -0.002 A 
ATOM     22  C   UNL     1      -2.266   3.649  25.545  0.00  0.00    +0.016 A 
ATOM     23  C   UNL     1      -2.293   4.335  25.087  0.00  0.00    +0.073 A 
ATOM     28  C   UNL     1      -2.881   4.428  24.516  0.00  0.00    +0.016 A 
ATOM     29  C   UNL     1      -3.442   3.835  24.402  0.00  0.00    -0.002 A 
BRANCH  23  24
ATOM     24  N   UNL     1      -1.731   4.929  25.202  0.00  0.00    -0.179 NA
ATOM     25  C   UNL     1      -0.983   4.860  24.861  0.00  0.00    +0.246 C 
ATOM     26  C   UNL     1      -0.421   5.454  24.975  0.00  0.00    +0.097 C 
ATOM     27  O   UNL     1      -0.797   4.199  24.406  0.00  0.00    -0.273 OA
ENDBRANCH  23  24
ENDBRANCH  19  20
ENDBRANCH  18  19
TORSDOF 6
ENDMDL
MODEL 3
REMARK VINA RESULT:     -10.0      2.241      6.283
REMARK  Name = 
REMARK  6 active torsions:
REMARK  status: ('A' for Active; 'I' for Inactive)
REMARK    1  A    between atoms: O_2  and  C_3
REMARK    2  A    between atoms: C_6  and  C_9
REMARK    3  A    between atoms: C_12  and  C_14
REMARK    4  A    between atoms: N_18  and  C_19
REMARK    5  A    between atoms: C_19  and  C_20
REMARK    6  A    between atoms: C_23  and  N_24
REMARK                            x       y       z     vdW  Elec       q    Type
REMARK                         _______ _______ _______ _____ _____    ______ ____
ROOT
ATOM     14  C   UNL     1      -0.175   0.439  24.428  0.00  0.00    +0.138 C 
ATOM     15  C   UNL     1       0.399   0.457  23.835  0.00  0.00    +0.027 C 
ATOM     16  C   UNL     1       0.660   1.236  23.756  0.00  0.00    +0.019 C 
ATOM     17  C   UNL     1       0.247   1.699  24.300  0.00  0.00    +0.073 C 
ATOM     18  N   UNL     1      -0.269   1.206  24.715  0.00  0.00    -0.263 NA
ENDROOT
BRANCH  14  12
ATOM      9  C   UNL     1      -1.497  -1.197  24.794  0.00  0.00    +0.205 A 
ATOM     10  N   UNL     1      -0.925  -1.321  25.376  0.00  0.00    -0.056 NA
ATOM     11  O   UNL     1      -0.360  -0.723  25.310  0.00  0.00    -0.336 OA
ATOM     12  C   UNL     1      -0.582  -0.230  24.687  0.00  0.00    +0.251 A 
ATOM     13  N   UNL     1      -1.285  -0.523  24.368  0.00  0.00    -0.190 NA
BRANCH   9   6
ATOM      3  C   UNL     1      -3.495  -2.602  24.397  0.00  0.00    +0.225 A 
ATOM      4  N   UNL     1      -2.741  -2.912  24.272  0.00  0.00    -0.210 NA
ATOM      5  C   UNL     1      -2.074  -2.444  24.404  0.00  0.00    +0.105 A 
ATOM      6  C   UNL     1      -2.163  -1.665  24.662  0.00  0.00    +0.058 A 
ATOM      7  C   UNL     1      -2.917  -1.354  24.787  0.00  0.00    +0.010 A 
ATOM      8  C   UNL     1      -3.583  -1.823  24.654  0.00  0.00    +0.058 A 
BRANCH   3   2
ATOM      1  C   UNL     1      -4.661  -2.905  23.629  0.00  0.00    +0.254 C 
ATOM      2  O   UNL     1      -4.161  -3.071  24.264  0.00  0.00    -0.456 OA
ENDBRANCH   3   2
ENDBRANCH   9   6
ENDBRANCH  14  12
BRANCH  18  19
ATOM     19  C   UNL     1      -0.788   1.440  25.313  0.00  0.00    +0.099 C 
BRANCH  19  20
ATOM     20  C   UNL     1      -1.046   2.222  25.352  0.00  0.00    -0.006 A 
ATOM     21  C   UNL     1      -0.671   2.756  25.857  0.00  0.00    -0.002 A 
ATOM     22  C   UNL     1      -0.930   3.539  25.896  0.00  0.00    +0.016 A 
ATOM     23  C   UNL     1      -1.564   3.787  25.430  0.00  0.00    +0.073 A 
ATOM     28  C   UNL     1      -1.939   3.253  24.925  0.00  0.00    +0.016 A 
ATOM     29  C   UNL     1      -1.680   2.471  24.886  0.00  0.00    -0.002 A 
BRANCH  23  24
ATOM     24  N   UNL     1      -1.823   4.570  25.469  0.00  0.00    -0.179 NA
ATOM     25  C   UNL     1      -1.410   5.160  25.068  0.00  0.00    +0.246 C 
ATOM     26  C   UNL     1      -1.669   5.943  25.107  0.00  0.00    +0.097 C 
ATOM     27  O   UNL     1      -0.740   4.970  24.627  0.00  0.00    -0.273 OA
ENDBRANCH  23  24
ENDBRANCH  19  20
ENDBRANCH  18  19
TORSDOF 6
ENDMDL
MODEL 4
REMARK VINA RESULT:      -9.8      2.646      4.530
REMARK  Name = 
REMARK  6 active torsions:
REMARK  status: ('A' for Active; 'I' for Inactive)
REMARK    1  A    between atoms: O_2  and  C_3
REMARK    2  A    between atoms: C_6  and  C_9
REMARK    3  A    between atoms: C_12  and  C_14
REMARK    4  A    between atoms: N_18  and  C_19
REMARK    5  A    between atoms: C_19  and  C_20
REMARK    6  A    between atoms: C_23  and  N_24
REMARK                            x       y       z     vdW  Elec       q    Type
REMARK                         _______ _______ _______ _____ _____    ______ ____
ROOT
ATOM     14  C   UNL     1      -1.045   3.904  25.178  0.00  0.00    +0.138 C 
ATOM     15  C   UNL     1      -0.852   4.669  24.935  0.00  0.00    +0.027 C 
ATOM     16  C   UNL     1      -1.511   5.150  25.058  0.00  0.00    +0.019 C 
ATOM     17  C   UNL     1      -2.112   4.682  25.377  0.00  0.00    +0.073 C 
ATOM     18  N   UNL     1      -1.823   3.912  25.452  0.00  0.00    -0.263 NA
ENDROOT
BRANCH  14  12
ATOM      9  C   UNL     1       0.105   2.165  24.722  0.00  0.00    +0.205 A 
ATOM     10  N   UNL     1       0.336   2.309  25.501  0.00  0.00    -0.056 NA
ATOM     11  O   UNL     1      -0.067   2.978  25.767  0.00  0.00    -0.336 OA
ATOM     12  C   UNL     1      -0.546   3.248  25.152  0.00  0.00    +0.251 A 
ATOM     13  N   UNL     1      -0.440   2.745  24.506  0.00  0.00    -0.190 NA
BRANCH   9   6
ATOM      3  C   UNL     1       0.908   0.317  23.284  0.00  0.00    +0.225 A 
ATOM      4  N   UNL     1       1.396   0.965  23.434  0.00  0.00    -0.210 NA
ATOM      5  C   UNL     1       1.128   1.581  23.913  0.00  0.00    +0.105 A 
ATOM      6  C   UNL     1       0.373   1.549  24.243  0.00  0.00    +0.058 A 
ATOM      7  C   UNL     1      -0.116   0.901  24.093  0.00  0.00    +0.010 A 
ATOM      8  C   UNL     1       0.152   0.285  23.614  0.00  0.00    +0.058 A 
BRANCH   3   2
ATOM      1  C   UNL     1       1.850  -0.197  22.341  0.00  0.00    +0.254 C 
ATOM      2  O   UNL     1       1.176  -0.299  22.805  0.00  0.00    -0.456 OA
ENDBRANCH   3   2
ENDBRANCH   9   6
ENDBRANCH  14  12
BRANCH  18  19
ATOM     19  C   UNL     1      -2.240   3.265  25.747  0.00  0.00    +0.099 C 
BRANCH  19  20
ATOM     20  C   UNL     1      -3.038   3.169  25.563  0.00  0.00    -0.006 A 
ATOM     21  C   UNL     1      -3.259   2.730  24.901  0.00  0.00    -0.002 A 
ATOM     22  C   UNL     1      -4.058   2.634  24.717  0.00  0.00    +0.016 A 
ATOM     23  C   UNL     1      -4.635   2.977  25.196  0.00  0.00    +0.073 A 
ATOM     28  C   UNL     1      -4.414   3.415  25.858  0.00  0.00    +0.016 A 
ATOM     29  C   UNL     1      -3.616   3.512  26.042  0.00  0.00    -0.002 A 
BRANCH  23  24
ATOM     24  N   UNL     1      -5.434   2.881  25.012  0.00  0.00    -0.179 NA
ATOM     25  C   UNL     1      -5.814   2.169  25.186  0.00  0.00    +0.246 C 
ATOM     26  C   UNL     1      -6.613   2.073  25.002  0.00  0.00    +0.097 C 
ATOM     27  O   UNL     1      -5.397   1.555  25.545  0.00  0.00    -0.273 OA
ENDBRANCH  23  24
ENDBRANCH  19  20
ENDBRANCH  18  19
TORSDOF 6
ENDMDL
MODEL 5
REMARK VINA RESULT:      -9.5      2.391      4.387
REMARK  Name = 
REMARK  6 active torsions:
REMARK  status: ('A' for Active; 'I' for Inactive)
REMARK    1  A    between atoms: O_2  and  C_3
REMARK    2  A    between atoms: C_6  and  C_9
REMARK    3  A    between atoms: C_12  and  C_14
REMARK    4  A    between atoms: N_18  and  C_19
REMARK    5  A    between atoms: C_19  and  C_20
REMARK    6  A    between atoms: C_23  and  N_24
REMARK                            x       y       z     vdW  Elec       q    Type
REMARK                         _______ _______ _______ _____ _____    ______ ____
ROOT
ATOM     14  C   UNL     1      -1.786   4.338  25.339  0.00  0.00    +0.138 C 
ATOM     15  C   UNL     1      -1.565   5.092  25.085  0.00  0.00    +0.027 C 
ATOM     16  C   UNL     1      -0.787   5.051  24.814  0.00  0.00    +0.019 C 
ATOM     17  C   UNL     1      -0.527   4.273  24.900  0.00  0.00    +0.073 C 
ATOM     18  N   UNL     1      -1.145   3.832  25.224  0.00  0.00    -0.263 NA
ENDROOT
BRANCH  14  12
ATOM      9  C   UNL     1      -3.750   3.624  25.776  0.00  0.00    +0.205 A 
ATOM     10  N   UNL     1      -3.550   3.988  26.489  0.00  0.00    -0.056 NA
ATOM     11  O   UNL     1      -2.790   4.300  26.412  0.00  0.00    -0.336 OA
ATOM     12  C   UNL     1      -2.520   4.129  25.652  0.00  0.00    +0.251 A 
ATOM     13  N   UNL     1      -3.113   3.711  25.259  0.00  0.00    -0.190 NA
BRANCH   9   6
ATOM      3  C   UNL     1      -5.883   2.473  25.278  0.00  0.00    +0.225 A 
ATOM      4  N   UNL     1      -5.888   3.252  25.548  0.00  0.00    -0.210 NA
ATOM      5  C   UNL     1      -5.177   3.636  25.714  0.00  0.00    +0.105 A 
ATOM      6  C   UNL     1      -4.461   3.240  25.610  0.00  0.00    +0.058 A 
ATOM      7  C   UNL     1      -4.455   2.460  25.340  0.00  0.00    +0.010 A 
ATOM      8  C   UNL     1      -5.166   2.077  25.174  0.00  0.00    +0.058 A 
BRANCH   3   2
ATOM      1  C   UNL     1      -6.588   1.351  24.743  0.00  0.00    +0.254 C 
ATOM      2  O   UNL     1      -6.595   2.089  25.112  0.00  0.00    -0.456 OA
ENDBRANCH   3   2
ENDBRANCH   9   6
ENDBRANCH  14  12
BRANCH  18  19
ATOM     19  C   UNL     1      -1.125   3.027  25.403  0.00  0.00    +0.099 C 
BRANCH  19  20
ATOM     20  C   UNL     1      -0.670   2.514  24.945  0.00  0.00    -0.006 A 
ATOM     21  C   UNL     1       0.057   2.244  25.227  0.00  0.00    -0.002 A 
ATOM     22  C   UNL     1       0.513   1.730  24.769  0.00  0.00    +0.016 A 
ATOM     23  C   UNL     1       0.241   1.488  24.029  0.00  0.00    +0.073 A 
ATOM     28  C   UNL     1      -0.485   1.759  23.746  0.00  0.00    +0.016 A 
ATOM     29  C   UNL     1      -0.940   2.271  24.204  0.00  0.00    -0.002 A 
BRANCH  23  24
ATOM     24  N   UNL     1       0.697   0.975  23.570  0.00  0.00    -0.179 NA
ATOM     25  C   UNL     1       0.486   0.179  23.510  0.00  0.00    +0.246 C 
ATOM     26  C   UNL     1       0.942  -0.334  23.052  0.00  0.00    +0.097 C 
ATOM     27  O   UNL     1      -0.179  -0.103  23.906  0.00  0.00    -0.273 OA
ENDBRANCH  23  24
ENDBRANCH  19  20
ENDBRANCH  18  19
TORSDOF 6
ENDMDL
MODEL 6
REMARK VINA RESULT:      -9.4      2.686      4.650
REMARK  Name = 
REMARK  6 active torsions:
REMARK  status: ('A' for Active; 'I' for Inactive)
REMARK    1  A    between atoms: O_2  and  C_3
REMARK    2  A    between atoms: C_6  and  C_9
REMARK    3  A    between atoms: C_12  and  C_14
REMARK    4  A    between atoms: N_18  and  C_19
REMARK    5  A    between atoms: C_19  and  C_20
REMARK    6  A    between atoms: C_23  and  N_24
REMARK                            x       y       z     vdW  Elec       q    Type
REMARK                         _______ _______ _______ _____ _____    ______ ____
ROOT
ATOM     14  C   UNL     1      -3.120  -1.062  24.419  0.00  0.00    +0.138 C 
ATOM     15  C   UNL     1      -3.515  -1.658  24.007  0.00  0.00    +0.027 C 
ATOM     16  C   UNL     1      -4.323  -1.496  24.035  0.00  0.00    +0.019 C 
ATOM     17  C   UNL     1      -4.428  -0.800  24.465  0.00  0.00    +0.073 C 
ATOM     18  N   UNL     1      -3.685  -0.531  24.702  0.00  0.00    -0.263 NA
ENDROOT
BRANCH  14  12
ATOM      9  C   UNL     1      -1.017  -0.703  24.346  0.00  0.00    +0.205 A 
ATOM     10  N   UNL     1      -1.081  -1.138  25.045  0.00  0.00    -0.056 NA
ATOM     11  O   UNL     1      -1.877  -1.325  25.157  0.00  0.00    -0.336 OA
ATOM     12  C   UNL     1      -2.304  -1.007  24.528  0.00  0.00    +0.251 A 
ATOM     13  N   UNL     1      -1.773  -0.622  24.027  0.00  0.00    -0.190 NA
BRANCH   9   6
ATOM      3  C   UNL     1       1.076   0.197  23.379  0.00  0.00    +0.225 A 
ATOM      4  N   UNL     1       0.981  -0.617  23.474  0.00  0.00    -0.210 NA
ATOM      5  C   UNL     1       0.284  -0.917  23.797  0.00  0.00    +0.105 A 
ATOM      6  C   UNL     1      -0.319  -0.403  24.024  0.00  0.00    +0.058 A 
ATOM      7  C   UNL     1      -0.226   0.411  23.929  0.00  0.00    +0.010 A 
ATOM      8  C   UNL     1       0.471   0.712  23.607  0.00  0.00    +0.058 A 
BRANCH   3   2
ATOM      1  C   UNL     1       2.160   0.085  22.456  0.00  0.00    +0.254 C 
ATOM      2  O   UNL     1       1.773   0.498  23.057  0.00  0.00    -0.456 OA
ENDBRANCH   3   2
ENDBRANCH   9   6
ENDBRANCH  14  12
BRANCH  18  19
ATOM     19  C   UNL     1      -3.533   0.148  25.144  0.00  0.00    +0.099 C 
BRANCH  19  20
ATOM     20  C   UNL     1      -4.047   0.791  25.102  0.00  0.00    -0.006 A 
ATOM     21  C   UNL     1      -3.875   1.426  24.605  0.00  0.00    -0.002 A 
ATOM     22  C   UNL     1      -4.390   2.070  24.563  0.00  0.00    +0.016 A 
ATOM     23  C   UNL     1      -5.077   2.078  25.019  0.00  0.00    +0.073 A 
ATOM     28  C   UNL     1      -5.249   1.443  25.517  0.00  0.00    +0.016 A 
ATOM     29  C   UNL     1      -4.735   0.800  25.559  0.00  0.00    -0.002 A 
BRANCH  23  24
ATOM     24  N   UNL     1      -5.592   2.722  24.977  0.00  0.00    -0.179 NA
ATOM     25  C   UNL     1      -5.463   3.384  25.452  0.00  0.00    +0.246 C 
ATOM     26  C   UNL     1      -5.978   4.028  25.410  0.00  0.00    +0.097 C 
ATOM     27  O   UNL     1      -4.820   3.403  25.967  0.00  0.00    -0.273 OA
ENDBRANCH  23  24
ENDBRANCH  19  20
ENDBRANCH  18  19
TORSDOF 6
ENDMDL
MODEL 7
REMARK VINA RESULT:      -9.3      2.344      3.232
REMARK  Name = 
REMARK  6 active torsions:
REMARK  status: ('A' for Active; 'I' for Inactive)
REMARK    1  A    between atoms: O_2  and  C_3
REMARK    2  A    between atoms: C_6  and  C_9
REMARK    3  A    between atoms: C_12  and  C_14
REMARK    4  A    between atoms: N_18  and  C_19
REMARK    5  A    between atoms: C_19  and  C_20
REMARK    6  A    between atoms: C_23  and  N_24
REMARK                            x       y       z     vdW  Elec       q    Type
REMARK                         _______ _______ _______ _____ _____    ______ ____
ROOT
ATOM     14  C   UNL     1      -0.192   0.602  24.473  0.00  0.00    +0.138 C 
ATOM     15  C   UNL     1       0.298   0.517  23.814  0.00  0.00    +0.027 C 
ATOM     16  C   UNL     1       0.220  -0.255  23.536  0.00  0.00    +0.019 C 
ATOM     17  C   UNL     1      -0.318  -0.649  24.023  0.00  0.00    +0.073 C 
ATOM     18  N   UNL     1      -0.572  -0.118  24.602  0.00  0.00    -0.263 NA
ENDROOT
BRANCH  14  12
ATOM      9  C   UNL     1      -0.647   2.513  25.309  0.00  0.00    +0.205 A 
ATOM     10  N   UNL     1      -0.208   2.172  25.920  0.00  0.00    -0.056 NA
ATOM     11  O   UNL     1       0.016   1.414  25.680  0.00  0.00    -0.336 OA
ATOM     12  C   UNL     1      -0.284   1.287  24.923  0.00  0.00    +0.251 A 
ATOM     13  N   UNL     1      -0.694   1.966  24.693  0.00  0.00    -0.190 NA
BRANCH   9   6
ATOM      3  C   UNL     1      -1.645   4.777  25.325  0.00  0.00    +0.225 A 
ATOM      4  N   UNL     1      -0.915   4.650  24.963  0.00  0.00    -0.210 NA
ATOM      5  C   UNL     1      -0.583   3.896  24.957  0.00  0.00    +0.105 A 
ATOM      6  C   UNL     1      -0.980   3.268  25.315  0.00  0.00    +0.058 A 
ATOM      7  C   UNL     1      -1.710   3.393  25.678  0.00  0.00    +0.010 A 
ATOM      8  C   UNL     1      -2.043   4.148  25.683  0.00  0.00    +0.058 A 
BRANCH   3   2
ATOM      1  C   UNL     1      -1.626   6.141  24.899  0.00  0.00    +0.254 C 
ATOM      2  O   UNL     1      -1.978   5.532  25.331  0.00  0.00    -0.456 OA
ENDBRANCH   3   2
ENDBRANCH   9   6
ENDBRANCH  14  12
BRANCH  18  19
ATOM     19  C   UNL     1      -1.112  -0.280  25.204  0.00  0.00    +0.099 C 
BRANCH  19  20
ATOM     20  C   UNL     1      -1.737  -0.802  25.069  0.00  0.00    -0.006 A 
ATOM     21  C   UNL     1      -1.585  -1.601  24.937  0.00  0.00    -0.002 A 
ATOM     22  C   UNL     1      -2.211  -2.123  24.802  0.00  0.00    +0.016 A 
ATOM     23  C   UNL     1      -2.987  -1.844  24.799  0.00  0.00    +0.073 A 
ATOM     28  C   UNL     1      -3.138  -1.044  24.932  0.00  0.00    +0.016 A 
ATOM     29  C   UNL     1      -2.514  -0.523  25.067  0.00  0.00    -0.002 A 
BRANCH  23  24
ATOM     24  N   UNL     1      -3.612  -2.366  24.664  0.00  0.00    -0.179 NA
ATOM     25  C   UNL     1      -4.074  -2.288  23.985  0.00  0.00    +0.246 C 
ATOM     26  C   UNL     1      -4.699  -2.810  23.850  0.00  0.00    +0.097 C 
ATOM     27  O   UNL     1      -3.911  -1.691  23.441  0.00  0.00    -0.273 OA
ENDBRANCH  23  24
ENDBRANCH  19  20
ENDBRANCH  18  19
TORSDOF 6
ENDMDL
MODEL 8
REMARK VINA RESULT:      -9.3      2.036      5.553
REMARK  Name = 
REMARK  6 active torsions:
REMARK  status: ('A' for Active; 'I' for Inactive)
REMARK    1  A    between atoms: O_2  and  C_3
REMARK    2  A    between atoms: C_6  and  C_9
REMARK    3  A    between atoms: C_12  and  C_14
REMARK    4  A    between atoms: N_18  and  C_19
REMARK    5  A    between atoms: C_19  and  C_20
REMARK    6  A    between atoms: C_23  and  N_24
REMARK                            x       y       z     vdW  Elec       q    Type
REMARK                         _______ _______ _______ _____ _____    ______ ____
ROOT
ATOM     14  C   UNL     1      -0.652   1.743  25.439  0.00  0.00    +0.138 C 
ATOM     15  C   UNL     1      -0.213   1.904  26.120  0.00  0.00    +0.027 C 
ATOM     16  C   UNL     1      -0.324   2.698  26.314  0.00  0.00    +0.019 C 
ATOM     17  C   UNL     1      -0.832   3.028  25.754  0.00  0.00    +0.073 C 
ATOM     18  N   UNL     1      -1.034   2.438  25.213  0.00  0.00    -0.263 NA
ENDROOT
BRANCH  14  12
ATOM      9  C   UNL     1      -1.093  -0.209  24.697  0.00  0.00    +0.205 A 
ATOM     10  N   UNL     1      -0.451   0.001  24.223  0.00  0.00    -0.056 NA
ATOM     11  O   UNL     1      -0.207   0.758  24.443  0.00  0.00    -0.336 OA
ATOM     12  C   UNL     1      -0.699   1.016  25.054  0.00  0.00    +0.251 A 
ATOM     13  N   UNL     1      -1.246   0.418  25.211  0.00  0.00    -0.190 NA
BRANCH   9   6
ATOM      3  C   UNL     1      -2.339  -2.345  24.597  0.00  0.00    +0.225 A 
ATOM      4  N   UNL     1      -1.515  -2.349  24.636  0.00  0.00    -0.210 NA
ATOM      5  C   UNL     1      -1.100  -1.637  24.670  0.00  0.00    +0.105 A 
ATOM      6  C   UNL     1      -1.508  -0.921  24.664  0.00  0.00    +0.058 A 
ATOM      7  C   UNL     1      -2.333  -0.915  24.625  0.00  0.00    +0.010 A 
ATOM      8  C   UNL     1      -2.748  -1.627  24.592  0.00  0.00    +0.058 A 
BRANCH   3   2
ATOM      1  C   UNL     1      -3.579  -3.051  24.517  0.00  0.00    +0.254 C 
ATOM      2  O   UNL     1      -2.755  -3.057  24.564  0.00  0.00    -0.456 OA
ENDBRANCH   3   2
ENDBRANCH   9   6
ENDBRANCH  14  12
BRANCH  18  19
ATOM     19  C   UNL     1      -1.532   2.528  24.561  0.00  0.00    +0.099 C 
BRANCH  19  20
ATOM     20  C   UNL     1      -2.266   2.893  24.649  0.00  0.00    -0.006 A 
ATOM     21  C   UNL     1      -2.319   3.629  25.018  0.00  0.00    -0.002 A 
ATOM     22  C   UNL     1      -3.054   3.995  25.106  0.00  0.00    +0.016 A 
ATOM     23  C   UNL     1      -3.735   3.624  24.825  0.00  0.00    +0.073 A 
ATOM     28  C   UNL     1      -3.682   2.887  24.457  0.00  0.00    +0.016 A 
ATOM     29  C   UNL     1      -2.948   2.522  24.369  0.00  0.00    -0.002 A 
BRANCH  23  24
ATOM     24  N   UNL     1      -4.470   3.989  24.914  0.00  0.00    -0.179 NA
ATOM     25  C   UNL     1      -4.994   3.726  25.494  0.00  0.00    +0.246 C 
ATOM     26  C   UNL     1      -5.728   4.092  25.582  0.00  0.00    +0.097 C 
ATOM     27  O   UNL     1      -4.785   3.098  25.985  0.00  0.00    -0.273 OA
ENDBRANCH  23  24
ENDBRANCH  19  20
ENDBRANCH  18  19
TORSDOF 6
ENDMDL
