MODEL 1
REMARK VINA RESULT:     -13.6      0.000      0.000
REMARK  Name = 
REMARK  8 active torsions:
REMARK  status: ('A' for Active; 'I' for Inactive)
REMARK    1  A    between atoms: CG_2  and  CB_4
REMARK    2  A    between atoms: CB_4  and  CA_5
REMARK    3  A    between atoms: CA_5  and  C_6
REMARK    4  A    between atoms: CA_5  and  N_8
REMARK    5  A    between atoms: C_9  and  C_11
REMARK    6  A    between atoms: C_11  and  C_12
REMARK    7  A    between atoms: C_17  and  C_19
REMARK    8  A    between atoms: C_28  and  C_30
REMARK                            x       y       z     vdW  Elec       q    Type
REMARK                         _______ _______ _______ _____ _____    ______ ____
ROOT
ATOM     12  C   UNK A   0      -3.436   1.600  24.337  0.00  0.00    +0.050 C 
ATOM     13  C   UNK A   0      -3.708   0.838  24.503  0.00  0.00    +0.062 A 
ATOM     14  C   UNK A   0      -4.408   0.735  24.927  0.00  0.00    +0.022 A 
ATOM     15  C   UNK A   0      -4.836   1.390  25.183  0.00  0.00    +0.034 C 
ATOM     16  C   UNK A   0      -4.564   2.151  25.017  0.00  0.00    +0.010 C 
ATOM     17  C   UNK A   0      -4.993   2.808  25.274  0.00  0.00    +0.059 C 
ATOM     18  C   UNK A   0      -5.471   2.203  25.565  0.00  0.00    +0.005 C 
ATOM     21  C   UNK A   0      -4.720   3.569  25.108  0.00  0.00    +0.154 C 
ATOM     22  O   UNK A   0      -5.149   4.226  25.365  0.00  0.00    -0.223 OA
ATOM     23  C   UNK A   0      -4.020   3.673  24.685  0.00  0.00    +0.033 C 
ATOM     24  C   UNK A   0      -3.592   3.017  24.427  0.00  0.00    +0.003 C 
ATOM     25  C   UNK A   0      -3.863   2.256  24.593  0.00  0.00    +0.006 C 
ATOM     26  C   UNK A   0      -3.164   2.360  24.170  0.00  0.00    +0.000 C 
ATOM     27  S   UNK A   0      -4.538  -0.077  25.007  0.00  0.00    -0.071 S 
ATOM     28  C   UNK A   0      -3.919  -0.473  24.634  0.00  0.00    +0.112 A 
ATOM     29  N   UNK A   0      -3.405   0.092  24.322  0.00  0.00    -0.243 NA
ENDROOT
BRANCH  28  30
ATOM     30  C   UNK A   0      -3.828  -1.292  24.582  0.00  0.00    +0.043 A 
ATOM     31  C   UNK A   0      -3.461  -1.707  25.192  0.00  0.00    +0.101 A 
ATOM     32  N   UNK A   0      -3.371  -2.525  25.139  0.00  0.00    -0.242 NA
ATOM     33  C   UNK A   0      -3.648  -2.928  24.475  0.00  0.00    +0.099 A 
ATOM     34  C   UNK A   0      -4.015  -2.513  23.863  0.00  0.00    +0.021 A 
ATOM     35  C   UNK A   0      -4.105  -1.695  23.917  0.00  0.00    +0.005 A 
ENDBRANCH  28  30
BRANCH  17  19
ATOM     19  C   UNK A   0      -5.587   3.254  25.632  0.00  0.00    +0.184 C 
ATOM     20  O   UNK A   0      -6.067   2.913  26.210  0.00  0.00    -0.220 OA
ENDBRANCH  17  19
BRANCH  12  11
ATOM     11  C   UNK A   0      -2.735   1.703  23.913  0.00  0.00    +0.093 C 
BRANCH  11   9
ATOM      8  N   LEU A   1      -1.360   1.319  23.857  0.00  0.00    -0.204 NA
ATOM      9  C   UNK A   0      -2.007   1.595  24.288  0.00  0.00    +0.242 C 
ATOM     10  O   UNK A   0      -1.928   1.762  25.091  0.00  0.00    -0.273 OA
BRANCH   8   5
ATOM      5  CA  LEU A   1      -0.632   1.210  24.232  0.00  0.00    +0.128 C 
BRANCH   5   6
ATOM      6  C   LEU A   1      -0.145   1.857  24.382  0.00  0.00    +0.204 C 
ATOM      7  O   LEU A   1       0.229   1.931  25.114  0.00  0.00    -0.219 OA
ENDBRANCH   5   6
BRANCH   5   4
ATOM      4  CB  LEU A   1      -0.393   0.453  24.455  0.00  0.00    +0.024 C 
BRANCH   4   2
ATOM      1  CD1 LEU A   1      -0.144  -0.862  23.952  0.00  0.00    +0.000 C 
ATOM      2  CG  LEU A   1      -0.035  -0.046  23.902  0.00  0.00    +0.002 C 
ATOM      3  CD2 LEU A   1       0.432   0.272  23.303  0.00  0.00    +0.000 C 
ENDBRANCH   4   2
ENDBRANCH   5   4
ENDBRANCH   8   5
ENDBRANCH  11   9
ENDBRANCH  12  11
TORSDOF 8
ENDMDL
MODEL 2
REMARK VINA RESULT:     -13.6      1.786      4.997
REMARK  Name = 
REMARK  8 active torsions:
REMARK  status: ('A' for Active; 'I' for Inactive)
REMARK    1  A    between atoms: CG_2  and  CB_4
REMARK    2  A    between atoms: CB_4  and  CA_5
REMARK    3  A    between atoms: CA_5  and  C_6
REMARK    4  A    between atoms: CA_5  and  N_8
REMARK    5  A    between atoms: C_9  and  C_11
REMARK    6  A    between atoms: C_11  and  C_12
REMARK    7  A    between atoms: C_17  and  C_19
REMARK    8  A    between atoms: C_28  and  C_30
REMARK                            x       y       z     vdW  Elec       q    Type
REMARK                         _______ _______ _______ _____ _____    ______ ____
ROOT
ATOM     12  C   UNK A   0      -3.382   0.075  24.345  0.00  0.00    +0.050 C 
ATOM     13  C   UNK A   0      -2.662   0.414  24.565  0.00  0.00    +0.062 A 
ATOM     14  C   UNK A   0      -2.023  -0.068  24.764  0.00  0.00    +0.022 A 
ATOM     15  C   UNK A   0      -2.104  -0.888  24.745  0.00  0.00    +0.034 C 
ATOM     16  C   UNK A   0      -2.823  -1.227  24.526  0.00  0.00    +0.010 C 
ATOM     17  C   UNK A   0      -2.904  -2.048  24.506  0.00  0.00    +0.059 C 
ATOM     18  C   UNK A   0      -2.118  -1.987  24.748  0.00  0.00    +0.005 C 
ATOM     21  C   UNK A   0      -3.624  -2.386  24.287  0.00  0.00    +0.154 C 
ATOM     22  O   UNK A   0      -3.705  -3.208  24.267  0.00  0.00    -0.223 OA
ATOM     23  C   UNK A   0      -4.262  -1.904  24.087  0.00  0.00    +0.033 C 
ATOM     24  C   UNK A   0      -4.182  -1.084  24.106  0.00  0.00    +0.003 C 
ATOM     25  C   UNK A   0      -3.462  -0.744  24.326  0.00  0.00    +0.006 C 
ATOM     26  C   UNK A   0      -4.101  -0.263  24.126  0.00  0.00    +0.000 C 
ATOM     27  S   UNK A   0      -1.386   0.420  24.957  0.00  0.00    -0.071 S 
ATOM     28  C   UNK A   0      -1.631   1.203  24.877  0.00  0.00    +0.112 A 
ATOM     29  N   UNK A   0      -2.420   1.200  24.634  0.00  0.00    -0.243 NA
ENDROOT
BRANCH  28  30
ATOM     30  C   UNK A   0      -1.170   1.873  25.015  0.00  0.00    +0.043 A 
ATOM     31  C   UNK A   0      -0.857   2.297  24.381  0.00  0.00    +0.101 A 
ATOM     32  N   UNK A   0      -0.396   2.967  24.518  0.00  0.00    -0.242 NA
ATOM     33  C   UNK A   0      -0.247   3.213  25.292  0.00  0.00    +0.099 A 
ATOM     34  C   UNK A   0      -0.560   2.789  25.927  0.00  0.00    +0.021 A 
ATOM     35  C   UNK A   0      -1.021   2.119  25.788  0.00  0.00    +0.005 A 
ENDBRANCH  28  30
BRANCH  17  19
ATOM     19  C   UNK A   0      -2.712  -2.847  24.571  0.00  0.00    +0.184 C 
ATOM     20  O   UNK A   0      -1.920  -3.079  24.609  0.00  0.00    -0.220 OA
ENDBRANCH  17  19
BRANCH  12  11
ATOM     11  C   UNK A   0      -4.020   0.558  24.146  0.00  0.00    +0.093 C 
BRANCH  11   9
ATOM      8  N   LEU A   1      -4.778   1.699  24.553  0.00  0.00    -0.204 NA
ATOM      9  C   UNK A   0      -4.419   0.979  24.734  0.00  0.00    +0.242 C 
ATOM     10  O   UNK A   0      -4.457   0.679  25.500  0.00  0.00    -0.273 OA
BRANCH   8   5
ATOM      5  CA  LEU A   1      -5.176   2.120  25.141  0.00  0.00    +0.128 C 
BRANCH   5   6
ATOM      6  C   LEU A   1      -5.965   1.949  25.308  0.00  0.00    +0.204 C 
ATOM      7  O   LEU A   1      -6.511   1.878  24.693  0.00  0.00    -0.219 OA
ENDBRANCH   5   6
BRANCH   5   4
ATOM      4  CB  LEU A   1      -4.784   2.711  25.562  0.00  0.00    +0.024 C 
BRANCH   4   2
ATOM      1  CD1 LEU A   1      -4.363   3.885  24.866  0.00  0.00    +0.000 C 
ATOM      2  CG  LEU A   1      -4.899   3.504  25.363  0.00  0.00    +0.002 C 
ATOM      3  CD2 LEU A   1      -5.549   3.914  25.661  0.00  0.00    +0.000 C 
ENDBRANCH   4   2
ENDBRANCH   5   4
ENDBRANCH   8   5
ENDBRANCH  11   9
ENDBRANCH  12  11
TORSDOF 8
ENDMDL
MODEL 3
REMARK VINA RESULT:     -13.4      1.798      4.071
REMARK  Name = 
REMARK  8 active torsions:
REMARK  status: ('A' for Active; 'I' for Inactive)
REMARK    1  A    between atoms: CG_2  and  CB_4
REMARK    2  A    between atoms: CB_4  and  CA_5
REMARK    3  A    between atoms: CA_5  and  C_6
REMARK    4  A    between atoms: CA_5  and  N_8
REMARK    5  A    between atoms: C_9  and  C_11
REMARK    6  A    between atoms: C_11  and  C_12
REMARK    7  A    between atoms: C_17  and  C_19
REMARK    8  A    between atoms: C_28  and  C_30
REMARK                            x       y       z     vdW  Elec       q    Type
REMARK                         _______ _______ _______ _____ _____    ______ ____
ROOT
ATOM     12  C   UNK A   0      -2.746  -0.154  25.113  0.00  0.00    +0.050 C 
ATOM     13  C   UNK A   0      -3.359   0.388  25.000  0.00  0.00    +0.062 A 
ATOM     14  C   UNK A   0      -4.065   0.145  24.650  0.00  0.00    +0.022 A 
ATOM     15  C   UNK A   0      -4.160  -0.639  24.414  0.00  0.00    +0.034 C 
ATOM     16  C   UNK A   0      -3.549  -1.181  24.527  0.00  0.00    +0.010 C 
ATOM     17  C   UNK A   0      -3.644  -1.966  24.291  0.00  0.00    +0.059 C 
ATOM     18  C   UNK A   0      -4.377  -1.660  24.069  0.00  0.00    +0.005 C 
ATOM     21  C   UNK A   0      -3.031  -2.507  24.404  0.00  0.00    +0.154 C 
ATOM     22  O   UNK A   0      -3.127  -3.293  24.168  0.00  0.00    -0.223 OA
ATOM     23  C   UNK A   0      -2.325  -2.265  24.753  0.00  0.00    +0.033 C 
ATOM     24  C   UNK A   0      -2.230  -1.480  24.990  0.00  0.00    +0.003 C 
ATOM     25  C   UNK A   0      -2.841  -0.938  24.877  0.00  0.00    +0.006 C 
ATOM     26  C   UNK A   0      -2.135  -0.695  25.226  0.00  0.00    +0.000 C 
ATOM     27  S   UNK A   0      -4.567   0.799  24.610  0.00  0.00    -0.071 S 
ATOM     28  C   UNK A   0      -4.171   1.445  24.934  0.00  0.00    +0.112 A 
ATOM     29  N   UNK A   0      -3.423   1.192  25.175  0.00  0.00    -0.243 NA
ENDROOT
BRANCH  28  30
ATOM     30  C   UNK A   0      -4.469   2.212  25.006  0.00  0.00    +0.043 A 
ATOM     31  C   UNK A   0      -5.017   2.388  25.595  0.00  0.00    +0.101 A 
ATOM     32  N   UNK A   0      -5.315   3.155  25.667  0.00  0.00    -0.242 NA
ATOM     33  C   UNK A   0      -5.064   3.744  25.147  0.00  0.00    +0.099 A 
ATOM     34  C   UNK A   0      -4.515   3.568  24.556  0.00  0.00    +0.021 A 
ATOM     35  C   UNK A   0      -4.218   2.801  24.486  0.00  0.00    +0.005 A 
ENDBRANCH  28  30
BRANCH  17  19
ATOM     19  C   UNK A   0      -3.993  -2.644  23.978  0.00  0.00    +0.184 C 
ATOM     20  O   UNK A   0      -4.703  -2.587  23.560  0.00  0.00    -0.220 OA
ENDBRANCH  17  19
BRANCH  12  11
ATOM     11  C   UNK A   0      -2.040   0.090  25.462  0.00  0.00    +0.093 C 
BRANCH  11   9
ATOM      8  N   LEU A   1      -1.023   1.093  25.430  0.00  0.00    -0.204 NA
ATOM      9  C   UNK A   0      -1.508   0.555  25.035  0.00  0.00    +0.242 C 
ATOM     10  O   UNK A   0      -1.462   0.482  24.216  0.00  0.00    -0.273 OA
BRANCH   8   5
ATOM      5  CA  LEU A   1      -0.491   1.558  25.003  0.00  0.00    +0.128 C 
BRANCH   5   6
ATOM      6  C   LEU A   1       0.143   1.206  24.612  0.00  0.00    +0.204 C 
ATOM      7  O   LEU A   1       0.489   1.583  23.963  0.00  0.00    -0.219 OA
ENDBRANCH   5   6
BRANCH   5   4
ATOM      4  CB  LEU A   1      -0.595   2.376  24.969  0.00  0.00    +0.024 C 
BRANCH   4   2
ATOM      1  CD1 LEU A   1      -0.926   3.510  25.772  0.00  0.00    +0.000 C 
ATOM      2  CG  LEU A   1      -0.469   2.836  25.642  0.00  0.00    +0.002 C 
ATOM      3  CD2 LEU A   1       0.113   2.622  26.185  0.00  0.00    +0.000 C 
ENDBRANCH   4   2
ENDBRANCH   5   4
ENDBRANCH   8   5
ENDBRANCH  11   9
ENDBRANCH  12  11
TORSDOF 8
ENDMDL
MODEL 4
REMARK VINA RESULT:     -12.1      1.445      3.462
REMARK  Name = 
REMARK  8 active torsions:
REMARK  status: ('A' for Active; 'I' for Inactive)
REMARK    1  A    between atoms: CG_2  and  CB_4
REMARK    2  A    between atoms: CB_4  and  CA_5
REMARK    3  A    between atoms: CA_5  and  C_6
REMARK    4  A    between atoms: CA_5  and  N_8
REMARK    5  A    between atoms: C_9  and  C_11
REMARK    6  A    between atoms: C_11  and  C_12
REMARK    7  A    between atoms: C_17  and  C_19
REMARK    8  A    between atoms: C_28  and  C_30
REMARK                            x       y       z     vdW  Elec       q    Type
REMARK                         _______ _______ _______ _____ _____    ______ ____
ROOT
ATOM     12  C   UNK A   0      -3.822   1.410  24.592  0.00  0.00    +0.050 C 
ATOM     13  C   UNK A   0      -3.111   1.815  24.701  0.00  0.00    +0.062 A 
ATOM     14  C   UNK A   0      -3.112   2.563  25.050  0.00  0.00    +0.022 A 
ATOM     15  C   UNK A   0      -3.823   2.906  25.288  0.00  0.00    +0.034 C 
ATOM     16  C   UNK A   0      -4.533   2.501  25.179  0.00  0.00    +0.010 C 
ATOM     17  C   UNK A   0      -5.245   2.844  25.417  0.00  0.00    +0.059 C 
ATOM     18  C   UNK A   0      -4.718   3.440  25.636  0.00  0.00    +0.005 C 
ATOM     21  C   UNK A   0      -5.955   2.439  25.308  0.00  0.00    +0.154 C 
ATOM     22  O   UNK A   0      -6.667   2.782  25.547  0.00  0.00    -0.223 OA
ATOM     23  C   UNK A   0      -5.954   1.691  24.960  0.00  0.00    +0.033 C 
ATOM     24  C   UNK A   0      -5.243   1.349  24.721  0.00  0.00    +0.003 C 
ATOM     25  C   UNK A   0      -4.532   1.753  24.830  0.00  0.00    +0.006 C 
ATOM     26  C   UNK A   0      -4.531   1.006  24.482  0.00  0.00    +0.000 C 
ATOM     27  S   UNK A   0      -2.331   2.828  25.086  0.00  0.00    -0.071 S 
ATOM     28  C   UNK A   0      -1.848   2.245  24.761  0.00  0.00    +0.112 A 
ATOM     29  N   UNK A   0      -2.330   1.618  24.523  0.00  0.00    -0.243 NA
ENDROOT
BRANCH  28  30
ATOM     30  C   UNK A   0      -1.027   2.280  24.686  0.00  0.00    +0.043 A 
ATOM     31  C   UNK A   0      -0.688   2.641  24.027  0.00  0.00    +0.101 A 
ATOM     32  N   UNK A   0       0.133   2.676  23.952  0.00  0.00    -0.242 NA
ATOM     33  C   UNK A   0       0.615   2.349  24.537  0.00  0.00    +0.099 A 
ATOM     34  C   UNK A   0       0.275   1.987  25.197  0.00  0.00    +0.021 A 
ATOM     35  C   UNK A   0      -0.546   1.953  25.271  0.00  0.00    +0.005 A 
ENDBRANCH  28  30
BRANCH  17  19
ATOM     19  C   UNK A   0      -5.773   3.394  25.732  0.00  0.00    +0.184 C 
ATOM     20  O   UNK A   0      -5.562   4.191  25.774  0.00  0.00    -0.220 OA
ENDBRANCH  17  19
BRANCH  12  11
ATOM     11  C   UNK A   0      -3.820   0.663  24.244  0.00  0.00    +0.093 C 
BRANCH  11   9
ATOM      8  N   LEU A   1      -3.297  -0.667  24.287  0.00  0.00    -0.204 NA
ATOM      9  C   UNK A   0      -3.571   0.006  24.678  0.00  0.00    +0.242 C 
ATOM     10  O   UNK A   0      -3.595   0.024  25.502  0.00  0.00    -0.273 OA
BRANCH   8   5
ATOM      5  CA  LEU A   1      -3.048  -1.323  24.722  0.00  0.00    +0.128 C 
BRANCH   5   6
ATOM      6  C   LEU A   1      -2.251  -1.413  24.912  0.00  0.00    +0.204 C 
ATOM      7  O   LEU A   1      -1.676  -1.353  24.322  0.00  0.00    -0.219 OA
ENDBRANCH   5   6
BRANCH   5   4
ATOM      4  CB  LEU A   1      -3.597  -1.889  24.965  0.00  0.00    +0.024 C 
BRANCH   4   2
ATOM      1  CD1 LEU A   1      -4.096  -2.680  23.885  0.00  0.00    +0.000 C 
ATOM      2  CG  LEU A   1      -3.644  -2.613  24.572  0.00  0.00    +0.002 C 
ATOM      3  CD2 LEU A   1      -3.239  -3.268  24.865  0.00  0.00    +0.000 C 
ENDBRANCH   4   2
ENDBRANCH   5   4
ENDBRANCH   8   5
ENDBRANCH  11   9
ENDBRANCH  12  11
TORSDOF 8
ENDMDL
MODEL 5
REMARK VINA RESULT:     -12.1      1.842      3.626
REMARK  Name = 
REMARK  8 active torsions:
REMARK  status: ('A' for Active; 'I' for Inactive)
REMARK    1  A    between atoms: CG_2  and  CB_4
REMARK    2  A    between atoms: CB_4  and  CA_5
REMARK    3  A    between atoms: CA_5  and  C_6
REMARK    4  A    between atoms: CA_5  and  N_8
REMARK    5  A    between atoms: C_9  and  C_11
REMARK    6  A    between atoms: C_11  and  C_12
REMARK    7  A    between atoms: C_17  and  C_19
REMARK    8  A    between atoms: C_28  and  C_30
REMARK                            x       y       z     vdW  Elec       q    Type
REMARK                         _______ _______ _______ _____ _____    ______ ____
ROOT
ATOM     12  C   UNK A   0      -2.369   2.307  24.523  0.00  0.00    +0.050 C 
ATOM     13  C   UNK A   0      -3.118   2.493  24.817  0.00  0.00    +0.062 A 
ATOM     14  C   UNK A   0      -3.260   3.238  25.142  0.00  0.00    +0.022 A 
ATOM     15  C   UNK A   0      -2.655   3.796  25.173  0.00  0.00    +0.034 C 
ATOM     16  C   UNK A   0      -1.906   3.611  24.880  0.00  0.00    +0.010 C 
ATOM     17  C   UNK A   0      -1.300   4.170  24.911  0.00  0.00    +0.059 C 
ATOM     18  C   UNK A   0      -1.912   4.602  25.257  0.00  0.00    +0.005 C 
ATOM     21  C   UNK A   0      -0.552   3.983  24.617  0.00  0.00    +0.154 C 
ATOM     22  O   UNK A   0       0.054   4.543  24.649  0.00  0.00    -0.223 OA
ATOM     23  C   UNK A   0      -0.410   3.239  24.292  0.00  0.00    +0.033 C 
ATOM     24  C   UNK A   0      -1.016   2.680  24.261  0.00  0.00    +0.003 C 
ATOM     25  C   UNK A   0      -1.764   2.865  24.554  0.00  0.00    +0.006 C 
ATOM     26  C   UNK A   0      -1.622   2.121  24.229  0.00  0.00    +0.000 C 
ATOM     27  S   UNK A   0      -4.048   3.262  25.386  0.00  0.00    -0.071 S 
ATOM     28  C   UNK A   0      -4.392   2.534  25.212  0.00  0.00    +0.112 A 
ATOM     29  N   UNK A   0      -3.817   2.057  24.860  0.00  0.00    -0.243 NA
ENDROOT
BRANCH  28  30
ATOM     30  C   UNK A   0      -5.174   2.318  25.363  0.00  0.00    +0.043 A 
ATOM     31  C   UNK A   0      -5.519   2.496  26.091  0.00  0.00    +0.101 A 
ATOM     32  N   UNK A   0      -6.301   2.279  26.242  0.00  0.00    -0.242 NA
ATOM     33  C   UNK A   0      -6.738   1.885  25.664  0.00  0.00    +0.099 A 
ATOM     34  C   UNK A   0      -6.393   1.706  24.935  0.00  0.00    +0.021 A 
ATOM     35  C   UNK A   0      -5.611   1.923  24.785  0.00  0.00    +0.005 A 
ENDBRANCH  28  30
BRANCH  17  19
ATOM     19  C   UNK A   0      -0.907   4.879  25.063  0.00  0.00    +0.184 C 
ATOM     20  O   UNK A   0      -1.338   5.573  25.179  0.00  0.00    -0.220 OA
ENDBRANCH  17  19
BRANCH  12  11
ATOM     11  C   UNK A   0      -2.227   1.562  24.198  0.00  0.00    +0.093 C 
BRANCH  11   9
ATOM      8  N   LEU A   1      -2.406   0.157  24.386  0.00  0.00    -0.204 NA
ATOM      9  C   UNK A   0      -2.202   0.897  24.687  0.00  0.00    +0.242 C 
ATOM     10  O   UNK A   0      -1.974   0.974  25.475  0.00  0.00    -0.273 OA
BRANCH   8   5
ATOM      5  CA  LEU A   1      -2.381  -0.508  24.874  0.00  0.00    +0.128 C 
BRANCH   5   6
ATOM      6  C   LEU A   1      -1.670  -0.909  24.989  0.00  0.00    +0.204 C 
ATOM      7  O   LEU A   1      -1.208  -1.123  24.339  0.00  0.00    -0.219 OA
ENDBRANCH   5   6
BRANCH   5   4
ATOM      4  CB  LEU A   1      -3.068  -0.770  25.248  0.00  0.00    +0.024 C 
BRANCH   4   2
ATOM      1  CD1 LEU A   1      -3.323  -2.169  25.388  0.00  0.00    +0.000 C 
ATOM      2  CG  LEU A   1      -3.442  -1.458  24.987  0.00  0.00    +0.002 C 
ATOM      3  CD2 LEU A   1      -3.934  -1.434  24.327  0.00  0.00    +0.000 C 
ENDBRANCH   4   2
ENDBRANCH   5   4
ENDBRANCH   8   5
ENDBRANCH  11   9
ENDBRANCH  12  11
TORSDOF 8
ENDMDL
