MODEL 1
REMARK VINA RESULT:      -8.0      0.000      0.000
REMARK  Name = 
REMARK  10 active torsions:
REMARK  status: ('A' for Active; 'I' for Inactive)
REMARK    1  A    between atoms: O_2  and  C_3
REMARK    2  A    between atoms: C_3  and  C_5
REMARK    3  A    between atoms: C_10  and  C_11
REMARK    4  A    between atoms: C_11  and  C_12
REMARK    5  A    between atoms: C_14  and  C_15
REMARK    6  A    between atoms: C_18  and  C_19
REMARK    7  A    between atoms: C_19  and  N_20
REMARK    8  A    between atoms: C_21  and  C_23
REMARK    9  A    between atoms: C_23  and  C_24
REMARK   10  A    between atoms: C_24  and  C_25
REMARK                            x       y       z     vdW  Elec       q    Type
REMARK                         _______ _______ _______ _____ _____    ______ ____
ROOT
ATOM     12  C   UNL     1      -0.803   2.427  25.073  0.00  0.00    +0.026 C 
ATOM     13  C   UNL     1      -1.044   1.638  25.040  0.00  0.00    +0.005 C 
ATOM     14  C   UNL     1      -0.595   1.085  24.623  0.00  0.00    +0.006 C 
ATOM     18  C   UNL     1       0.095   1.322  24.238  0.00  0.00    +0.043 C 
ATOM     28  C   UNL     1       0.337   2.110  24.270  0.00  0.00    -0.033 C 
ATOM     29  C   UNL     1      -0.112   2.662  24.687  0.00  0.00    -0.048 C 
ATOM     30  C   UNL     1       0.129   3.450  24.720  0.00  0.00    +0.026 C 
ENDROOT
BRANCH  14  15
ATOM     15  C   UNL     1      -0.837   0.297  24.590  0.00  0.00    +0.000 C 
ATOM     16  C   UNL     1      -1.303   0.035  23.963  0.00  0.00    +0.000 C 
ATOM     17  C   UNL     1      -0.611  -0.227  25.186  0.00  0.00    +0.000 C 
ENDBRANCH  14  15
BRANCH  12  11
ATOM     11  C   UNL     1      -1.252   2.978  25.490  0.00  0.00    +0.070 C 
BRANCH  11  10
ATOM      5  C   UNL     1      -4.782   3.045  25.142  0.00  0.00    +0.077 A 
ATOM      6  C   UNL     1      -4.166   2.720  25.585  0.00  0.00    +0.027 A 
ATOM      7  C   UNL     1      -3.385   2.913  25.409  0.00  0.00    +0.100 A 
ATOM      8  C   UNL     1      -3.217   3.430  24.788  0.00  0.00    +0.100 A 
ATOM      9  N   UNL     1      -2.398   3.518  24.743  0.00  0.00    -0.229 NA
ATOM     10  C   UNL     1      -2.059   3.054  25.335  0.00  0.00    +0.139 A 
ATOM     31  N   UNL     1      -2.668   2.680  25.747  0.00  0.00    -0.229 NA
ATOM     32  C   UNL     1      -3.832   3.756  24.345  0.00  0.00    +0.021 A 
ATOM     33  C   UNL     1      -4.615   3.562  24.521  0.00  0.00    +0.008 A 
BRANCH   5   3
ATOM      3  C   UNL     1      -5.564   2.852  25.318  0.00  0.00    +0.341 C 
ATOM      4  O   UNL     1      -5.995   3.320  25.843  0.00  0.00    -0.245 OA
BRANCH   3   2
ATOM      1  C   UNL     1      -6.608   1.877  25.288  0.00  0.00    +0.256 C 
ATOM      2  O   UNL     1      -5.916   2.192  24.970  0.00  0.00    -0.441 OA
ENDBRANCH   3   2
ENDBRANCH   5   3
ENDBRANCH  11  10
ENDBRANCH  12  11
BRANCH  18  19
ATOM     19  C   UNL     1       0.544   0.769  23.821  0.00  0.00    +0.119 C 
BRANCH  19  20
ATOM     20  N   UNL     1       1.289   0.976  23.534  0.00  0.00    -0.205 NA
ATOM     21  C   UNL     1       1.703   0.453  23.049  0.00  0.00    +0.242 C 
ATOM     22  O   UNL     1       1.373  -0.276  22.850  0.00  0.00    -0.273 OA
BRANCH  21  23
ATOM     23  C   UNL     1       2.449   0.660  22.761  0.00  0.00    +0.099 C 
BRANCH  23  24
ATOM     24  C   UNL     1       3.076   0.126  22.820  0.00  0.00    +0.124 C 
BRANCH  24  25
ATOM     25  C   UNL     1       3.846   0.377  22.662  0.00  0.00    +0.365 C 
ATOM     26  O   UNL     1       4.006   0.816  21.982  0.00  0.00    -0.246 OA
ATOM     27  O   UNL     1       4.456   0.188  23.185  0.00  0.00    -0.246 OA
ENDBRANCH  24  25
ENDBRANCH  23  24
ENDBRANCH  21  23
ENDBRANCH  19  20
ENDBRANCH  18  19
TORSDOF 10
ENDMDL
MODEL 2
REMARK VINA RESULT:      -7.8      1.260      1.761
REMARK  Name = 
REMARK  10 active torsions:
REMARK  status: ('A' for Active; 'I' for Inactive)
REMARK    1  A    between atoms: O_2  and  C_3
REMARK    2  A    between atoms: C_3  and  C_5
REMARK    3  A    between atoms: C_10  and  C_11
REMARK    4  A    between atoms: C_11  and  C_12
REMARK    5  A    between atoms: C_14  and  C_15
REMARK    6  A    between atoms: C_18  and  C_19
REMARK    7  A    between atoms: C_19  and  N_20
REMARK    8  A    between atoms: C_21  and  C_23
REMARK    9  A    between atoms: C_23  and  C_24
REMARK   10  A    between atoms: C_24  and  C_25
REMARK                            x       y       z     vdW  Elec       q    Type
REMARK                         _______ _______ _______ _____ _____    ______ ____
ROOT
ATOM     12  C   UNL     1      -2.210   2.328  23.537  0.00  0.00    +0.026 C 
ATOM     13  C   UNL     1      -1.820   2.322  24.264  0.00  0.00    +0.005 C 
ATOM     14  C   UNL     1      -1.179   1.815  24.384  0.00  0.00    +0.006 C 
ATOM     18  C   UNL     1      -0.930   1.315  23.777  0.00  0.00    +0.043 C 
ATOM     28  C   UNL     1      -1.320   1.322  23.050  0.00  0.00    -0.033 C 
ATOM     29  C   UNL     1      -1.960   1.828  22.930  0.00  0.00    -0.048 C 
ATOM     30  C   UNL     1      -2.350   1.835  22.203  0.00  0.00    +0.026 C 
ENDROOT
BRANCH  14  15
ATOM     15  C   UNL     1      -0.789   1.808  25.111  0.00  0.00    +0.000 C 
ATOM     16  C   UNL     1      -0.983   1.241  25.677  0.00  0.00    +0.000 C 
ATOM     17  C   UNL     1      -0.205   2.369  25.270  0.00  0.00    +0.000 C 
ENDBRANCH  14  15
BRANCH  12  11
ATOM     11  C   UNL     1      -2.850   2.835  23.417  0.00  0.00    +0.070 C 
BRANCH  11  10
ATOM      5  C   UNL     1      -5.621   2.478  25.603  0.00  0.00    +0.077 A 
ATOM      6  C   UNL     1      -5.174   2.086  25.031  0.00  0.00    +0.027 A 
ATOM      7  C   UNL     1      -4.536   2.466  24.673  0.00  0.00    +0.100 A 
ATOM      8  C   UNL     1      -4.344   3.239  24.887  0.00  0.00    +0.100 A 
ATOM      9  N   UNL     1      -3.689   3.471  24.443  0.00  0.00    -0.229 NA
ATOM     10  C   UNL     1      -3.476   2.842  23.954  0.00  0.00    +0.139 A 
ATOM     31  N   UNL     1      -4.000   2.220  24.096  0.00  0.00    -0.229 NA
ATOM     32  C   UNL     1      -4.790   3.632  25.459  0.00  0.00    +0.021 A 
ATOM     33  C   UNL     1      -5.429   3.251  25.817  0.00  0.00    +0.008 A 
BRANCH   5   3
ATOM      3  C   UNL     1      -6.259   2.098  25.961  0.00  0.00    +0.341 C 
ATOM      4  O   UNL     1      -6.867   1.787  25.498  0.00  0.00    -0.245 OA
BRANCH   3   2
ATOM      1  C   UNL     1      -6.836   1.519  27.133  0.00  0.00    +0.256 C 
ATOM      2  O   UNL     1      -6.291   2.028  26.783  0.00  0.00    -0.441 OA
ENDBRANCH   3   2
ENDBRANCH   5   3
ENDBRANCH  11  10
ENDBRANCH  12  11
BRANCH  18  19
ATOM     19  C   UNL     1      -0.289   0.808  23.897  0.00  0.00    +0.119 C 
BRANCH  19  20
ATOM     20  N   UNL     1       0.297   0.742  23.320  0.00  0.00    -0.205 NA
ATOM     21  C   UNL     1       0.756   0.058  23.278  0.00  0.00    +0.242 C 
ATOM     22  O   UNL     1       0.630  -0.558  23.811  0.00  0.00    -0.273 OA
BRANCH  21  23
ATOM     23  C   UNL     1       1.343  -0.008  22.701  0.00  0.00    +0.099 C 
BRANCH  23  24
ATOM     24  C   UNL     1       2.139  -0.001  22.920  0.00  0.00    +0.124 C 
BRANCH  24  25
ATOM     25  C   UNL     1       2.720   0.156  22.355  0.00  0.00    +0.365 C 
ATOM     26  O   UNL     1       2.610  -0.084  21.574  0.00  0.00    -0.246 OA
ATOM     27  O   UNL     1       3.411   0.551  22.573  0.00  0.00    -0.246 OA
ENDBRANCH  24  25
ENDBRANCH  23  24
ENDBRANCH  21  23
ENDBRANCH  19  20
ENDBRANCH  18  19
TORSDOF 10
ENDMDL
MODEL 3
REMARK VINA RESULT:      -7.5      1.516      2.421
REMARK  Name = 
REMARK  10 active torsions:
REMARK  status: ('A' for Active; 'I' for Inactive)
REMARK    1  A    between atoms: O_2  and  C_3
REMARK    2  A    between atoms: C_3  and  C_5
REMARK    3  A    between atoms: C_10  and  C_11
REMARK    4  A    between atoms: C_11  and  C_12
REMARK    5  A    between atoms: C_14  and  C_15
REMARK    6  A    between atoms: C_18  and  C_19
REMARK    7  A    between atoms: C_19  and  N_20
REMARK    8  A    between atoms: C_21  and  C_23
REMARK    9  A    between atoms: C_23  and  C_24
REMARK   10  A    between atoms: C_24  and  C_25
REMARK                            x       y       z     vdW  Elec       q    Type
REMARK                         _______ _______ _______ _____ _____    ______ ____
ROOT
ATOM     12  C   UNL     1      -0.928  -0.320  24.747  0.00  0.00    +0.026 C 
ATOM     13  C   UNL     1      -0.837   0.472  24.533  0.00  0.00    +0.005 C 
ATOM     14  C   UNL     1      -0.238   0.691  24.008  0.00  0.00    +0.006 C 
ATOM     18  C   UNL     1       0.267   0.119  23.698  0.00  0.00    +0.043 C 
ATOM     28  C   UNL     1       0.175  -0.673  23.911  0.00  0.00    -0.033 C 
ATOM     29  C   UNL     1      -0.422  -0.892  24.435  0.00  0.00    -0.048 C 
ATOM     30  C   UNL     1      -0.514  -1.683  24.649  0.00  0.00    +0.026 C 
ENDROOT
BRANCH  14  15
ATOM     15  C   UNL     1      -0.147   1.483  23.795  0.00  0.00    +0.000 C 
ATOM     16  C   UNL     1       0.321   1.982  24.255  0.00  0.00    +0.000 C 
ATOM     17  C   UNL     1      -0.523   1.774  23.121  0.00  0.00    +0.000 C 
ENDBRANCH  14  15
BRANCH  12  11
ATOM     11  C   UNL     1      -1.526  -0.538  25.271  0.00  0.00    +0.070 C 
BRANCH  11  10
ATOM      5  C   UNL     1      -4.724   0.967  24.957  0.00  0.00    +0.077 A 
ATOM      6  C   UNL     1      -3.961   1.087  25.248  0.00  0.00    +0.027 A 
ATOM      7  C   UNL     1      -3.388   0.500  25.161  0.00  0.00    +0.100 A 
ATOM      8  C   UNL     1      -3.578  -0.208  24.784  0.00  0.00    +0.100 A 
ATOM      9  N   UNL     1      -2.903  -0.683  24.779  0.00  0.00    -0.229 NA
ATOM     10  C   UNL     1      -2.297  -0.269  25.154  0.00  0.00    +0.139 A 
ATOM     31  N   UNL     1      -2.596   0.463  25.390  0.00  0.00    -0.229 NA
ATOM     32  C   UNL     1      -4.340  -0.330  24.493  0.00  0.00    +0.021 A 
ATOM     33  C   UNL     1      -4.913   0.258  24.580  0.00  0.00    +0.008 A 
BRANCH   5   3
ATOM      3  C   UNL     1      -5.296   1.554  25.044  0.00  0.00    +0.341 C 
ATOM      4  O   UNL     1      -5.376   2.139  24.469  0.00  0.00    -0.245 OA
BRANCH   3   2
ATOM      1  C   UNL     1      -6.258   2.214  25.869  0.00  0.00    +0.256 C 
ATOM      2  O   UNL     1      -5.789   1.556  25.706  0.00  0.00    -0.441 OA
ENDBRANCH   3   2
ENDBRANCH   5   3
ENDBRANCH  11  10
ENDBRANCH  12  11
BRANCH  18  19
ATOM     19  C   UNL     1       0.865   0.338  23.173  0.00  0.00    +0.119 C 
BRANCH  19  20
ATOM     20  N   UNL     1       1.653   0.170  23.352  0.00  0.00    -0.205 NA
ATOM     21  C   UNL     1       2.202   0.076  22.744  0.00  0.00    +0.242 C 
ATOM     22  O   UNL     1       1.965   0.149  21.958  0.00  0.00    -0.273 OA
BRANCH  21  23
ATOM     23  C   UNL     1       2.991  -0.092  22.924  0.00  0.00    +0.099 C 
BRANCH  23  24
ATOM     24  C   UNL     1       3.581   0.451  22.731  0.00  0.00    +0.124 C 
BRANCH  24  25
ATOM     25  C   UNL     1       4.328   0.387  23.076  0.00  0.00    +0.365 C 
ATOM     26  O   UNL     1       4.720  -0.339  23.080  0.00  0.00    -0.246 OA
ATOM     27  O   UNL     1       4.683   1.049  23.418  0.00  0.00    -0.246 OA
ENDBRANCH  24  25
ENDBRANCH  23  24
ENDBRANCH  21  23
ENDBRANCH  19  20
ENDBRANCH  18  19
TORSDOF 10
ENDMDL
MODEL 4
REMARK VINA RESULT:      -7.4      0.950      6.779
REMARK  Name = 
REMARK  10 active torsions:
REMARK  status: ('A' for Active; 'I' for Inactive)
REMARK    1  A    between atoms: O_2  and  C_3
REMARK    2  A    between atoms: C_3  and  C_5
REMARK    3  A    between atoms: C_10  and  C_11
REMARK    4  A    between atoms: C_11  and  C_12
REMARK    5  A    between atoms: C_14  and  C_15
REMARK    6  A    between atoms: C_18  and  C_19
REMARK    7  A    between atoms: C_19  and  N_20
REMARK    8  A    between atoms: C_21  and  C_23
REMARK    9  A    between atoms: C_23  and  C_24
REMARK   10  A    between atoms: C_24  and  C_25
REMARK                            x       y       z     vdW  Elec       q    Type
REMARK                         _______ _______ _______ _____ _____    ______ ____
ROOT
ATOM     12  C   UNL     1      -0.941   0.455  24.408  0.00  0.00    +0.026 C 
ATOM     13  C   UNL     1      -0.636   1.206  24.565  0.00  0.00    +0.005 C 
ATOM     14  C   UNL     1      -1.147   1.849  24.650  0.00  0.00    +0.006 C 
ATOM     18  C   UNL     1      -1.961   1.741  24.578  0.00  0.00    +0.043 C 
ATOM     28  C   UNL     1      -2.266   0.991  24.420  0.00  0.00    -0.033 C 
ATOM     29  C   UNL     1      -1.756   0.349  24.336  0.00  0.00    -0.048 C 
ATOM     30  C   UNL     1      -2.061  -0.402  24.178  0.00  0.00    +0.026 C 
ENDROOT
BRANCH  14  15
ATOM     15  C   UNL     1      -0.842   2.600  24.808  0.00  0.00    +0.000 C 
ATOM     16  C   UNL     1      -0.671   3.113  24.186  0.00  0.00    +0.000 C 
ATOM     17  C   UNL     1      -0.710   2.835  25.588  0.00  0.00    +0.000 C 
ENDBRANCH  14  15
BRANCH  12  11
ATOM     11  C   UNL     1      -0.431  -0.187  24.323  0.00  0.00    +0.070 C 
BRANCH  11  10
ATOM      5  C   UNL     1       2.647   0.220  22.606  0.00  0.00    +0.077 A 
ATOM      6  C   UNL     1       2.287   0.290  23.345  0.00  0.00    +0.027 A 
ATOM      7  C   UNL     1       1.488   0.106  23.434  0.00  0.00    +0.100 A 
ATOM      8  C   UNL     1       1.049  -0.148  22.784  0.00  0.00    +0.100 A 
ATOM      9  N   UNL     1       0.276  -0.289  23.038  0.00  0.00    -0.229 NA
ATOM     10  C   UNL     1       0.238  -0.121  23.845  0.00  0.00    +0.139 A 
ATOM     31  N   UNL     1       0.987   0.123  24.090  0.00  0.00    -0.229 NA
ATOM     32  C   UNL     1       1.408  -0.219  22.045  0.00  0.00    +0.021 A 
ATOM     33  C   UNL     1       2.208  -0.035  21.956  0.00  0.00    +0.008 A 
BRANCH   5   3
ATOM      3  C   UNL     1       3.446   0.403  22.517  0.00  0.00    +0.341 C 
ATOM      4  O   UNL     1       3.692   0.877  21.888  0.00  0.00    -0.245 OA
BRANCH   3   2
ATOM      1  C   UNL     1       4.785   0.360  23.014  0.00  0.00    +0.256 C 
ATOM      2  O   UNL     1       3.999   0.114  23.056  0.00  0.00    -0.441 OA
ENDBRANCH   3   2
ENDBRANCH   5   3
ENDBRANCH  11  10
ENDBRANCH  12  11
BRANCH  18  19
ATOM     19  C   UNL     1      -2.472   2.384  24.663  0.00  0.00    +0.119 C 
BRANCH  19  20
ATOM     20  N   UNL     1      -3.283   2.259  24.744  0.00  0.00    -0.205 NA
ATOM     21  C   UNL     1      -3.802   2.900  24.732  0.00  0.00    +0.242 C 
ATOM     22  O   UNL     1      -3.510   3.666  24.639  0.00  0.00    -0.273 OA
BRANCH  21  23
ATOM     23  C   UNL     1      -4.614   2.774  24.812  0.00  0.00    +0.099 C 
BRANCH  23  24
ATOM     24  C   UNL     1      -5.009   3.053  25.481  0.00  0.00    +0.124 C 
BRANCH  24  25
ATOM     25  C   UNL     1      -5.728   2.715  25.705  0.00  0.00    +0.365 C 
ATOM     26  O   UNL     1      -6.195   2.329  25.144  0.00  0.00    -0.246 OA
ATOM     27  O   UNL     1      -5.980   2.762  26.489  0.00  0.00    -0.246 OA
ENDBRANCH  24  25
ENDBRANCH  23  24
ENDBRANCH  21  23
ENDBRANCH  19  20
ENDBRANCH  18  19
TORSDOF 10
ENDMDL
MODEL 5
REMARK VINA RESULT:      -6.8      3.458      5.409
REMARK  Name = 
REMARK  10 active torsions:
REMARK  status: ('A' for Active; 'I' for Inactive)
REMARK    1  A    between atoms: O_2  and  C_3
REMARK    2  A    between atoms: C_3  and  C_5
REMARK    3  A    between atoms: C_10  and  C_11
REMARK    4  A    between atoms: C_11  and  C_12
REMARK    5  A    between atoms: C_14  and  C_15
REMARK    6  A    between atoms: C_18  and  C_19
REMARK    7  A    between atoms: C_19  and  N_20
REMARK    8  A    between atoms: C_21  and  C_23
REMARK    9  A    between atoms: C_23  and  C_24
REMARK   10  A    between atoms: C_24  and  C_25
REMARK                            x       y       z     vdW  Elec       q    Type
REMARK                         _______ _______ _______ _____ _____    ______ ____
ROOT
ATOM     12  C   UNL     1      -4.792   1.590  24.780  0.00  0.00    +0.026 C 
ATOM     13  C   UNL     1      -4.373   1.726  24.083  0.00  0.00    +0.005 C 
ATOM     14  C   UNL     1      -3.979   2.443  23.971  0.00  0.00    +0.006 C 
ATOM     18  C   UNL     1      -4.005   3.023  24.557  0.00  0.00    +0.043 C 
ATOM     28  C   UNL     1      -4.424   2.887  25.254  0.00  0.00    -0.033 C 
ATOM     29  C   UNL     1      -4.817   2.171  25.366  0.00  0.00    -0.048 C 
ATOM     30  C   UNL     1      -5.237   2.035  26.063  0.00  0.00    +0.026 C 
ENDROOT
BRANCH  14  15
ATOM     15  C   UNL     1      -3.560   2.579  23.273  0.00  0.00    +0.000 C 
ATOM     16  C   UNL     1      -3.892   3.041  22.676  0.00  0.00    +0.000 C 
ATOM     17  C   UNL     1      -2.809   2.253  23.174  0.00  0.00    +0.000 C 
ENDBRANCH  14  15
BRANCH  12  11
ATOM     11  C   UNL     1      -5.186   0.874  24.892  0.00  0.00    +0.070 C 
BRANCH  11  10
ATOM      5  C   UNL     1      -3.245  -2.085  24.638  0.00  0.00    +0.077 A 
ATOM      6  C   UNL     1      -3.332  -1.385  25.066  0.00  0.00    +0.027 A 
ATOM      7  C   UNL     1      -3.928  -0.851  24.868  0.00  0.00    +0.100 A 
ATOM      8  C   UNL     1      -4.439  -1.017  24.242  0.00  0.00    +0.100 A 
ATOM      9  N   UNL     1      -4.972  -0.391  24.175  0.00  0.00    -0.229 NA
ATOM     10  C   UNL     1      -4.791   0.162  24.759  0.00  0.00    +0.139 A 
ATOM     31  N   UNL     1      -4.146  -0.122  25.188  0.00  0.00    -0.229 NA
ATOM     32  C   UNL     1      -4.353  -1.717  23.814  0.00  0.00    +0.021 A 
ATOM     33  C   UNL     1      -3.755  -2.251  24.012  0.00  0.00    +0.008 A 
BRANCH   5   3
ATOM      3  C   UNL     1      -2.648  -2.618  24.836  0.00  0.00    +0.341 C 
ATOM      4  O   UNL     1      -2.820  -3.272  25.310  0.00  0.00    -0.245 OA
BRANCH   3   2
ATOM      1  C   UNL     1      -1.241  -2.830  24.964  0.00  0.00    +0.256 C 
ATOM      2  O   UNL     1      -1.879  -2.500  24.561  0.00  0.00    -0.441 OA
ENDBRANCH   3   2
ENDBRANCH   5   3
ENDBRANCH  11  10
ENDBRANCH  12  11
BRANCH  18  19
ATOM     19  C   UNL     1      -3.611   3.740  24.445  0.00  0.00    +0.119 C 
BRANCH  19  20
ATOM     20  N   UNL     1      -2.909   3.892  24.851  0.00  0.00    -0.205 NA
ATOM     21  C   UNL     1      -2.668   4.670  24.979  0.00  0.00    +0.242 C 
ATOM     22  O   UNL     1      -3.129   5.296  24.702  0.00  0.00    -0.273 OA
BRANCH  21  23
ATOM     23  C   UNL     1      -1.966   4.823  25.386  0.00  0.00    +0.099 C 
BRANCH  23  24
ATOM     24  C   UNL     1      -1.359   5.241  25.016  0.00  0.00    +0.124 C 
BRANCH  24  25
ATOM     25  C   UNL     1      -0.600   4.919  24.978  0.00  0.00    +0.365 C 
ATOM     26  O   UNL     1      -0.065   5.190  24.412  0.00  0.00    -0.246 OA
ATOM     27  O   UNL     1      -0.377   4.326  25.506  0.00  0.00    -0.246 OA
ENDBRANCH  24  25
ENDBRANCH  23  24
ENDBRANCH  21  23
ENDBRANCH  19  20
ENDBRANCH  18  19
TORSDOF 10
ENDMDL
MODEL 6
REMARK VINA RESULT:      -6.8      1.808      6.621
REMARK  Name = 
REMARK  10 active torsions:
REMARK  status: ('A' for Active; 'I' for Inactive)
REMARK    1  A    between atoms: O_2  and  C_3
REMARK    2  A    between atoms: C_3  and  C_5
REMARK    3  A    between atoms: C_10  and  C_11
REMARK    4  A    between atoms: C_11  and  C_12
REMARK    5  A    between atoms: C_14  and  C_15
REMARK    6  A    between atoms: C_18  and  C_19
REMARK    7  A    between atoms: C_19  and  N_20
REMARK    8  A    between atoms: C_21  and  C_23
REMARK    9  A    between atoms: C_23  and  C_24
REMARK   10  A    between atoms: C_24  and  C_25
REMARK                            x       y       z     vdW  Elec       q    Type
REMARK                         _______ _______ _______ _____ _____    ______ ____
ROOT
ATOM     12  C   UNL     1      -2.040  -0.752  25.093  0.00  0.00    +0.026 C 
ATOM     13  C   UNL     1      -2.526  -0.909  24.445  0.00  0.00    +0.005 C 
ATOM     14  C   UNL     1      -3.297  -0.615  24.426  0.00  0.00    +0.006 C 
ATOM     18  C   UNL     1      -3.582  -0.166  25.057  0.00  0.00    +0.043 C 
ATOM     28  C   UNL     1      -3.096  -0.009  25.705  0.00  0.00    -0.033 C 
ATOM     29  C   UNL     1      -2.326  -0.302  25.723  0.00  0.00    -0.048 C 
ATOM     30  C   UNL     1      -1.840  -0.145  26.371  0.00  0.00    +0.026 C 
ENDROOT
BRANCH  14  15
ATOM     15  C   UNL     1      -3.783  -0.772  23.778  0.00  0.00    +0.000 C 
ATOM     16  C   UNL     1      -3.770  -0.272  23.123  0.00  0.00    +0.000 C 
ATOM     17  C   UNL     1      -4.282  -1.430  23.786  0.00  0.00    +0.000 C 
ENDBRANCH  14  15
BRANCH  12  11
ATOM     11  C   UNL     1      -1.270  -1.045  25.111  0.00  0.00    +0.070 C 
BRANCH  11  10
ATOM      5  C   UNL     1       1.312   0.052  22.939  0.00  0.00    +0.077 A 
ATOM      6  C   UNL     1       0.899  -0.616  23.192  0.00  0.00    +0.027 A 
ATOM      7  C   UNL     1       0.303  -0.543  23.756  0.00  0.00    +0.100 A 
ATOM      8  C   UNL     1       0.119   0.198  24.068  0.00  0.00    +0.100 A 
ATOM      9  N   UNL     1      -0.493   0.100  24.614  0.00  0.00    -0.229 NA
ATOM     10  C   UNL     1      -0.687  -0.701  24.639  0.00  0.00    +0.139 A 
ATOM     31  N   UNL     1      -0.195  -1.099  24.109  0.00  0.00    -0.229 NA
ATOM     32  C   UNL     1       0.531   0.867  23.816  0.00  0.00    +0.021 A 
ATOM     33  C   UNL     1       1.128   0.794  23.251  0.00  0.00    +0.008 A 
BRANCH   5   3
ATOM      3  C   UNL     1       1.909  -0.020  22.374  0.00  0.00    +0.341 C 
ATOM      4  O   UNL     1       1.722  -0.249  21.604  0.00  0.00    -0.245 OA
BRANCH   3   2
ATOM      1  C   UNL     1       3.274   0.166  21.995  0.00  0.00    +0.256 C 
ATOM      2  O   UNL     1       2.693   0.136  22.579  0.00  0.00    -0.441 OA
ENDBRANCH   3   2
ENDBRANCH   5   3
ENDBRANCH  11  10
ENDBRANCH  12  11
BRANCH  18  19
ATOM     19  C   UNL     1      -4.354   0.128  25.038  0.00  0.00    +0.119 C 
BRANCH  19  20
ATOM     20  N   UNL     1      -4.523   0.863  25.372  0.00  0.00    -0.205 NA
ATOM     21  C   UNL     1      -5.289   1.165  25.334  0.00  0.00    +0.242 C 
ATOM     22  O   UNL     1      -5.886   0.732  24.964  0.00  0.00    -0.273 OA
BRANCH  21  23
ATOM     23  C   UNL     1      -5.459   1.901  25.668  0.00  0.00    +0.099 C 
BRANCH  23  24
ATOM     24  C   UNL     1      -5.536   2.565  25.184  0.00  0.00    +0.124 C 
BRANCH  24  25
ATOM     25  C   UNL     1      -5.508   3.321  25.514  0.00  0.00    +0.365 C 
ATOM     26  O   UNL     1      -4.810   3.759  25.478  0.00  0.00    -0.246 OA
ATOM     27  O   UNL     1      -6.177   3.638  25.878  0.00  0.00    -0.246 OA
ENDBRANCH  24  25
ENDBRANCH  23  24
ENDBRANCH  21  23
ENDBRANCH  19  20
ENDBRANCH  18  19
TORSDOF 10
ENDMDL
MODEL 7
REMARK VINA RESULT:      -6.7      1.838      2.734
REMARK  Name = 
REMARK  10 active torsions:
REMARK  status: ('A' for Active; 'I' for Inactive)
REMARK    1  A    between atoms: O_2  and  C_3
REMARK    2  A    between atoms: C_3  and  C_5
REMARK    3  A    between atoms: C_10  and  C_11
REMARK    4  A    between atoms: C_11  and  C_12
REMARK    5  A    between atoms: C_14  and  C_15
REMARK    6  A    between atoms: C_18  and  C_19
REMARK    7  A    between atoms: C_19  and  N_20
REMARK    8  A    between atoms: C_21  and  C_23
REMARK    9  A    between atoms: C_23  and  C_24
REMARK   10  A    between atoms: C_24  and  C_25
REMARK                            x       y       z     vdW  Elec       q    Type
REMARK                         _______ _______ _______ _____ _____    ______ ____
ROOT
ATOM     12  C   UNL     1      -3.364  -0.310  24.551  0.00  0.00    +0.026 C 
ATOM     13  C   UNL     1      -2.905  -0.220  25.231  0.00  0.00    +0.005 C 
ATOM     14  C   UNL     1      -2.086  -0.319  25.192  0.00  0.00    +0.006 C 
ATOM     18  C   UNL     1      -1.727  -0.508  24.474  0.00  0.00    +0.043 C 
ATOM     28  C   UNL     1      -2.186  -0.599  23.795  0.00  0.00    -0.033 C 
ATOM     29  C   UNL     1      -3.004  -0.500  23.833  0.00  0.00    -0.048 C 
ATOM     30  C   UNL     1      -3.462  -0.590  23.153  0.00  0.00    +0.026 C 
ENDROOT
BRANCH  14  15
ATOM     15  C   UNL     1      -1.627  -0.228  25.872  0.00  0.00    +0.000 C 
ATOM     16  C   UNL     1      -1.512  -0.868  26.379  0.00  0.00    +0.000 C 
ATOM     17  C   UNL     1      -1.284   0.503  26.043  0.00  0.00    +0.000 C 
ENDBRANCH  14  15
BRANCH  12  11
ATOM     11  C   UNL     1      -4.181  -0.211  24.589  0.00  0.00    +0.070 C 
BRANCH  11  10
ATOM      5  C   UNL     1      -5.299   3.048  25.436  0.00  0.00    +0.077 A 
ATOM      6  C   UNL     1      -4.791   2.631  24.938  0.00  0.00    +0.027 A 
ATOM      7  C   UNL     1      -4.751   1.809  24.983  0.00  0.00    +0.100 A 
ATOM      8  C   UNL     1      -5.220   1.402  25.526  0.00  0.00    +0.100 A 
ATOM      9  N   UNL     1      -5.063   0.596  25.445  0.00  0.00    -0.229 NA
ATOM     10  C   UNL     1      -4.498   0.504  24.851  0.00  0.00    +0.139 A 
ATOM     31  N   UNL     1      -4.304   1.254  24.565  0.00  0.00    -0.229 NA
ATOM     32  C   UNL     1      -5.728   1.818  26.025  0.00  0.00    +0.021 A 
ATOM     33  C   UNL     1      -5.768   2.641  25.980  0.00  0.00    +0.008 A 
BRANCH   5   3
ATOM      3  C   UNL     1      -5.339   3.870  25.392  0.00  0.00    +0.341 C 
ATOM      4  O   UNL     1      -4.716   4.296  25.058  0.00  0.00    -0.245 OA
BRANCH   3   2
ATOM      1  C   UNL     1      -6.095   5.075  25.536  0.00  0.00    +0.256 C 
ATOM      2  O   UNL     1      -6.002   4.268  25.680  0.00  0.00    -0.441 OA
ENDBRANCH   3   2
ENDBRANCH   5   3
ENDBRANCH  11  10
ENDBRANCH  12  11
BRANCH  18  19
ATOM     19  C   UNL     1      -0.909  -0.608  24.436  0.00  0.00    +0.119 C 
BRANCH  19  20
ATOM     20  N   UNL     1      -0.492  -0.344  23.774  0.00  0.00    -0.205 NA
ATOM     21  C   UNL     1       0.281  -0.601  23.646  0.00  0.00    +0.242 C 
ATOM     22  O   UNL     1       0.638  -1.119  24.179  0.00  0.00    -0.273 OA
BRANCH  21  23
ATOM     23  C   UNL     1       0.698  -0.337  22.984  0.00  0.00    +0.099 C 
BRANCH  23  24
ATOM     24  C   UNL     1       1.487  -0.107  23.058  0.00  0.00    +0.124 C 
BRANCH  24  25
ATOM     25  C   UNL     1       1.950   0.003  22.384  0.00  0.00    +0.365 C 
ATOM     26  O   UNL     1       1.656  -0.212  21.643  0.00  0.00    -0.246 OA
ATOM     27  O   UNL     1       2.705   0.327  22.450  0.00  0.00    -0.246 OA
ENDBRANCH  24  25
ENDBRANCH  23  24
ENDBRANCH  21  23
ENDBRANCH  19  20
ENDBRANCH  18  19
TORSDOF 10
ENDMDL
MODEL 8
REMARK VINA RESULT:      -5.4     14.314     15.087
REMARK  Name = 
REMARK  10 active torsions:
REMARK  status: ('A' for Active; 'I' for Inactive)
REMARK    1  A    between atoms: O_2  and  C_3
REMARK    2  A    between atoms: C_3  and  C_5
REMARK    3  A    between atoms: C_10  and  C_11
REMARK    4  A    between atoms: C_11  and  C_12
REMARK    5  A    between atoms: C_14  and  C_15
REMARK    6  A    between atoms: C_18  and  C_19
REMARK    7  A    between atoms: C_19  and  N_20
REMARK    8  A    between atoms: C_21  and  C_23
REMARK    9  A    between atoms: C_23  and  C_24
REMARK   10  A    between atoms: C_24  and  C_25
REMARK                            x       y       z     vdW  Elec       q    Type
REMARK                         _______ _______ _______ _____ _____    ______ ____
ROOT
ATOM     12  C   UNL     1      -6.322 -10.218  17.017  0.00  0.00    +0.026 C 
ATOM     13  C   UNL     1      -6.515 -10.165  16.217  0.00  0.00    +0.005 C 
ATOM     14  C   UNL     1      -5.926 -10.247  15.644  0.00  0.00    +0.006 C 
ATOM     18  C   UNL     1      -5.145 -10.383  15.873  0.00  0.00    +0.043 C 
ATOM     28  C   UNL     1      -4.953 -10.437  16.673  0.00  0.00    -0.033 C 
ATOM     29  C   UNL     1      -5.541 -10.354  17.245  0.00  0.00    -0.048 C 
ATOM     30  C   UNL     1      -5.348 -10.408  18.045  0.00  0.00    +0.026 C 
ENDROOT
BRANCH  14  15
ATOM     15  C   UNL     1      -6.119 -10.194  14.844  0.00  0.00    +0.000 C 
ATOM     16  C   UNL     1      -5.834  -9.566  14.392  0.00  0.00    +0.000 C 
ATOM     17  C   UNL     1      -6.597 -10.770  14.495  0.00  0.00    +0.000 C 
ENDBRANCH  14  15
BRANCH  12  11
ATOM     11  C   UNL     1      -6.910 -10.136  17.589  0.00  0.00    +0.070 C 
BRANCH  11  10
ATOM      5  C   UNL     1      -9.769  -8.178  16.824  0.00  0.00    +0.077 A 
ATOM      6  C   UNL     1      -8.973  -8.133  17.039  0.00  0.00    +0.027 A 
ATOM      7  C   UNL     1      -8.537  -8.823  17.154  0.00  0.00    +0.100 A 
ATOM      8  C   UNL     1      -8.895  -9.559  17.055  0.00  0.00    +0.100 A 
ATOM      9  N   UNL     1      -8.330 -10.141  17.206  0.00  0.00    -0.229 NA
ATOM     10  C   UNL     1      -7.621  -9.764  17.398  0.00  0.00    +0.139 A 
ATOM     31  N   UNL     1      -7.749  -8.949  17.366  0.00  0.00    -0.229 NA
ATOM     32  C   UNL     1      -9.691  -9.606  16.841  0.00  0.00    +0.021 A 
ATOM     33  C   UNL     1     -10.127  -8.915  16.725  0.00  0.00    +0.008 A 
BRANCH   5   3
ATOM      3  C   UNL     1     -10.205  -7.489  16.709  0.00  0.00    +0.341 C 
ATOM      4  O   UNL     1     -10.635  -7.163  17.333  0.00  0.00    -0.245 OA
BRANCH   3   2
ATOM      1  C   UNL     1     -10.713  -6.483  15.829  0.00  0.00    +0.256 C 
ATOM      2  O   UNL     1     -10.213  -7.123  15.969  0.00  0.00    -0.441 OA
ENDBRANCH   3   2
ENDBRANCH   5   3
ENDBRANCH  11  10
ENDBRANCH  12  11
BRANCH  18  19
ATOM     19  C   UNL     1      -4.557 -10.466  15.300  0.00  0.00    +0.119 C 
BRANCH  19  20
ATOM     20  N   UNL     1      -3.783 -10.640  15.526  0.00  0.00    -0.205 NA
ATOM     21  C   UNL     1      -3.174 -10.607  14.971  0.00  0.00    +0.242 C 
ATOM     22  O   UNL     1      -3.339 -10.400  14.189  0.00  0.00    -0.273 OA
BRANCH  21  23
ATOM     23  C   UNL     1      -2.399 -10.781  15.197  0.00  0.00    +0.099 C 
BRANCH  23  24
ATOM     24  C   UNL     1      -1.875 -10.169  15.375  0.00  0.00    +0.124 C 
BRANCH  24  25
ATOM     25  C   UNL     1      -1.139 -10.341  15.708  0.00  0.00    +0.365 C 
ATOM     26  O   UNL     1      -1.019 -10.235  16.517  0.00  0.00    -0.246 OA
ATOM     27  O   UNL     1      -0.525 -10.619  15.232  0.00  0.00    -0.246 OA
ENDBRANCH  24  25
ENDBRANCH  23  24
ENDBRANCH  21  23
ENDBRANCH  19  20
ENDBRANCH  18  19
TORSDOF 10
ENDMDL
MODEL 9
REMARK VINA RESULT:      -5.3     14.953     15.964
REMARK  Name = 
REMARK  10 active torsions:
REMARK  status: ('A' for Active; 'I' for Inactive)
REMARK    1  A    between atoms: O_2  and  C_3
REMARK    2  A    between atoms: C_3  and  C_5
REMARK    3  A    between atoms: C_10  and  C_11
REMARK    4  A    between atoms: C_11  and  C_12
REMARK    5  A    between atoms: C_14  and  C_15
REMARK    6  A    between atoms: C_18  and  C_19
REMARK    7  A    between atoms: C_19  and  N_20
REMARK    8  A    between atoms: C_21  and  C_23
REMARK    9  A    between atoms: C_23  and  C_24
REMARK   10  A    between atoms: C_24  and  C_25
REMARK                            x       y       z     vdW  Elec       q    Type
REMARK                         _______ _______ _______ _____ _____    ______ ____
ROOT
ATOM     12  C   UNL     1      -5.753 -10.311  15.710  0.00  0.00    +0.026 C 
ATOM     13  C   UNL     1      -6.277 -10.206  15.081  0.00  0.00    +0.005 C 
ATOM     14  C   UNL     1      -6.000 -10.238  14.304  0.00  0.00    +0.006 C 
ATOM     18  C   UNL     1      -5.200 -10.373  14.157  0.00  0.00    +0.043 C 
ATOM     28  C   UNL     1      -4.677 -10.478  14.786  0.00  0.00    -0.033 C 
ATOM     29  C   UNL     1      -4.953 -10.446  15.562  0.00  0.00    -0.048 C 
ATOM     30  C   UNL     1      -4.429 -10.550  16.191  0.00  0.00    +0.026 C 
ENDROOT
BRANCH  14  15
ATOM     15  C   UNL     1      -6.524 -10.133  13.675  0.00  0.00    +0.000 C 
ATOM     16  C   UNL     1      -6.638  -9.383  13.354  0.00  0.00    +0.000 C 
ATOM     17  C   UNL     1      -6.933 -10.781  13.368  0.00  0.00    +0.000 C 
ENDBRANCH  14  15
BRANCH  12  11
ATOM     11  C   UNL     1      -6.030 -10.279  16.486  0.00  0.00    +0.070 C 
BRANCH  11  10
ATOM      5  C   UNL     1      -9.213  -8.856  17.146  0.00  0.00    +0.077 A 
ATOM      6  C   UNL     1      -8.418  -8.672  17.023  0.00  0.00    +0.027 A 
ATOM      7  C   UNL     1      -7.872  -9.274  16.882  0.00  0.00    +0.100 A 
ATOM      8  C   UNL     1      -8.120 -10.060  16.864  0.00  0.00    +0.100 A 
ATOM      9  N   UNL     1      -7.460 -10.533  16.713  0.00  0.00    -0.229 NA
ATOM     10  C   UNL     1      -6.804 -10.038  16.638  0.00  0.00    +0.139 A 
ATOM     31  N   UNL     1      -7.058  -9.260  16.743  0.00  0.00    -0.229 NA
ATOM     32  C   UNL     1      -8.914 -10.245  16.987  0.00  0.00    +0.021 A 
ATOM     33  C   UNL     1      -9.461  -9.643  17.128  0.00  0.00    +0.008 A 
BRANCH   5   3
ATOM      3  C   UNL     1      -9.759  -8.255  17.287  0.00  0.00    +0.341 C 
ATOM      4  O   UNL     1     -10.162  -8.225  18.006  0.00  0.00    -0.245 OA
BRANCH   3   2
ATOM      1  C   UNL     1     -10.550  -7.178  16.781  0.00  0.00    +0.256 C 
ATOM      2  O   UNL     1      -9.902  -7.683  16.710  0.00  0.00    -0.441 OA
ENDBRANCH   3   2
ENDBRANCH   5   3
ENDBRANCH  11  10
ENDBRANCH  12  11
BRANCH  18  19
ATOM     19  C   UNL     1      -4.924 -10.405  13.380  0.00  0.00    +0.119 C 
BRANCH  19  20
ATOM     20  N   UNL     1      -4.115 -10.480  13.233  0.00  0.00    -0.205 NA
ATOM     21  C   UNL     1      -3.845 -10.579  12.460  0.00  0.00    +0.242 C 
ATOM     22  O   UNL     1      -4.382 -10.601  11.834  0.00  0.00    -0.273 OA
BRANCH  21  23
ATOM     23  C   UNL     1      -3.036 -10.655  12.313  0.00  0.00    +0.099 C 
BRANCH  23  24
ATOM     24  C   UNL     1      -2.640 -10.075  11.880  0.00  0.00    +0.124 C 
BRANCH  24  25
ATOM     25  C   UNL     1      -1.839 -10.167  11.705  0.00  0.00    +0.365 C 
ATOM     26  O   UNL     1      -1.388 -10.722  12.116  0.00  0.00    -0.246 OA
ATOM     27  O   UNL     1      -1.488  -9.703  11.119  0.00  0.00    -0.246 OA
ENDBRANCH  24  25
ENDBRANCH  23  24
ENDBRANCH  21  23
ENDBRANCH  19  20
ENDBRANCH  18  19
TORSDOF 10
ENDMDL
MODEL 10
REMARK VINA RESULT:      -4.4     15.699     17.005
REMARK  Name = 
REMARK  10 active torsions:
REMARK  status: ('A' for Active; 'I' for Inactive)
REMARK    1  A    between atoms: O_2  and  C_3
REMARK    2  A    between atoms: C_3  and  C_5
REMARK    3  A    between atoms: C_10  and  C_11
REMARK    4  A    between atoms: C_11  and  C_12
REMARK    5  A    between atoms: C_14  and  C_15
REMARK    6  A    between atoms: C_18  and  C_19
REMARK    7  A    between atoms: C_19  and  N_20
REMARK    8  A    between atoms: C_21  and  C_23
REMARK    9  A    between atoms: C_23  and  C_24
REMARK   10  A    between atoms: C_24  and  C_25
REMARK                            x       y       z     vdW  Elec       q    Type
REMARK                         _______ _______ _______ _____ _____    ______ ____
ROOT
ATOM     12  C   UNL     1      -6.979 -10.297  14.197  0.00  0.00    +0.026 C 
ATOM     13  C   UNL     1      -7.555 -10.321  13.607  0.00  0.00    +0.005 C 
ATOM     14  C   UNL     1      -7.380 -10.048  12.848  0.00  0.00    +0.006 C 
ATOM     18  C   UNL     1      -6.630  -9.749  12.680  0.00  0.00    +0.043 C 
ATOM     28  C   UNL     1      -6.054  -9.724  13.271  0.00  0.00    -0.033 C 
ATOM     29  C   UNL     1      -6.229  -9.998  14.028  0.00  0.00    -0.048 C 
ATOM     30  C   UNL     1      -5.653  -9.973  14.619  0.00  0.00    +0.026 C 
ENDROOT
BRANCH  14  15
ATOM     15  C   UNL     1      -7.956 -10.072  12.257  0.00  0.00    +0.000 C 
ATOM     16  C   UNL     1      -8.063 -10.760  11.815  0.00  0.00    +0.000 C 
ATOM     17  C   UNL     1      -8.424  -9.409  12.110  0.00  0.00    +0.000 C 
ENDBRANCH  14  15
BRANCH  12  11
ATOM     11  C   UNL     1      -7.154 -10.570  14.955  0.00  0.00    +0.070 C 
BRANCH  11  10
ATOM      5  C   UNL     1      -9.887  -9.109  16.683  0.00  0.00    +0.077 A 
ATOM      6  C   UNL     1      -9.111  -8.975  16.436  0.00  0.00    +0.027 A 
ATOM      7  C   UNL     1      -8.704  -9.556  16.017  0.00  0.00    +0.100 A 
ATOM      8  C   UNL     1      -9.072 -10.274  15.844  0.00  0.00    +0.100 A 
ATOM      9  N   UNL     1      -8.536 -10.741  15.425  0.00  0.00    -0.229 NA
ATOM     10  C   UNL     1      -7.837 -10.312  15.339  0.00  0.00    +0.139 A 
ATOM     31  N   UNL     1      -7.940  -9.580  15.705  0.00  0.00    -0.229 NA
ATOM     32  C   UNL     1      -9.848 -10.409  16.089  0.00  0.00    +0.021 A 
ATOM     33  C   UNL     1     -10.255  -9.827  16.509  0.00  0.00    +0.008 A 
BRANCH   5   3
ATOM      3  C   UNL     1     -10.294  -8.528  17.102  0.00  0.00    +0.341 C 
ATOM      4  O   UNL     1     -10.278  -8.527  17.927  0.00  0.00    -0.245 OA
BRANCH   3   2
ATOM      1  C   UNL     1     -10.720  -7.170  16.973  0.00  0.00    +0.256 C 
ATOM      2  O   UNL     1     -10.717  -7.946  16.697  0.00  0.00    -0.441 OA
ENDBRANCH   3   2
ENDBRANCH   5   3
ENDBRANCH  11  10
ENDBRANCH  12  11
BRANCH  18  19
ATOM     19  C   UNL     1      -6.455  -9.475  11.921  0.00  0.00    +0.119 C 
BRANCH  19  20
ATOM     20  N   UNL     1      -5.677  -9.486  11.649  0.00  0.00    -0.205 NA
ATOM     21  C   UNL     1      -5.468  -9.047  10.982  0.00  0.00    +0.242 C 
ATOM     22  O   UNL     1      -6.037  -8.597  10.589  0.00  0.00    -0.273 OA
BRANCH  21  23
ATOM     23  C   UNL     1      -4.689  -9.058  10.709  0.00  0.00    +0.099 C 
BRANCH  23  24
ATOM     24  C   UNL     1      -4.535  -8.997   9.901  0.00  0.00    +0.124 C 
BRANCH  24  25
ATOM     25  C   UNL     1      -3.806  -9.241   9.601  0.00  0.00    +0.365 C 
ATOM     26  O   UNL     1      -3.107  -8.992   9.963  0.00  0.00    -0.246 OA
ATOM     27  O   UNL     1      -3.775  -9.732   8.939  0.00  0.00    -0.246 OA
ENDBRANCH  24  25
ENDBRANCH  23  24
ENDBRANCH  21  23
ENDBRANCH  19  20
ENDBRANCH  18  19
TORSDOF 10
ENDMDL
