MODEL 1
REMARK VINA RESULT:     -11.6      0.000      0.000
REMARK  Name = 
REMARK  6 active torsions:
REMARK  status: ('A' for Active; 'I' for Inactive)
REMARK    1  A    between atoms: C_4  and  C_14
REMARK    2  A    between atoms: N_5  and  C_6
REMARK    3  A    between atoms: C_6  and  C_7
REMARK    4  A    between atoms: C_16  and  C_19
REMARK    5  A    between atoms: C_22  and  O_23
REMARK    6  A    between atoms: O_23  and  C_24
REMARK                            x       y       z     vdW  Elec       q    Type
REMARK                         _______ _______ _______ _____ _____    ______ ____
ROOT
ATOM     14  C   UNL     1      -4.210   1.781  24.569  0.00  0.00    +0.251 A 
ATOM     15  N   UNL     1      -4.138   1.069  24.978  0.00  0.00    -0.190 NA
ATOM     16  C   UNL     1      -4.001   0.470  24.427  0.00  0.00    +0.203 A 
ATOM     17  N   UNL     1      -3.988   0.812  23.677  0.00  0.00    -0.056 NA
ATOM     18  O   UNL     1      -4.118   1.623  23.764  0.00  0.00    -0.336 OA
ENDROOT
BRANCH  14   4
ATOM      1  O   UNL     1      -5.523   4.018  25.873  0.00  0.00    -0.222 OA
ATOM      2  C   UNL     1      -4.953   3.550  25.504  0.00  0.00    +0.170 C 
ATOM      3  C   UNL     1      -5.061   2.777  25.237  0.00  0.00    +0.060 C 
ATOM      4  C   UNL     1      -4.350   2.522  24.904  0.00  0.00    +0.140 C 
ATOM      5  N   UNL     1      -3.804   3.137  24.965  0.00  0.00    -0.260 NA
ATOM     13  C   UNL     1      -4.178   3.773  25.336  0.00  0.00    +0.106 C 
BRANCH   5   6
ATOM      6  C   UNL     1      -3.023   3.121  24.703  0.00  0.00    +0.101 C 
BRANCH   6   7
ATOM      7  C   UNL     1      -2.496   3.709  24.938  0.00  0.00    +0.013 A 
ATOM      8  C   UNL     1      -1.985   3.576  25.573  0.00  0.00    +0.000 A 
ATOM      9  C   UNL     1      -1.458   4.166  25.809  0.00  0.00    +0.020 A 
ATOM     10  C   UNL     1      -1.441   4.887  25.410  0.00  0.00    +0.099 A 
ATOM     11  N   UNL     1      -1.951   5.020  24.775  0.00  0.00    -0.243 NA
ATOM     12  C   UNL     1      -2.478   4.431  24.540  0.00  0.00    +0.096 A 
ENDBRANCH   6   7
ENDBRANCH   5   6
ENDBRANCH  14   4
BRANCH  16  19
ATOM     19  C   UNL     1      -3.895  -0.330  24.597  0.00  0.00    +0.039 A 
ATOM     20  C   UNL     1      -3.490  -0.558  25.278  0.00  0.00    +0.006 A 
ATOM     21  C   UNL     1      -3.385  -1.358  25.448  0.00  0.00    +0.037 A 
ATOM     22  C   UNL     1      -3.684  -1.931  24.936  0.00  0.00    +0.147 A 
ATOM     28  C   UNL     1      -4.089  -1.704  24.254  0.00  0.00    +0.037 A 
ATOM     29  C   UNL     1      -4.195  -0.903  24.084  0.00  0.00    +0.006 A 
BRANCH  22  23
ATOM     23  O   UNL     1      -3.579  -2.731  25.105  0.00  0.00    -0.404 OA
BRANCH  23  24
ATOM     24  C   UNL     1      -3.180  -3.217  24.570  0.00  0.00    +0.575 C 
ATOM     25  F   UNL     1      -2.782  -3.703  24.034  0.00  0.00    -0.133 F 
ATOM     26  F   UNL     1      -3.902  -3.466  24.257  0.00  0.00    -0.133 F 
ATOM     27  F   UNL     1      -2.458  -2.969  24.881  0.00  0.00    -0.133 F 
ENDBRANCH  23  24
ENDBRANCH  22  23
ENDBRANCH  16  19
TORSDOF 6
ENDMDL
MODEL 2
REMARK VINA RESULT:     -11.4      2.034      2.753
REMARK  Name = 
REMARK  6 active torsions:
REMARK  status: ('A' for Active; 'I' for Inactive)
REMARK    1  A    between atoms: C_4  and  C_14
REMARK    2  A    between atoms: N_5  and  C_6
REMARK    3  A    between atoms: C_6  and  C_7
REMARK    4  A    between atoms: C_16  and  C_19
REMARK    5  A    between atoms: C_22  and  O_23
REMARK    6  A    between atoms: O_23  and  C_24
REMARK                            x       y       z     vdW  Elec       q    Type
REMARK                         _______ _______ _______ _____ _____    ______ ____
ROOT
ATOM     14  C   UNL     1      -0.934   1.239  25.071  0.00  0.00    +0.251 A 
ATOM     15  N   UNL     1      -1.536   0.733  25.322  0.00  0.00    -0.190 NA
ATOM     16  C   UNL     1      -1.731   0.237  24.691  0.00  0.00    +0.203 A 
ATOM     17  N   UNL     1      -1.250   0.436  24.051  0.00  0.00    -0.056 NA
ATOM     18  O   UNL     1      -0.757   1.055  24.286  0.00  0.00    -0.336 OA
ENDROOT
BRANCH  14   4
ATOM      1  O   UNL     1       0.755   2.574  27.018  0.00  0.00    -0.222 OA
ATOM      2  C   UNL     1       0.204   2.439  26.420  0.00  0.00    +0.170 C 
ATOM      3  C   UNL     1      -0.004   1.703  26.110  0.00  0.00    +0.060 C 
ATOM      4  C   UNL     1      -0.573   1.825  25.525  0.00  0.00    +0.140 C 
ATOM      5  N   UNL     1      -0.716   2.635  25.474  0.00  0.00    -0.260 NA
ATOM     13  C   UNL     1      -0.236   3.015  26.027  0.00  0.00    +0.106 C 
BRANCH   5   6
ATOM      6  C   UNL     1      -1.246   3.003  24.960  0.00  0.00    +0.101 C 
BRANCH   6   7
ATOM      7  C   UNL     1      -1.436   3.799  25.062  0.00  0.00    +0.013 A 
ATOM      8  C   UNL     1      -0.955   4.383  24.732  0.00  0.00    +0.000 A 
ATOM      9  C   UNL     1      -1.146   5.180  24.835  0.00  0.00    +0.020 A 
ATOM     10  C   UNL     1      -1.815   5.391  25.266  0.00  0.00    +0.099 A 
ATOM     11  N   UNL     1      -2.296   4.807  25.596  0.00  0.00    -0.243 NA
ATOM     12  C   UNL     1      -2.106   4.011  25.493  0.00  0.00    +0.096 A 
ENDBRANCH   6   7
ENDBRANCH   5   6
ENDBRANCH  14   4
BRANCH  16  19
ATOM     19  C   UNL     1      -2.306  -0.355  24.700  0.00  0.00    +0.039 A 
ATOM     20  C   UNL     1      -3.104  -0.155  24.644  0.00  0.00    +0.006 A 
ATOM     21  C   UNL     1      -3.679  -0.746  24.652  0.00  0.00    +0.037 A 
ATOM     22  C   UNL     1      -3.456  -1.538  24.717  0.00  0.00    +0.147 A 
ATOM     28  C   UNL     1      -2.658  -1.738  24.773  0.00  0.00    +0.037 A 
ATOM     29  C   UNL     1      -2.082  -1.146  24.765  0.00  0.00    +0.006 A 
BRANCH  22  23
ATOM     23  O   UNL     1      -4.030  -2.129  24.726  0.00  0.00    -0.404 OA
BRANCH  23  24
ATOM     24  C   UNL     1      -4.262  -2.489  24.021  0.00  0.00    +0.575 C 
ATOM     25  F   UNL     1      -4.495  -2.848  23.315  0.00  0.00    -0.133 F 
ATOM     26  F   UNL     1      -4.792  -1.872  23.880  0.00  0.00    -0.133 F 
ATOM     27  F   UNL     1      -3.734  -3.106  24.160  0.00  0.00    -0.133 F 
ENDBRANCH  23  24
ENDBRANCH  22  23
ENDBRANCH  16  19
TORSDOF 6
ENDMDL
MODEL 3
REMARK VINA RESULT:     -11.0      2.162      2.954
REMARK  Name = 
REMARK  6 active torsions:
REMARK  status: ('A' for Active; 'I' for Inactive)
REMARK    1  A    between atoms: C_4  and  C_14
REMARK    2  A    between atoms: N_5  and  C_6
REMARK    3  A    between atoms: C_6  and  C_7
REMARK    4  A    between atoms: C_16  and  C_19
REMARK    5  A    between atoms: C_22  and  O_23
REMARK    6  A    between atoms: O_23  and  C_24
REMARK                            x       y       z     vdW  Elec       q    Type
REMARK                         _______ _______ _______ _____ _____    ______ ____
ROOT
ATOM     14  C   UNL     1      -0.914   0.602  25.312  0.00  0.00    +0.251 A 
ATOM     15  N   UNL     1      -1.481   0.160  24.907  0.00  0.00    -0.190 NA
ATOM     16  C   UNL     1      -1.726  -0.454  25.402  0.00  0.00    +0.203 A 
ATOM     17  N   UNL     1      -1.311  -0.390  26.112  0.00  0.00    -0.056 NA
ATOM     18  O   UNL     1      -0.809   0.262  26.056  0.00  0.00    -0.336 OA
ENDROOT
BRANCH  14   4
ATOM      1  O   UNL     1       1.029   2.300  23.980  0.00  0.00    -0.222 OA
ATOM      2  C   UNL     1       0.372   2.048  24.411  0.00  0.00    +0.170 C 
ATOM      3  C   UNL     1       0.177   1.265  24.581  0.00  0.00    +0.060 C 
ATOM      4  C   UNL     1      -0.521   1.267  25.023  0.00  0.00    +0.140 C 
ATOM      5  N   UNL     1      -0.756   2.052  25.124  0.00  0.00    -0.260 NA
ATOM     13  C   UNL     1      -0.203   2.534  24.745  0.00  0.00    +0.106 C 
BRANCH   5   6
ATOM      6  C   UNL     1      -1.425   2.309  25.532  0.00  0.00    +0.101 C 
BRANCH   6   7
ATOM      7  C   UNL     1      -1.753   3.046  25.362  0.00  0.00    +0.013 A 
ATOM      8  C   UNL     1      -1.491   3.717  25.764  0.00  0.00    +0.000 A 
ATOM      9  C   UNL     1      -1.820   4.455  25.594  0.00  0.00    +0.020 A 
ATOM     10  C   UNL     1      -2.411   4.520  25.023  0.00  0.00    +0.099 A 
ATOM     11  N   UNL     1      -2.674   3.849  24.621  0.00  0.00    -0.243 NA
ATOM     12  C   UNL     1      -2.345   3.112  24.792  0.00  0.00    +0.096 A 
ENDBRANCH   6   7
ENDBRANCH   5   6
ENDBRANCH  14   4
BRANCH  16  19
ATOM     19  C   UNL     1      -2.288  -1.029  25.219  0.00  0.00    +0.039 A 
ATOM     20  C   UNL     1      -3.075  -0.923  25.442  0.00  0.00    +0.006 A 
ATOM     21  C   UNL     1      -3.637  -1.499  25.259  0.00  0.00    +0.037 A 
ATOM     22  C   UNL     1      -3.412  -2.180  24.852  0.00  0.00    +0.147 A 
ATOM     28  C   UNL     1      -2.625  -2.286  24.628  0.00  0.00    +0.037 A 
ATOM     29  C   UNL     1      -2.063  -1.711  24.812  0.00  0.00    +0.006 A 
BRANCH  22  23
ATOM     23  O   UNL     1      -3.973  -2.756  24.669  0.00  0.00    -0.404 OA
BRANCH  23  24
ATOM     24  C   UNL     1      -4.274  -2.809  23.902  0.00  0.00    +0.575 C 
ATOM     25  F   UNL     1      -4.574  -2.863  23.135  0.00  0.00    -0.133 F 
ATOM     26  F   UNL     1      -3.773  -3.447  23.750  0.00  0.00    -0.133 F 
ATOM     27  F   UNL     1      -4.774  -2.172  24.053  0.00  0.00    -0.133 F 
ENDBRANCH  23  24
ENDBRANCH  22  23
ENDBRANCH  16  19
TORSDOF 6
ENDMDL
MODEL 4
REMARK VINA RESULT:     -10.5      3.555      6.249
REMARK  Name = 
REMARK  6 active torsions:
REMARK  status: ('A' for Active; 'I' for Inactive)
REMARK    1  A    between atoms: C_4  and  C_14
REMARK    2  A    between atoms: N_5  and  C_6
REMARK    3  A    between atoms: C_6  and  C_7
REMARK    4  A    between atoms: C_16  and  C_19
REMARK    5  A    between atoms: C_22  and  O_23
REMARK    6  A    between atoms: O_23  and  C_24
REMARK                            x       y       z     vdW  Elec       q    Type
REMARK                         _______ _______ _______ _____ _____    ______ ____
ROOT
ATOM     14  C   UNL     1      -1.123   0.366  24.506  0.00  0.00    +0.251 A 
ATOM     15  N   UNL     1      -1.147   1.022  25.005  0.00  0.00    -0.190 NA
ATOM     16  C   UNL     1      -1.248   1.695  24.538  0.00  0.00    +0.203 A 
ATOM     17  N   UNL     1      -1.286   1.455  23.750  0.00  0.00    -0.056 NA
ATOM     18  O   UNL     1      -1.209   0.633  23.730  0.00  0.00    -0.336 OA
ENDROOT
BRANCH  14   4
ATOM      1  O   UNL     1       0.078  -2.141  25.345  0.00  0.00    -0.222 OA
ATOM      2  C   UNL     1      -0.477  -1.571  25.126  0.00  0.00    +0.170 C 
ATOM      3  C   UNL     1      -0.314  -0.790  24.918  0.00  0.00    +0.060 C 
ATOM      4  C   UNL     1      -1.029  -0.419  24.741  0.00  0.00    +0.140 C 
ATOM      5  N   UNL     1      -1.634  -0.971  24.840  0.00  0.00    -0.260 NA
ATOM     13  C   UNL     1      -1.292  -1.684  25.078  0.00  0.00    +0.106 C 
BRANCH   5   6
ATOM      6  C   UNL     1      -2.439  -0.835  24.722  0.00  0.00    +0.101 C 
BRANCH   6   7
ATOM      7  C   UNL     1      -2.965  -1.470  24.694  0.00  0.00    +0.013 A 
ATOM      8  C   UNL     1      -3.233  -1.752  23.966  0.00  0.00    +0.000 A 
ATOM      9  C   UNL     1      -3.759  -2.387  23.938  0.00  0.00    +0.020 A 
ATOM     10  C   UNL     1      -4.017  -2.740  24.637  0.00  0.00    +0.099 A 
ATOM     11  N   UNL     1      -3.749  -2.458  25.366  0.00  0.00    -0.243 NA
ATOM     12  C   UNL     1      -3.223  -1.823  25.393  0.00  0.00    +0.096 A 
ENDBRANCH   6   7
ENDBRANCH   5   6
ENDBRANCH  14   4
BRANCH  16  19
ATOM     19  C   UNL     1      -1.302   2.472  24.811  0.00  0.00    +0.039 A 
ATOM     20  C   UNL     1      -2.041   2.811  24.949  0.00  0.00    +0.006 A 
ATOM     21  C   UNL     1      -2.094   3.587  25.222  0.00  0.00    +0.037 A 
ATOM     22  C   UNL     1      -1.408   4.025  25.357  0.00  0.00    +0.147 A 
ATOM     28  C   UNL     1      -0.669   3.686  25.219  0.00  0.00    +0.037 A 
ATOM     29  C   UNL     1      -0.615   2.909  24.946  0.00  0.00    +0.006 A 
BRANCH  22  23
ATOM     23  O   UNL     1      -1.461   4.801  25.630  0.00  0.00    -0.404 OA
BRANCH  23  24
ATOM     24  C   UNL     1      -1.486   5.426  25.092  0.00  0.00    +0.575 C 
ATOM     25  F   UNL     1      -1.510   6.052  24.554  0.00  0.00    -0.133 F 
ATOM     26  F   UNL     1      -0.661   5.454  25.085  0.00  0.00    -0.133 F 
ATOM     27  F   UNL     1      -2.310   5.400  25.099  0.00  0.00    -0.133 F 
ENDBRANCH  23  24
ENDBRANCH  22  23
ENDBRANCH  16  19
TORSDOF 6
ENDMDL
MODEL 5
REMARK VINA RESULT:     -10.4      3.177      4.726
REMARK  Name = 
REMARK  6 active torsions:
REMARK  status: ('A' for Active; 'I' for Inactive)
REMARK    1  A    between atoms: C_4  and  C_14
REMARK    2  A    between atoms: N_5  and  C_6
REMARK    3  A    between atoms: C_6  and  C_7
REMARK    4  A    between atoms: C_16  and  C_19
REMARK    5  A    between atoms: C_22  and  O_23
REMARK    6  A    between atoms: O_23  and  C_24
REMARK                            x       y       z     vdW  Elec       q    Type
REMARK                         _______ _______ _______ _____ _____    ______ ____
ROOT
ATOM     14  C   UNL     1      -1.676   2.875  24.999  0.00  0.00    +0.251 A 
ATOM     15  N   UNL     1      -2.399   2.604  25.288  0.00  0.00    -0.190 NA
ATOM     16  C   UNL     1      -2.999   3.028  24.912  0.00  0.00    +0.203 A 
ATOM     17  N   UNL     1      -2.647   3.561  24.391  0.00  0.00    -0.056 NA
ATOM     18  O   UNL     1      -1.828   3.467  24.444  0.00  0.00    -0.336 OA
ENDROOT
BRANCH  14   4
ATOM      1  O   UNL     1       0.844   2.576  26.410  0.00  0.00    -0.222 OA
ATOM      2  C   UNL     1       0.228   2.465  25.873  0.00  0.00    +0.170 C 
ATOM      3  C   UNL     1      -0.474   2.899  25.845  0.00  0.00    +0.060 C 
ATOM      4  C   UNL     1      -0.931   2.603  25.225  0.00  0.00    +0.140 C 
ATOM      5  N   UNL     1      -0.511   1.988  24.870  0.00  0.00    -0.260 NA
ATOM     13  C   UNL     1       0.205   1.903  25.271  0.00  0.00    +0.106 C 
BRANCH   5   6
ATOM      6  C   UNL     1      -0.763   1.536  24.227  0.00  0.00    +0.101 C 
BRANCH   6   7
ATOM      7  C   UNL     1      -0.422   0.800  24.081  0.00  0.00    +0.013 A 
ATOM      8  C   UNL     1      -0.718   0.127  24.456  0.00  0.00    +0.000 A 
ATOM      9  C   UNL     1      -0.376  -0.610  24.310  0.00  0.00    +0.020 A 
ATOM     10  C   UNL     1       0.260  -0.674  23.790  0.00  0.00    +0.099 A 
ATOM     11  N   UNL     1       0.556  -0.001  23.415  0.00  0.00    -0.243 NA
ATOM     12  C   UNL     1       0.215   0.735  23.561  0.00  0.00    +0.096 A 
ENDBRANCH   6   7
ENDBRANCH   5   6
ENDBRANCH  14   4
BRANCH  16  19
ATOM     19  C   UNL     1      -3.810   2.935  25.036  0.00  0.00    +0.039 A 
ATOM     20  C   UNL     1      -4.225   2.351  24.627  0.00  0.00    +0.006 A 
ATOM     21  C   UNL     1      -5.035   2.259  24.751  0.00  0.00    +0.037 A 
ATOM     22  C   UNL     1      -5.430   2.750  25.283  0.00  0.00    +0.147 A 
ATOM     28  C   UNL     1      -5.015   3.334  25.692  0.00  0.00    +0.037 A 
ATOM     29  C   UNL     1      -4.204   3.427  25.568  0.00  0.00    +0.006 A 
BRANCH  22  23
ATOM     23  O   UNL     1      -6.240   2.657  25.407  0.00  0.00    -0.404 OA
BRANCH  23  24
ATOM     24  C   UNL     1      -6.521   2.003  25.823  0.00  0.00    +0.575 C 
ATOM     25  F   UNL     1      -6.803   1.347  26.239  0.00  0.00    -0.133 F 
ATOM     26  F   UNL     1      -6.739   1.644  25.112  0.00  0.00    -0.133 F 
ATOM     27  F   UNL     1      -6.305   2.360  26.534  0.00  0.00    -0.133 F 
ENDBRANCH  23  24
ENDBRANCH  22  23
ENDBRANCH  16  19
TORSDOF 6
ENDMDL
MODEL 6
REMARK VINA RESULT:     -10.3      1.424      2.324
REMARK  Name = 
REMARK  6 active torsions:
REMARK  status: ('A' for Active; 'I' for Inactive)
REMARK    1  A    between atoms: C_4  and  C_14
REMARK    2  A    between atoms: N_5  and  C_6
REMARK    3  A    between atoms: C_6  and  C_7
REMARK    4  A    between atoms: C_16  and  C_19
REMARK    5  A    between atoms: C_22  and  O_23
REMARK    6  A    between atoms: O_23  and  C_24
REMARK                            x       y       z     vdW  Elec       q    Type
REMARK                         _______ _______ _______ _____ _____    ______ ____
ROOT
ATOM     14  C   UNL     1      -2.135   1.903  24.507  0.00  0.00    +0.251 A 
ATOM     15  N   UNL     1      -2.322   1.192  24.882  0.00  0.00    -0.190 NA
ATOM     16  C   UNL     1      -2.160   0.576  24.357  0.00  0.00    +0.203 A 
ATOM     17  N   UNL     1      -1.874   0.906  23.657  0.00  0.00    -0.056 NA
ATOM     18  O   UNL     1      -1.858   1.727  23.750  0.00  0.00    -0.336 OA
ENDROOT
BRANCH  14   4
ATOM      1  O   UNL     1      -1.519   4.428  25.801  0.00  0.00    -0.222 OA
ATOM      2  C   UNL     1      -1.929   3.817  25.427  0.00  0.00    +0.170 C 
ATOM      3  C   UNL     1      -1.607   3.100  25.176  0.00  0.00    +0.060 C 
ATOM      4  C   UNL     1      -2.212   2.657  24.832  0.00  0.00    +0.140 C 
ATOM      5  N   UNL     1      -2.907   3.100  24.870  0.00  0.00    -0.260 NA
ATOM     13  C   UNL     1      -2.731   3.818  25.238  0.00  0.00    +0.106 C 
BRANCH   5   6
ATOM      6  C   UNL     1      -3.647   2.867  24.590  0.00  0.00    +0.101 C 
BRANCH   6   7
ATOM      7  C   UNL     1      -4.331   3.126  24.970  0.00  0.00    +0.013 A 
ATOM      8  C   UNL     1      -4.723   2.629  25.499  0.00  0.00    +0.000 A 
ATOM      9  C   UNL     1      -5.409   2.889  25.879  0.00  0.00    +0.020 A 
ATOM     10  C   UNL     1      -5.702   3.644  25.729  0.00  0.00    +0.099 A 
ATOM     11  N   UNL     1      -5.310   4.142  25.199  0.00  0.00    -0.243 NA
ATOM     12  C   UNL     1      -4.626   3.882  24.820  0.00  0.00    +0.096 A 
ENDBRANCH   6   7
ENDBRANCH   5   6
ENDBRANCH  14   4
BRANCH  16  19
ATOM     19  C   UNL     1      -2.266  -0.229  24.505  0.00  0.00    +0.039 A 
ATOM     20  C   UNL     1      -3.026  -0.549  24.517  0.00  0.00    +0.006 A 
ATOM     21  C   UNL     1      -3.132  -1.354  24.665  0.00  0.00    +0.037 A 
ATOM     22  C   UNL     1      -2.478  -1.838  24.801  0.00  0.00    +0.147 A 
ATOM     28  C   UNL     1      -1.718  -1.517  24.789  0.00  0.00    +0.037 A 
ATOM     29  C   UNL     1      -1.612  -0.712  24.641  0.00  0.00    +0.006 A 
BRANCH  22  23
ATOM     23  O   UNL     1      -2.583  -2.642  24.949  0.00  0.00    -0.404 OA
BRANCH  23  24
ATOM     24  C   UNL     1      -3.263  -3.025  24.681  0.00  0.00    +0.575 C 
ATOM     25  F   UNL     1      -3.944  -3.408  24.413  0.00  0.00    -0.133 F 
ATOM     26  F   UNL     1      -3.614  -2.921  25.421  0.00  0.00    -0.133 F 
ATOM     27  F   UNL     1      -2.914  -3.129  23.942  0.00  0.00    -0.133 F 
ENDBRANCH  23  24
ENDBRANCH  22  23
ENDBRANCH  16  19
TORSDOF 6
ENDMDL
