MODEL 1
REMARK VINA RESULT:     -12.6      0.000      0.000
REMARK  Name = 
REMARK  7 active torsions:
REMARK  status: ('A' for Active; 'I' for Inactive)
REMARK    1  A    between atoms: C_2  and  C_3
REMARK    2  A    between atoms: C_3  and  C_4
REMARK    3  A    between atoms: C_9  and  C_10
REMARK    4  A    between atoms: C_10  and  C_11
REMARK    5  A    between atoms: C_14  and  C_16
REMARK    6  A    between atoms: N_22  and  C_23
REMARK    7  A    between atoms: C_23  and  C_24
REMARK                            x       y       z     vdW  Elec       q    Type
REMARK                         _______ _______ _______ _____ _____    ______ ____
ROOT
ATOM      4  C   UNL     1      -4.790   2.616  24.917  0.00  0.00    +0.012 C 
ATOM      5  C   UNL     1      -5.306   3.051  25.392  0.00  0.00    +0.019 C 
ATOM      6  C   UNL     1      -5.869   2.662  25.854  0.00  0.00    +0.089 C 
ATOM      7  N   UNL     1      -5.916   1.838  25.839  0.00  0.00    -0.218 NA
ATOM      8  C   UNL     1      -5.400   1.404  25.363  0.00  0.00    +0.089 C 
ATOM      9  C   UNL     1      -4.838   1.793  24.902  0.00  0.00    +0.024 C 
ENDROOT
BRANCH   4   3
ATOM      3  C   UNL     1      -4.228   3.006  24.456  0.00  0.00    +0.087 C 
BRANCH   3   2
ATOM      1  O   UNL     1      -4.317   4.346  24.945  0.00  0.00    -0.273 OA
ATOM      2  C   UNL     1      -3.862   3.688  24.741  0.00  0.00    +0.242 C 
ATOM     22  N   UNL     1      -3.042   3.713  24.822  0.00  0.00    -0.200 NA
BRANCH  22  23
ATOM     23  C   UNL     1      -2.676   4.395  25.107  0.00  0.00    +0.148 C 
BRANCH  23  24
ATOM     24  C   UNL     1      -1.854   4.464  25.080  0.00  0.00    +0.029 A 
ATOM     25  C   UNL     1      -1.428   5.166  25.000  0.00  0.00    +0.004 A 
ATOM     26  C   UNL     1      -0.625   4.979  24.999  0.00  0.00    +0.007 A 
ATOM     27  C   UNL     1      -0.554   4.161  25.078  0.00  0.00    +0.035 A 
ATOM     28  S   UNL     1      -1.313   3.843  25.128  0.00  0.00    -0.089 S 
ENDBRANCH  23  24
ENDBRANCH  22  23
ENDBRANCH   3   2
ENDBRANCH   4   3
BRANCH   9  10
ATOM     10  C   UNL     1      -4.323   1.359  24.427  0.00  0.00    +0.051 C 
BRANCH  10  11
ATOM     11  C   UNL     1      -4.052   0.620  24.679  0.00  0.00    +0.101 A 
ATOM     12  N   UNL     1      -3.609   0.473  25.357  0.00  0.00    -0.081 NA
ATOM     13  O   UNL     1      -3.461  -0.339  25.393  0.00  0.00    -0.354 OA
ATOM     14  C   UNL     1      -3.814  -0.692  24.736  0.00  0.00    +0.177 A 
ATOM     15  C   UNL     1      -4.180  -0.098  24.294  0.00  0.00    +0.058 A 
BRANCH  14  16
ATOM     16  C   UNL     1      -3.802  -1.496  24.553  0.00  0.00    +0.037 A 
ATOM     17  C   UNL     1      -4.216  -1.776  23.897  0.00  0.00    +0.003 A 
ATOM     18  C   UNL     1      -4.205  -2.580  23.714  0.00  0.00    +0.000 A 
ATOM     19  C   UNL     1      -3.779  -3.105  24.189  0.00  0.00    +0.000 A 
ATOM     20  C   UNL     1      -3.366  -2.825  24.845  0.00  0.00    +0.000 A 
ATOM     21  C   UNL     1      -3.378  -2.020  25.028  0.00  0.00    +0.003 A 
ENDBRANCH  14  16
ENDBRANCH  10  11
ENDBRANCH   9  10
TORSDOF 7
ENDMDL
MODEL 2
REMARK VINA RESULT:     -12.4      0.937      1.251
REMARK  Name = 
REMARK  7 active torsions:
REMARK  status: ('A' for Active; 'I' for Inactive)
REMARK    1  A    between atoms: C_2  and  C_3
REMARK    2  A    between atoms: C_3  and  C_4
REMARK    3  A    between atoms: C_9  and  C_10
REMARK    4  A    between atoms: C_10  and  C_11
REMARK    5  A    between atoms: C_14  and  C_16
REMARK    6  A    between atoms: N_22  and  C_23
REMARK    7  A    between atoms: C_23  and  C_24
REMARK                            x       y       z     vdW  Elec       q    Type
REMARK                         _______ _______ _______ _____ _____    ______ ____
ROOT
ATOM      4  C   UNL     1      -4.281   2.873  24.733  0.00  0.00    +0.012 C 
ATOM      5  C   UNL     1      -4.596   3.499  25.169  0.00  0.00    +0.019 C 
ATOM      6  C   UNL     1      -5.287   3.391  25.607  0.00  0.00    +0.089 C 
ATOM      7  N   UNL     1      -5.663   2.656  25.609  0.00  0.00    -0.218 NA
ATOM      8  C   UNL     1      -5.348   2.031  25.173  0.00  0.00    +0.089 C 
ATOM      9  C   UNL     1      -4.657   2.139  24.735  0.00  0.00    +0.024 C 
ENDROOT
BRANCH   4   3
ATOM      3  C   UNL     1      -3.591   2.982  24.296  0.00  0.00    +0.087 C 
BRANCH   3   2
ATOM      1  O   UNL     1      -3.037   4.215  24.761  0.00  0.00    -0.273 OA
ATOM      2  C   UNL     1      -2.961   3.405  24.618  0.00  0.00    +0.242 C 
ATOM     22  N   UNL     1      -2.254   3.020  24.796  0.00  0.00    -0.200 NA
BRANCH  22  23
ATOM     23  C   UNL     1      -1.623   3.443  25.119  0.00  0.00    +0.148 C 
BRANCH  23  24
ATOM     24  C   UNL     1      -0.950   3.045  25.379  0.00  0.00    +0.029 A 
ATOM     25  C   UNL     1      -0.725   2.934  26.166  0.00  0.00    +0.004 A 
ATOM     26  C   UNL     1      -0.019   2.507  26.172  0.00  0.00    +0.007 A 
ATOM     27  C   UNL     1       0.193   2.354  25.390  0.00  0.00    +0.035 A 
ATOM     28  S   UNL     1      -0.382   2.686  24.900  0.00  0.00    -0.089 S 
ENDBRANCH  23  24
ENDBRANCH  22  23
ENDBRANCH   3   2
ENDBRANCH   4   3
BRANCH   9  10
ATOM     10  C   UNL     1      -4.343   1.514  24.300  0.00  0.00    +0.051 C 
BRANCH  10  11
ATOM     11  C   UNL     1      -4.316   0.756  24.626  0.00  0.00    +0.101 A 
ATOM     12  N   UNL     1      -4.518   0.554  25.399  0.00  0.00    -0.081 NA
ATOM     13  O   UNL     1      -4.409  -0.259  25.487  0.00  0.00    -0.354 OA
ATOM     14  C   UNL     1      -4.140  -0.560  24.767  0.00  0.00    +0.177 A 
ATOM     15  C   UNL     1      -4.083   0.068  24.235  0.00  0.00    +0.058 A 
BRANCH  14  16
ATOM     16  C   UNL     1      -3.961  -1.350  24.608  0.00  0.00    +0.037 A 
ATOM     17  C   UNL     1      -3.460  -1.768  25.113  0.00  0.00    +0.003 A 
ATOM     18  C   UNL     1      -3.280  -2.558  24.953  0.00  0.00    +0.000 A 
ATOM     19  C   UNL     1      -3.602  -2.928  24.289  0.00  0.00    +0.000 A 
ATOM     20  C   UNL     1      -4.102  -2.509  23.786  0.00  0.00    +0.000 A 
ATOM     21  C   UNL     1      -4.282  -1.719  23.945  0.00  0.00    +0.003 A 
ENDBRANCH  14  16
ENDBRANCH  10  11
ENDBRANCH   9  10
TORSDOF 7
ENDMDL
MODEL 3
REMARK VINA RESULT:     -11.9      2.815      6.281
REMARK  Name = 
REMARK  7 active torsions:
REMARK  status: ('A' for Active; 'I' for Inactive)
REMARK    1  A    between atoms: C_2  and  C_3
REMARK    2  A    between atoms: C_3  and  C_4
REMARK    3  A    between atoms: C_9  and  C_10
REMARK    4  A    between atoms: C_10  and  C_11
REMARK    5  A    between atoms: C_14  and  C_16
REMARK    6  A    between atoms: N_22  and  C_23
REMARK    7  A    between atoms: C_23  and  C_24
REMARK                            x       y       z     vdW  Elec       q    Type
REMARK                         _______ _______ _______ _____ _____    ______ ____
ROOT
ATOM      4  C   UNL     1      -0.497  -0.206  24.727  0.00  0.00    +0.012 C 
ATOM      5  C   UNL     1      -0.131  -0.606  24.106  0.00  0.00    +0.019 C 
ATOM      6  C   UNL     1       0.315  -0.186  23.552  0.00  0.00    +0.089 C 
ATOM      7  N   UNL     1       0.394   0.632  23.620  0.00  0.00    -0.218 NA
ATOM      8  C   UNL     1       0.027   1.031  24.242  0.00  0.00    +0.089 C 
ATOM      9  C   UNL     1      -0.418   0.613  24.795  0.00  0.00    +0.024 C 
ENDROOT
BRANCH   4   3
ATOM      3  C   UNL     1      -0.942  -0.625  25.281  0.00  0.00    +0.087 C 
BRANCH   3   2
ATOM      1  O   UNL     1      -0.838  -2.031  25.048  0.00  0.00    -0.273 OA
ATOM      2  C   UNL     1      -1.292  -1.341  25.072  0.00  0.00    +0.242 C 
ATOM     22  N   UNL     1      -2.095  -1.371  24.887  0.00  0.00    -0.200 NA
BRANCH  22  23
ATOM     23  C   UNL     1      -2.445  -2.088  24.677  0.00  0.00    +0.148 C 
BRANCH  23  24
ATOM     24  C   UNL     1      -3.216  -2.101  24.388  0.00  0.00    +0.029 A 
ATOM     25  C   UNL     1      -3.687  -1.441  24.229  0.00  0.00    +0.004 A 
ATOM     26  C   UNL     1      -4.415  -1.708  23.948  0.00  0.00    +0.007 A 
ATOM     27  C   UNL     1      -4.395  -2.533  23.934  0.00  0.00    +0.035 A 
ATOM     28  S   UNL     1      -3.655  -2.775  24.205  0.00  0.00    -0.089 S 
ENDBRANCH  23  24
ENDBRANCH  22  23
ENDBRANCH   3   2
ENDBRANCH   4   3
BRANCH   9  10
ATOM     10  C   UNL     1      -0.784   1.012  25.417  0.00  0.00    +0.051 C 
BRANCH  10  11
ATOM     11  C   UNL     1      -0.664   1.823  25.514  0.00  0.00    +0.101 A 
ATOM     12  N   UNL     1       0.007   2.178  25.836  0.00  0.00    -0.081 NA
ATOM     13  O   UNL     1      -0.108   2.995  25.827  0.00  0.00    -0.354 OA
ATOM     14  C   UNL     1      -0.850   3.145  25.500  0.00  0.00    +0.177 A 
ATOM     15  C   UNL     1      -1.194   2.420  25.306  0.00  0.00    +0.058 A 
BRANCH  14  16
ATOM     16  C   UNL     1      -1.189   3.889  25.386  0.00  0.00    +0.037 A 
ATOM     17  C   UNL     1      -0.750   4.493  25.037  0.00  0.00    +0.003 A 
ATOM     18  C   UNL     1      -1.088   5.237  24.923  0.00  0.00    +0.000 A 
ATOM     19  C   UNL     1      -1.867   5.375  25.160  0.00  0.00    +0.000 A 
ATOM     20  C   UNL     1      -2.306   4.771  25.509  0.00  0.00    +0.000 A 
ATOM     21  C   UNL     1      -1.967   4.027  25.623  0.00  0.00    +0.003 A 
ENDBRANCH  14  16
ENDBRANCH  10  11
ENDBRANCH   9  10
TORSDOF 7
ENDMDL
MODEL 4
REMARK VINA RESULT:     -11.8      2.201      3.417
REMARK  Name = 
REMARK  7 active torsions:
REMARK  status: ('A' for Active; 'I' for Inactive)
REMARK    1  A    between atoms: C_2  and  C_3
REMARK    2  A    between atoms: C_3  and  C_4
REMARK    3  A    between atoms: C_9  and  C_10
REMARK    4  A    between atoms: C_10  and  C_11
REMARK    5  A    between atoms: C_14  and  C_16
REMARK    6  A    between atoms: N_22  and  C_23
REMARK    7  A    between atoms: C_23  and  C_24
REMARK                            x       y       z     vdW  Elec       q    Type
REMARK                         _______ _______ _______ _____ _____    ______ ____
ROOT
ATOM      4  C   UNL     1      -0.531   1.529  25.101  0.00  0.00    +0.012 C 
ATOM      5  C   UNL     1      -0.074   1.968  24.574  0.00  0.00    +0.019 C 
ATOM      6  C   UNL     1       0.328   1.588  23.960  0.00  0.00    +0.089 C 
ATOM      7  N   UNL     1       0.272   0.770  23.875  0.00  0.00    -0.218 NA
ATOM      8  C   UNL     1      -0.186   0.331  24.403  0.00  0.00    +0.089 C 
ATOM      9  C   UNL     1      -0.587   0.710  25.015  0.00  0.00    +0.024 C 
ENDROOT
BRANCH   4   3
ATOM      3  C   UNL     1      -0.933   1.909  25.713  0.00  0.00    +0.087 C 
BRANCH   3   2
ATOM      1  O   UNL     1      -0.785   3.324  25.583  0.00  0.00    -0.273 OA
ATOM      2  C   UNL     1      -1.266   2.652  25.589  0.00  0.00    +0.242 C 
ATOM     22  N   UNL     1      -2.079   2.726  25.472  0.00  0.00    -0.200 NA
BRANCH  22  23
ATOM     23  C   UNL     1      -2.412   3.471  25.348  0.00  0.00    +0.148 C 
BRANCH  23  24
ATOM     24  C   UNL     1      -3.220   3.541  25.198  0.00  0.00    +0.029 A 
ATOM     25  C   UNL     1      -3.594   3.401  24.476  0.00  0.00    +0.004 A 
ATOM     26  C   UNL     1      -4.402   3.537  24.576  0.00  0.00    +0.007 A 
ATOM     27  C   UNL     1      -4.527   3.761  25.360  0.00  0.00    +0.035 A 
ATOM     28  S   UNL     1      -3.797   3.763  25.745  0.00  0.00    -0.089 S 
ENDBRANCH  23  24
ENDBRANCH  22  23
ENDBRANCH   3   2
ENDBRANCH   4   3
BRANCH   9  10
ATOM     10  C   UNL     1      -1.045   0.271  25.543  0.00  0.00    +0.051 C 
BRANCH  10  11
ATOM     11  C   UNL     1      -1.377  -0.446  25.303  0.00  0.00    +0.101 A 
ATOM     12  N   UNL     1      -0.995  -1.176  25.291  0.00  0.00    -0.081 NA
ATOM     13  O   UNL     1      -1.531  -1.739  25.014  0.00  0.00    -0.354 OA
ATOM     14  C   UNL     1      -2.244  -1.356  24.856  0.00  0.00    +0.177 A 
ATOM     15  C   UNL     1      -2.149  -0.556  25.034  0.00  0.00    +0.058 A 
BRANCH  14  16
ATOM     16  C   UNL     1      -2.932  -1.711  24.569  0.00  0.00    +0.037 A 
ATOM     17  C   UNL     1      -3.016  -2.531  24.599  0.00  0.00    +0.003 A 
ATOM     18  C   UNL     1      -3.704  -2.886  24.312  0.00  0.00    +0.000 A 
ATOM     19  C   UNL     1      -4.307  -2.419  23.995  0.00  0.00    +0.000 A 
ATOM     20  C   UNL     1      -4.222  -1.600  23.965  0.00  0.00    +0.000 A 
ATOM     21  C   UNL     1      -3.534  -1.245  24.252  0.00  0.00    +0.003 A 
ENDBRANCH  14  16
ENDBRANCH  10  11
ENDBRANCH   9  10
TORSDOF 7
ENDMDL
MODEL 5
REMARK VINA RESULT:     -11.3      2.101      5.017
REMARK  Name = 
REMARK  7 active torsions:
REMARK  status: ('A' for Active; 'I' for Inactive)
REMARK    1  A    between atoms: C_2  and  C_3
REMARK    2  A    between atoms: C_3  and  C_4
REMARK    3  A    between atoms: C_9  and  C_10
REMARK    4  A    between atoms: C_10  and  C_11
REMARK    5  A    between atoms: C_14  and  C_16
REMARK    6  A    between atoms: N_22  and  C_23
REMARK    7  A    between atoms: C_23  and  C_24
REMARK                            x       y       z     vdW  Elec       q    Type
REMARK                         _______ _______ _______ _____ _____    ______ ____
ROOT
ATOM      4  C   UNL     1      -0.882   1.663  24.799  0.00  0.00    +0.012 C 
ATOM      5  C   UNL     1      -0.300   1.574  25.377  0.00  0.00    +0.019 C 
ATOM      6  C   UNL     1      -0.157   2.184  25.915  0.00  0.00    +0.089 C 
ATOM      7  N   UNL     1      -0.596   2.882  25.874  0.00  0.00    -0.218 NA
ATOM      8  C   UNL     1      -1.177   2.970  25.295  0.00  0.00    +0.089 C 
ATOM      9  C   UNL     1      -1.320   2.361  24.758  0.00  0.00    +0.024 C 
ENDROOT
BRANCH   4   3
ATOM      3  C   UNL     1      -1.024   1.054  24.262  0.00  0.00    +0.087 C 
BRANCH   3   2
ATOM      1  O   UNL     1      -0.194  -0.040  24.658  0.00  0.00    -0.273 OA
ATOM      2  C   UNL     1      -0.943   0.268  24.498  0.00  0.00    +0.242 C 
ATOM     22  N   UNL     1      -1.611  -0.210  24.575  0.00  0.00    -0.200 NA
BRANCH  22  23
ATOM     23  C   UNL     1      -1.530  -0.997  24.812  0.00  0.00    +0.148 C 
BRANCH  23  24
ATOM     24  C   UNL     1      -2.197  -1.476  24.881  0.00  0.00    +0.029 A 
ATOM     25  C   UNL     1      -2.873  -1.307  25.322  0.00  0.00    +0.004 A 
ATOM     26  C   UNL     1      -3.400  -1.936  25.236  0.00  0.00    +0.007 A 
ATOM     27  C   UNL     1      -3.048  -2.495  24.741  0.00  0.00    +0.035 A 
ATOM     28  S   UNL     1      -2.306  -2.211  24.522  0.00  0.00    -0.089 S 
ENDBRANCH  23  24
ENDBRANCH  22  23
ENDBRANCH   3   2
ENDBRANCH   4   3
BRANCH   9  10
ATOM     10  C   UNL     1      -1.901   2.449  24.179  0.00  0.00    +0.051 C 
BRANCH  10  11
ATOM     11  C   UNL     1      -2.640   2.759  24.380  0.00  0.00    +0.101 A 
ATOM     12  N   UNL     1      -2.847   3.556  24.376  0.00  0.00    -0.081 NA
ATOM     13  O   UNL     1      -3.635   3.616  24.613  0.00  0.00    -0.354 OA
ATOM     14  C   UNL     1      -3.914   2.854  24.763  0.00  0.00    +0.177 A 
ATOM     15  C   UNL     1      -3.299   2.324  24.619  0.00  0.00    +0.058 A 
BRANCH  14  16
ATOM     16  C   UNL     1      -4.676   2.657  25.014  0.00  0.00    +0.037 A 
ATOM     17  C   UNL     1      -5.054   1.994  24.701  0.00  0.00    +0.003 A 
ATOM     18  C   UNL     1      -5.815   1.797  24.951  0.00  0.00    +0.000 A 
ATOM     19  C   UNL     1      -6.198   2.264  25.515  0.00  0.00    +0.000 A 
ATOM     20  C   UNL     1      -5.819   2.926  25.827  0.00  0.00    +0.000 A 
ATOM     21  C   UNL     1      -5.058   3.123  25.576  0.00  0.00    +0.003 A 
ENDBRANCH  14  16
ENDBRANCH  10  11
ENDBRANCH   9  10
TORSDOF 7
ENDMDL
MODEL 6
REMARK VINA RESULT:     -11.2      2.168      4.645
REMARK  Name = 
REMARK  7 active torsions:
REMARK  status: ('A' for Active; 'I' for Inactive)
REMARK    1  A    between atoms: C_2  and  C_3
REMARK    2  A    between atoms: C_3  and  C_4
REMARK    3  A    between atoms: C_9  and  C_10
REMARK    4  A    between atoms: C_10  and  C_11
REMARK    5  A    between atoms: C_14  and  C_16
REMARK    6  A    between atoms: N_22  and  C_23
REMARK    7  A    between atoms: C_23  and  C_24
REMARK                            x       y       z     vdW  Elec       q    Type
REMARK                         _______ _______ _______ _____ _____    ______ ____
ROOT
ATOM      4  C   UNL     1      -3.165  -1.630  24.802  0.00  0.00    +0.012 C 
ATOM      5  C   UNL     1      -3.148  -2.268  24.279  0.00  0.00    +0.019 C 
ATOM      6  C   UNL     1      -3.801  -2.425  23.799  0.00  0.00    +0.089 C 
ATOM      7  N   UNL     1      -4.470  -1.945  23.843  0.00  0.00    -0.218 NA
ATOM      8  C   UNL     1      -4.486  -1.307  24.366  0.00  0.00    +0.089 C 
ATOM      9  C   UNL     1      -3.834  -1.149  24.845  0.00  0.00    +0.024 C 
ENDROOT
BRANCH   4   3
ATOM      3  C   UNL     1      -2.512  -1.473  25.281  0.00  0.00    +0.087 C 
BRANCH   3   2
ATOM      1  O   UNL     1      -1.411  -2.295  24.888  0.00  0.00    -0.273 OA
ATOM      2  C   UNL     1      -1.750  -1.547  24.977  0.00  0.00    +0.242 C 
ATOM     22  N   UNL     1      -1.324  -0.875  24.761  0.00  0.00    -0.200 NA
BRANCH  22  23
ATOM     23  C   UNL     1      -0.561  -0.949  24.456  0.00  0.00    +0.148 C 
BRANCH  23  24
ATOM     24  C   UNL     1      -0.182  -0.293  24.131  0.00  0.00    +0.029 A 
ATOM     25  C   UNL     1      -0.284   0.493  24.364  0.00  0.00    +0.004 A 
ATOM     26  C   UNL     1       0.201   0.965  23.893  0.00  0.00    +0.007 A 
ATOM     27  C   UNL     1       0.604   0.471  23.369  0.00  0.00    +0.035 A 
ATOM     28  S   UNL     1       0.368  -0.305  23.516  0.00  0.00    -0.089 S 
ENDBRANCH  23  24
ENDBRANCH  22  23
ENDBRANCH   3   2
ENDBRANCH   4   3
BRANCH   9  10
ATOM     10  C   UNL     1      -3.850  -0.512  25.367  0.00  0.00    +0.051 C 
BRANCH  10  11
ATOM     11  C   UNL     1      -4.208   0.198  25.142  0.00  0.00    +0.101 A 
ATOM     12  N   UNL     1      -5.014   0.315  25.017  0.00  0.00    -0.081 NA
ATOM     13  O   UNL     1      -5.125   1.104  24.800  0.00  0.00    -0.354 OA
ATOM     14  C   UNL     1      -4.388   1.473  24.791  0.00  0.00    +0.177 A 
ATOM     15  C   UNL     1      -3.820   0.912  25.002  0.00  0.00    +0.058 A 
BRANCH  14  16
ATOM     16  C   UNL     1      -4.243   2.263  24.603  0.00  0.00    +0.037 A 
ATOM     17  C   UNL     1      -3.882   2.458  23.888  0.00  0.00    +0.003 A 
ATOM     18  C   UNL     1      -3.737   3.249  23.700  0.00  0.00    +0.000 A 
ATOM     19  C   UNL     1      -3.955   3.844  24.229  0.00  0.00    +0.000 A 
ATOM     20  C   UNL     1      -4.316   3.649  24.944  0.00  0.00    +0.000 A 
ATOM     21  C   UNL     1      -4.460   2.858  25.132  0.00  0.00    +0.003 A 
ENDBRANCH  14  16
ENDBRANCH  10  11
ENDBRANCH   9  10
TORSDOF 7
ENDMDL
MODEL 7
REMARK VINA RESULT:     -11.2      1.510      4.885
REMARK  Name = 
REMARK  7 active torsions:
REMARK  status: ('A' for Active; 'I' for Inactive)
REMARK    1  A    between atoms: C_2  and  C_3
REMARK    2  A    between atoms: C_3  and  C_4
REMARK    3  A    between atoms: C_9  and  C_10
REMARK    4  A    between atoms: C_10  and  C_11
REMARK    5  A    between atoms: C_14  and  C_16
REMARK    6  A    between atoms: N_22  and  C_23
REMARK    7  A    between atoms: C_23  and  C_24
REMARK                            x       y       z     vdW  Elec       q    Type
REMARK                         _______ _______ _______ _____ _____    ______ ____
ROOT
ATOM      4  C   UNL     1      -4.704   1.139  24.732  0.00  0.00    +0.012 C 
ATOM      5  C   UNL     1      -5.195   0.740  25.260  0.00  0.00    +0.019 C 
ATOM      6  C   UNL     1      -5.717   1.164  25.739  0.00  0.00    +0.089 C 
ATOM      7  N   UNL     1      -5.747   1.987  25.689  0.00  0.00    -0.218 NA
ATOM      8  C   UNL     1      -5.255   2.386  25.159  0.00  0.00    +0.089 C 
ATOM      9  C   UNL     1      -4.734   1.962  24.681  0.00  0.00    +0.024 C 
ENDROOT
BRANCH   4   3
ATOM      3  C   UNL     1      -4.183   0.715  24.254  0.00  0.00    +0.087 C 
BRANCH   3   2
ATOM      1  O   UNL     1      -4.536  -0.653  24.468  0.00  0.00    -0.273 OA
ATOM      2  C   UNL     1      -3.968  -0.054  24.459  0.00  0.00    +0.242 C 
ATOM     22  N   UNL     1      -3.186  -0.226  24.655  0.00  0.00    -0.200 NA
BRANCH  22  23
ATOM     23  C   UNL     1      -2.971  -0.996  24.860  0.00  0.00    +0.148 C 
BRANCH  23  24
ATOM     24  C   UNL     1      -2.180  -1.178  25.002  0.00  0.00    +0.029 A 
ATOM     25  C   UNL     1      -1.658  -0.744  25.473  0.00  0.00    +0.004 A 
ATOM     26  C   UNL     1      -0.926  -1.125  25.461  0.00  0.00    +0.007 A 
ATOM     27  C   UNL     1      -0.995  -1.794  24.983  0.00  0.00    +0.035 A 
ATOM     28  S   UNL     1      -1.769  -1.827  24.700  0.00  0.00    -0.089 S 
ENDBRANCH  23  24
ENDBRANCH  22  23
ENDBRANCH   3   2
ENDBRANCH   4   3
BRANCH   9  10
ATOM     10  C   UNL     1      -4.243   2.361  24.153  0.00  0.00    +0.051 C 
BRANCH  10  11
ATOM     11  C   UNL     1      -3.826   3.029  24.400  0.00  0.00    +0.101 A 
ATOM     12  N   UNL     1      -4.157   3.746  24.636  0.00  0.00    -0.081 NA
ATOM     13  O   UNL     1      -3.541   4.257  24.837  0.00  0.00    -0.354 OA
ATOM     14  C   UNL     1      -2.829   3.855  24.725  0.00  0.00    +0.177 A 
ATOM     15  C   UNL     1      -3.005   3.095  24.455  0.00  0.00    +0.058 A 
BRANCH  14  16
ATOM     16  C   UNL     1      -2.074   4.160  24.859  0.00  0.00    +0.037 A 
ATOM     17  C   UNL     1      -1.964   4.974  24.926  0.00  0.00    +0.003 A 
ATOM     18  C   UNL     1      -1.208   5.278  25.061  0.00  0.00    +0.000 A 
ATOM     19  C   UNL     1      -0.564   4.767  25.128  0.00  0.00    +0.000 A 
ATOM     20  C   UNL     1      -0.675   3.953  25.061  0.00  0.00    +0.000 A 
ATOM     21  C   UNL     1      -1.430   3.648  24.926  0.00  0.00    +0.003 A 
ENDBRANCH  14  16
ENDBRANCH  10  11
ENDBRANCH   9  10
TORSDOF 7
ENDMDL
