REMARK  Name = 
REMARK  4 active torsions:
REMARK  status: ('A' for Active; 'I' for Inactive)
REMARK    1  A    between atoms: C_4  and  C_8
REMARK    2  A    between atoms: C_11  and  C_13
REMARK    3  A    between atoms: N_18  and  C_19
REMARK    4  A    between atoms: C_19  and  C_20
REMARK                            x       y       z     vdW  Elec       q    Type
REMARK                         _______ _______ _______ _____ _____    ______ ____
ROOT
ATOM      8  C   UNL     1       1.127  -2.507   0.000  0.00  0.00    +0.102 A 
ATOM      9  C   UNL     1       0.302  -2.507   0.000  0.00  0.00    +0.119 A 
ATOM     10  N   UNL     1       0.047  -1.722   0.000  0.00  0.00    -0.226 NA
ATOM     11  C   UNL     1       0.715  -1.238   0.000  0.00  0.00    +0.156 A 
ATOM     12  N   UNL     1       1.382  -1.722   0.000  0.00  0.00    -0.228 NA
ENDROOT
BRANCH   8   4
ATOM      1  F   UNL     1       1.426  -5.349   0.000  0.00  0.00    -0.204 F 
ATOM      2  C   UNL     1       1.761  -4.596   0.000  0.00  0.00    +0.140 A 
ATOM      3  C   UNL     1       1.276  -3.928   0.000  0.00  0.00    +0.031 A 
ATOM      4  C   UNL     1       1.612  -3.175   0.000  0.00  0.00    +0.021 A 
ATOM      5  C   UNL     1       2.432  -3.088   0.000  0.00  0.00    +0.002 A 
ATOM      6  C   UNL     1       2.917  -3.756   0.000  0.00  0.00    +0.002 A 
ATOM      7  C   UNL     1       2.582  -4.509   0.000  0.00  0.00    +0.030 A 
ENDBRANCH   8   4
BRANCH  11  13
ATOM     13  C   UNL     1       0.715  -0.412   0.000  0.00  0.00    +0.147 C 
ATOM     14  C   UNL     1       0.000   0.000   0.000  0.00  0.00    +0.166 C 
ATOM     15  O   UNL     1       0.000   0.825   0.000  0.00  0.00    -0.350 OA
ATOM     16  C   UNL     1       0.715   1.238   0.000  0.00  0.00    +0.160 C 
ATOM     17  C   UNL     1       1.429   0.825   0.000  0.00  0.00    +0.105 C 
ATOM     18  N   UNL     1       1.429   0.000   0.000  0.00  0.00    -0.264 NA
BRANCH  18  19
ATOM     19  C   UNL     1       2.143  -0.412   0.000  0.00  0.00    +0.073 C 
BRANCH  19  20
ATOM     20  C   UNL     1       2.143  -1.238   0.000  0.00  0.00    +0.016 C 
ATOM     21  C   UNL     1       2.556  -1.952   0.000  0.00  0.00    +0.001 C 
ATOM     22  C   UNL     1       1.731  -1.952   0.000  0.00  0.00    +0.001 C 
ENDBRANCH  19  20
ENDBRANCH  18  19
ENDBRANCH  11  13
TORSDOF 4
