REMARK  Name = 
REMARK  6 active torsions:
REMARK  status: ('A' for Active; 'I' for Inactive)
REMARK    1  A    between atoms: C_2  and  C_3
REMARK    2  A    between atoms: C_2  and  C_25
REMARK    3  A    between atoms: C_10  and  N_11
REMARK    4  A    between atoms: C_12  and  C_14
REMARK    5  A    between atoms: N_27  and  C_28
REMARK    6  A    between atoms: C_28  and  C_29
REMARK                            x       y       z     vdW  Elec       q    Type
REMARK                         _______ _______ _______ _____ _____    ______ ____
ROOT
ATOM      3  C   UNL     1       0.715  -1.238   0.000  0.00  0.00    +0.039 C 
ATOM      4  C   UNL     1       0.715  -0.412   0.000  0.00  0.00    +0.003 C 
ATOM      5  C   UNL     1       1.429   0.000   0.000  0.00  0.00    +0.000 C 
ATOM      6  C   UNL     1       2.143  -0.412   0.000  0.00  0.00    +0.002 C 
ATOM      7  C   UNL     1       2.143   0.412   0.000  0.00  0.00    +0.000 C 
ATOM      8  C   UNL     1       2.858   0.000   0.000  0.00  0.00    +0.002 C 
ATOM      9  C   UNL     1       3.572  -0.412   0.000  0.00  0.00    +0.022 C 
ATOM     10  C   UNL     1       3.572  -1.238   0.000  0.00  0.00    +0.096 C 
ATOM     20  C   UNL     1       2.858  -1.650   0.000  0.00  0.00    +0.022 C 
ATOM     21  C   UNL     1       2.858  -2.475   0.000  0.00  0.00    +0.002 C 
ATOM     22  C   UNL     1       2.143  -1.238   0.000  0.00  0.00    +0.032 C 
ATOM     23  C   UNL     1       1.429  -1.650   0.000  0.00  0.00    +0.152 C 
ATOM     24  O   UNL     1       1.429  -2.475   0.000  0.00  0.00    -0.223 OA
ENDROOT
BRANCH  10  11
ATOM     11  N   UNL     1       4.287  -1.650   0.000  0.00  0.00    -0.203 NA
ATOM     12  C   UNL     1       5.001  -1.238   0.000  0.00  0.00    +0.265 C 
ATOM     13  O   UNL     1       5.001  -0.412   0.000  0.00  0.00    -0.268 OA
BRANCH  12  14
ATOM     14  C   UNL     1       5.716  -1.650   0.000  0.00  0.00    +0.055 A 
ATOM     15  C   UNL     1       6.430  -1.238   0.000  0.00  0.00    +0.005 A 
ATOM     16  C   UNL     1       7.145  -1.650   0.000  0.00  0.00    +0.000 A 
ATOM     17  C   UNL     1       7.145  -2.475   0.000  0.00  0.00    +0.000 A 
ATOM     18  C   UNL     1       6.430  -2.888   0.000  0.00  0.00    +0.000 A 
ATOM     19  C   UNL     1       5.716  -2.475   0.000  0.00  0.00    +0.005 A 
ENDBRANCH  12  14
ENDBRANCH  10  11
BRANCH   3   2
ATOM      1  C   UNL     1      -0.715  -1.238   0.000  0.00  0.00    +0.010 C 
ATOM      2  C   UNL     1       0.000  -1.650   0.000  0.00  0.00    +0.081 C 
BRANCH   2  25
ATOM     25  C   UNL     1       0.000  -2.475   0.000  0.00  0.00    +0.241 C 
ATOM     26  O   UNL     1       0.715  -2.888   0.000  0.00  0.00    -0.273 OA
ATOM     27  N   UNL     1      -0.715  -2.888   0.000  0.00  0.00    -0.201 NA
BRANCH  27  28
ATOM     28  C   UNL     1      -0.715  -3.712   0.000  0.00  0.00    +0.141 C 
BRANCH  28  29
ATOM     29  C   UNL     1      -1.429  -4.125   0.000  0.00  0.00    -0.000 A 
ATOM     30  C   UNL     1      -1.429  -4.950   0.000  0.00  0.00    -0.000 A 
ATOM     31  C   UNL     1      -2.143  -5.362   0.000  0.00  0.00    +0.029 A 
ATOM     32  C   UNL     1      -2.858  -4.950   0.000  0.00  0.00    +0.140 A 
ATOM     33  F   UNL     1      -3.572  -5.362   0.000  0.00  0.00    -0.204 F 
ATOM     34  C   UNL     1      -2.858  -4.125   0.000  0.00  0.00    +0.029 A 
ATOM     35  C   UNL     1      -2.143  -3.712   0.000  0.00  0.00    -0.000 A 
ENDBRANCH  28  29
ENDBRANCH  27  28
ENDBRANCH   2  25
ENDBRANCH   3   2
TORSDOF 6
