MODEL 1
REMARK VINA RESULT:      -9.5      0.000      0.000
REMARK  Name = 
REMARK  8 active torsions:
REMARK  status: ('A' for Active; 'I' for Inactive)
REMARK    1  A    between atoms: O_2  and  C_3
REMARK    2  A    between atoms: C_3  and  C_4
REMARK    3  A    between atoms: C_4  and  O_5
REMARK    4  A    between atoms: O_5  and  C_6
REMARK    5  A    between atoms: C_9  and  C_12
REMARK    6  A    between atoms: C_15  and  C_17
REMARK    7  A    between atoms: N_21  and  C_22
REMARK    8  A    between atoms: C_22  and  C_23
REMARK                            x       y       z     vdW  Elec       q    Type
REMARK                         _______ _______ _______ _____ _____    ______ ____
ROOT
ATOM     12  C   UNL     1      -0.963  -0.112  24.413  0.00  0.00    +0.205 A 
ATOM     13  N   UNL     1      -1.036  -0.129  25.235  0.00  0.00    -0.056 NA
ATOM     14  O   UNL     1      -1.827  -0.276  25.418  0.00  0.00    -0.336 OA
ATOM     15  C   UNL     1      -2.243  -0.349  24.710  0.00  0.00    +0.251 A 
ATOM     16  N   UNL     1      -1.709  -0.248  24.089  0.00  0.00    -0.190 NA
ENDROOT
BRANCH  12   9
ATOM      6  C   UNL     1       1.126   0.279  23.145  0.00  0.00    +0.225 A 
ATOM      7  C   UNL     1       0.704   0.918  23.452  0.00  0.00    +0.058 A 
ATOM      8  C   UNL     1       0.007   0.788  23.875  0.00  0.00    +0.010 A 
ATOM      9  C   UNL     1      -0.267   0.018  23.990  0.00  0.00    +0.058 A 
ATOM     10  C   UNL     1       0.154  -0.620  23.683  0.00  0.00    +0.105 A 
ATOM     11  N   UNL     1       0.850  -0.490  23.260  0.00  0.00    -0.210 NA
BRANCH   6   5
ATOM      5  O   UNL     1       1.822   0.409  22.722  0.00  0.00    -0.457 OA
BRANCH   5   4
ATOM      4  C   UNL     1       2.533   0.522  23.124  0.00  0.00    +0.239 C 
BRANCH   4   3
ATOM      3  C   UNL     1       3.241   0.573  22.703  0.00  0.00    +0.189 C 
BRANCH   3   2
ATOM      1  C   UNL     1       4.629   0.563  23.047  0.00  0.00    +0.174 C 
ATOM      2  O   UNL     1       3.897   0.944  23.041  0.00  0.00    -0.347 OA
ENDBRANCH   3   2
ENDBRANCH   4   3
ENDBRANCH   5   4
ENDBRANCH   6   5
ENDBRANCH  12   9
BRANCH  15  17
ATOM     17  C   UNL     1      -3.051  -0.497  24.635  0.00  0.00    +0.138 C 
ATOM     18  C   UNL     1      -3.400  -1.236  24.518  0.00  0.00    +0.027 C 
ATOM     19  C   UNL     1      -4.217  -1.128  24.475  0.00  0.00    +0.019 C 
ATOM     20  C   UNL     1      -4.373  -0.323  24.565  0.00  0.00    +0.073 C 
ATOM     21  N   UNL     1      -3.653   0.067  24.664  0.00  0.00    -0.263 NA
BRANCH  21  22
ATOM     22  C   UNL     1      -3.552   0.878  24.773  0.00  0.00    +0.102 C 
BRANCH  22  23
ATOM     23  C   UNL     1      -4.210   1.371  24.835  0.00  0.00    +0.021 A 
ATOM     24  C   UNL     1      -4.812   1.190  25.370  0.00  0.00    -0.001 A 
ATOM     25  C   UNL     1      -5.470   1.683  25.432  0.00  0.00    -0.000 A 
ATOM     26  C   UNL     1      -5.527   2.357  24.960  0.00  0.00    +0.002 A 
ATOM     27  C   UNL     1      -4.926   2.538  24.425  0.00  0.00    +0.029 A 
ATOM     28  C   UNL     1      -4.267   2.044  24.363  0.00  0.00    +0.137 A 
ATOM     29  F   UNL     1      -3.666   2.226  23.827  0.00  0.00    -0.204 F 
ENDBRANCH  22  23
ENDBRANCH  21  22
ENDBRANCH  15  17
TORSDOF 8
ENDMDL
MODEL 2
REMARK VINA RESULT:      -9.2      1.256      2.393
REMARK  Name = 
REMARK  8 active torsions:
REMARK  status: ('A' for Active; 'I' for Inactive)
REMARK    1  A    between atoms: O_2  and  C_3
REMARK    2  A    between atoms: C_3  and  C_4
REMARK    3  A    between atoms: C_4  and  O_5
REMARK    4  A    between atoms: O_5  and  C_6
REMARK    5  A    between atoms: C_9  and  C_12
REMARK    6  A    between atoms: C_15  and  C_17
REMARK    7  A    between atoms: N_21  and  C_22
REMARK    8  A    between atoms: C_22  and  C_23
REMARK                            x       y       z     vdW  Elec       q    Type
REMARK                         _______ _______ _______ _____ _____    ______ ____
ROOT
ATOM     12  C   UNL     1      -0.793   0.652  24.508  0.00  0.00    +0.205 A 
ATOM     13  N   UNL     1      -0.832   0.787  25.322  0.00  0.00    -0.056 NA
ATOM     14  O   UNL     1      -1.628   0.807  25.538  0.00  0.00    -0.336 OA
ATOM     15  C   UNL     1      -2.080   0.685  24.859  0.00  0.00    +0.251 A 
ATOM     16  N   UNL     1      -1.564   0.589  24.223  0.00  0.00    -0.190 NA
ENDROOT
BRANCH  12   9
ATOM      6  C   UNL     1       1.277   0.467  23.163  0.00  0.00    +0.225 A 
ATOM      7  C   UNL     1       0.783  -0.188  23.253  0.00  0.00    +0.058 A 
ATOM      8  C   UNL     1       0.093  -0.127  23.701  0.00  0.00    +0.010 A 
ATOM      9  C   UNL     1      -0.103   0.590  24.060  0.00  0.00    +0.058 A 
ATOM     10  C   UNL     1       0.390   1.245  23.971  0.00  0.00    +0.105 A 
ATOM     11  N   UNL     1       1.080   1.183  23.522  0.00  0.00    -0.210 NA
BRANCH   6   5
ATOM      5  O   UNL     1       1.967   0.406  22.715  0.00  0.00    -0.457 OA
BRANCH   5   4
ATOM      4  C   UNL     1       2.695   0.593  23.052  0.00  0.00    +0.239 C 
BRANCH   4   3
ATOM      3  C   UNL     1       3.392   0.452  22.634  0.00  0.00    +0.189 C 
BRANCH   3   2
ATOM      1  C   UNL     1       4.773   0.370  22.995  0.00  0.00    +0.174 C 
ATOM      2  O   UNL     1       4.094   0.820  22.864  0.00  0.00    -0.347 OA
ENDBRANCH   3   2
ENDBRANCH   4   3
ENDBRANCH   5   4
ENDBRANCH   6   5
ENDBRANCH  12   9
BRANCH  15  17
ATOM     17  C   UNL     1      -2.904   0.663  24.822  0.00  0.00    +0.138 C 
ATOM     18  C   UNL     1      -3.401   1.310  24.697  0.00  0.00    +0.027 C 
ATOM     19  C   UNL     1      -4.180   1.037  24.702  0.00  0.00    +0.019 C 
ATOM     20  C   UNL     1      -4.164   0.223  24.829  0.00  0.00    +0.073 C 
ATOM     21  N   UNL     1      -3.376  -0.009  24.904  0.00  0.00    -0.263 NA
BRANCH  21  22
ATOM     22  C   UNL     1      -3.106  -0.777  25.036  0.00  0.00    +0.102 C 
BRANCH  22  23
ATOM     23  C   UNL     1      -3.489  -1.415  24.681  0.00  0.00    +0.021 A 
ATOM     24  C   UNL     1      -3.955  -1.296  24.010  0.00  0.00    -0.001 A 
ATOM     25  C   UNL     1      -4.337  -1.934  23.655  0.00  0.00    -0.000 A 
ATOM     26  C   UNL     1      -4.254  -2.692  23.969  0.00  0.00    +0.002 A 
ATOM     27  C   UNL     1      -3.788  -2.812  24.640  0.00  0.00    +0.029 A 
ATOM     28  C   UNL     1      -3.406  -2.173  24.996  0.00  0.00    +0.137 A 
ATOM     29  F   UNL     1      -2.940  -2.293  25.666  0.00  0.00    -0.204 F 
ENDBRANCH  22  23
ENDBRANCH  21  22
ENDBRANCH  15  17
TORSDOF 8
ENDMDL
MODEL 3
REMARK VINA RESULT:      -8.7      2.607      4.242
REMARK  Name = 
REMARK  8 active torsions:
REMARK  status: ('A' for Active; 'I' for Inactive)
REMARK    1  A    between atoms: O_2  and  C_3
REMARK    2  A    between atoms: C_3  and  C_4
REMARK    3  A    between atoms: C_4  and  O_5
REMARK    4  A    between atoms: O_5  and  C_6
REMARK    5  A    between atoms: C_9  and  C_12
REMARK    6  A    between atoms: C_15  and  C_17
REMARK    7  A    between atoms: N_21  and  C_22
REMARK    8  A    between atoms: C_22  and  C_23
REMARK                            x       y       z     vdW  Elec       q    Type
REMARK                         _______ _______ _______ _____ _____    ______ ____
ROOT
ATOM     12  C   UNL     1      -0.590   1.627  25.388  0.00  0.00    +0.205 A 
ATOM     13  N   UNL     1      -0.014   1.930  25.896  0.00  0.00    -0.056 NA
ATOM     14  O   UNL     1      -0.090   2.752  25.907  0.00  0.00    -0.336 OA
ATOM     15  C   UNL     1      -0.713   2.957  25.407  0.00  0.00    +0.251 A 
ATOM     16  N   UNL     1      -1.022   2.262  25.086  0.00  0.00    -0.190 NA
ENDROOT
BRANCH  12   9
ATOM      6  C   UNL     1      -0.957  -0.764  24.864  0.00  0.00    +0.225 A 
ATOM      7  C   UNL     1      -1.162  -0.468  25.607  0.00  0.00    +0.058 A 
ATOM      8  C   UNL     1      -1.040   0.329  25.782  0.00  0.00    +0.010 A 
ATOM      9  C   UNL     1      -0.713   0.830  25.214  0.00  0.00    +0.058 A 
ATOM     10  C   UNL     1      -0.508   0.535  24.472  0.00  0.00    +0.105 A 
ATOM     11  N   UNL     1      -0.630  -0.262  24.297  0.00  0.00    -0.210 NA
BRANCH   6   5
ATOM      5  O   UNL     1      -1.079  -1.561  24.690  0.00  0.00    -0.457 OA
BRANCH   5   4
ATOM      4  C   UNL     1      -1.822  -1.898  24.804  0.00  0.00    +0.239 C 
BRANCH   4   3
ATOM      3  C   UNL     1      -2.059  -2.540  24.342  0.00  0.00    +0.189 C 
BRANCH   3   2
ATOM      1  C   UNL     1      -3.446  -2.873  24.246  0.00  0.00    +0.174 C 
ATOM      2  O   UNL     1      -2.702  -3.002  24.577  0.00  0.00    -0.347 OA
ENDBRANCH   3   2
ENDBRANCH   4   3
ENDBRANCH   5   4
ENDBRANCH   6   5
ENDBRANCH  12   9
BRANCH  15  17
ATOM     17  C   UNL     1      -0.981   3.722  25.254  0.00  0.00    +0.138 C 
ATOM     18  C   UNL     1      -0.543   4.328  24.907  0.00  0.00    +0.027 C 
ATOM     19  C   UNL     1      -1.025   4.997  24.860  0.00  0.00    +0.019 C 
ATOM     20  C   UNL     1      -1.761   4.803  25.178  0.00  0.00    +0.073 C 
ATOM     21  N   UNL     1      -1.734   4.015  25.422  0.00  0.00    -0.263 NA
BRANCH  21  22
ATOM     22  C   UNL     1      -2.351   3.595  25.772  0.00  0.00    +0.102 C 
BRANCH  22  23
ATOM     23  C   UNL     1      -3.128   3.719  25.525  0.00  0.00    +0.021 A 
ATOM     24  C   UNL     1      -3.315   3.685  24.721  0.00  0.00    -0.001 A 
ATOM     25  C   UNL     1      -4.092   3.809  24.474  0.00  0.00    -0.000 A 
ATOM     26  C   UNL     1      -4.681   3.968  25.028  0.00  0.00    +0.002 A 
ATOM     27  C   UNL     1      -4.495   4.003  25.831  0.00  0.00    +0.029 A 
ATOM     28  C   UNL     1      -3.717   3.878  26.079  0.00  0.00    +0.137 A 
ATOM     29  F   UNL     1      -3.530   3.913  26.882  0.00  0.00    -0.204 F 
ENDBRANCH  22  23
ENDBRANCH  21  22
ENDBRANCH  15  17
TORSDOF 8
ENDMDL
MODEL 4
REMARK VINA RESULT:      -8.5      1.738      2.445
REMARK  Name = 
REMARK  8 active torsions:
REMARK  status: ('A' for Active; 'I' for Inactive)
REMARK    1  A    between atoms: O_2  and  C_3
REMARK    2  A    between atoms: C_3  and  C_4
REMARK    3  A    between atoms: C_4  and  O_5
REMARK    4  A    between atoms: O_5  and  C_6
REMARK    5  A    between atoms: C_9  and  C_12
REMARK    6  A    between atoms: C_15  and  C_17
REMARK    7  A    between atoms: N_21  and  C_22
REMARK    8  A    between atoms: C_22  and  C_23
REMARK                            x       y       z     vdW  Elec       q    Type
REMARK                         _______ _______ _______ _____ _____    ______ ____
ROOT
ATOM     12  C   UNL     1      -0.683   1.948  24.946  0.00  0.00    +0.205 A 
ATOM     13  N   UNL     1      -0.801   1.811  25.751  0.00  0.00    -0.056 NA
ATOM     14  O   UNL     1      -1.399   2.317  26.011  0.00  0.00    -0.336 OA
ATOM     15  C   UNL     1      -1.650   2.766  25.366  0.00  0.00    +0.251 A 
ATOM     16  N   UNL     1      -1.207   2.539  24.708  0.00  0.00    -0.190 NA
ENDROOT
BRANCH  12   9
ATOM      6  C   UNL     1       0.959   0.791  23.499  0.00  0.00    +0.225 A 
ATOM      7  C   UNL     1       0.216   0.456  23.631  0.00  0.00    +0.058 A 
ATOM      8  C   UNL     1      -0.331   0.841  24.114  0.00  0.00    +0.010 A 
ATOM      9  C   UNL     1      -0.135   1.563  24.463  0.00  0.00    +0.058 A 
ATOM     10  C   UNL     1       0.606   1.898  24.332  0.00  0.00    +0.105 A 
ATOM     11  N   UNL     1       1.153   1.513  23.849  0.00  0.00    -0.210 NA
BRANCH   6   5
ATOM      5  O   UNL     1       1.506   0.406  23.017  0.00  0.00    -0.457 OA
BRANCH   5   4
ATOM      4  C   UNL     1       2.306   0.601  23.063  0.00  0.00    +0.239 C 
BRANCH   4   3
ATOM      3  C   UNL     1       2.857   0.194  22.604  0.00  0.00    +0.189 C 
BRANCH   3   2
ATOM      1  C   UNL     1       4.260   0.417  22.767  0.00  0.00    +0.174 C 
ATOM      2  O   UNL     1       3.554   0.568  22.367  0.00  0.00    -0.347 OA
ENDBRANCH   3   2
ENDBRANCH   4   3
ENDBRANCH   5   4
ENDBRANCH   6   5
ENDBRANCH  12   9
BRANCH  15  17
ATOM     17  C   UNL     1      -2.240   3.343  25.377  0.00  0.00    +0.138 C 
ATOM     18  C   UNL     1      -2.127   4.150  25.503  0.00  0.00    +0.027 C 
ATOM     19  C   UNL     1      -2.864   4.520  25.468  0.00  0.00    +0.019 C 
ATOM     20  C   UNL     1      -3.432   3.941  25.321  0.00  0.00    +0.073 C 
ATOM     21  N   UNL     1      -3.047   3.213  25.264  0.00  0.00    -0.263 NA
BRANCH  21  22
ATOM     22  C   UNL     1      -3.406   2.484  25.121  0.00  0.00    +0.102 C 
BRANCH  22  23
ATOM     23  C   UNL     1      -4.227   2.414  25.157  0.00  0.00    +0.021 A 
ATOM     24  C   UNL     1      -4.643   2.757  25.782  0.00  0.00    -0.001 A 
ATOM     25  C   UNL     1      -5.464   2.687  25.818  0.00  0.00    -0.000 A 
ATOM     26  C   UNL     1      -5.869   2.275  25.230  0.00  0.00    +0.002 A 
ATOM     27  C   UNL     1      -5.454   1.932  24.605  0.00  0.00    +0.029 A 
ATOM     28  C   UNL     1      -4.632   2.002  24.569  0.00  0.00    +0.137 A 
ATOM     29  F   UNL     1      -4.216   1.660  23.944  0.00  0.00    -0.204 F 
ENDBRANCH  22  23
ENDBRANCH  21  22
ENDBRANCH  15  17
TORSDOF 8
ENDMDL
MODEL 5
REMARK VINA RESULT:      -8.5      2.736      3.771
REMARK  Name = 
REMARK  8 active torsions:
REMARK  status: ('A' for Active; 'I' for Inactive)
REMARK    1  A    between atoms: O_2  and  C_3
REMARK    2  A    between atoms: C_3  and  C_4
REMARK    3  A    between atoms: C_4  and  O_5
REMARK    4  A    between atoms: O_5  and  C_6
REMARK    5  A    between atoms: C_9  and  C_12
REMARK    6  A    between atoms: C_15  and  C_17
REMARK    7  A    between atoms: N_21  and  C_22
REMARK    8  A    between atoms: C_22  and  C_23
REMARK                            x       y       z     vdW  Elec       q    Type
REMARK                         _______ _______ _______ _____ _____    ______ ____
ROOT
ATOM     12  C   UNL     1      -1.897   1.941  24.980  0.00  0.00    +0.205 A 
ATOM     13  N   UNL     1      -2.022   2.098  24.180  0.00  0.00    -0.056 NA
ATOM     14  O   UNL     1      -2.762   1.796  23.973  0.00  0.00    -0.336 OA
ATOM     15  C   UNL     1      -3.094   1.453  24.646  0.00  0.00    +0.251 A 
ATOM     16  N   UNL     1      -2.559   1.542  25.268  0.00  0.00    -0.190 NA
ENDROOT
BRANCH  12   9
ATOM      6  C   UNL     1       0.112   2.559  26.287  0.00  0.00    +0.225 A 
ATOM      7  C   UNL     1      -0.540   3.065  26.267  0.00  0.00    +0.058 A 
ATOM      8  C   UNL     1      -1.209   2.859  25.832  0.00  0.00    +0.010 A 
ATOM      9  C   UNL     1      -1.228   2.147  25.416  0.00  0.00    +0.058 A 
ATOM     10  C   UNL     1      -0.577   1.641  25.435  0.00  0.00    +0.105 A 
ATOM     11  N   UNL     1       0.093   1.847  25.871  0.00  0.00    -0.210 NA
BRANCH   6   5
ATOM      5  O   UNL     1       0.782   2.764  26.722  0.00  0.00    -0.457 OA
BRANCH   5   4
ATOM      4  C   UNL     1       0.824   2.580  27.525  0.00  0.00    +0.239 C 
BRANCH   4   3
ATOM      3  C   UNL     1       1.505   2.760  27.954  0.00  0.00    +0.189 C 
BRANCH   3   2
ATOM      1  C   UNL     1       2.261   2.656  29.163  0.00  0.00    +0.174 C 
ATOM      2  O   UNL     1       1.545   2.582  28.759  0.00  0.00    -0.347 OA
ENDBRANCH   3   2
ENDBRANCH   4   3
ENDBRANCH   5   4
ENDBRANCH   6   5
ENDBRANCH  12   9
BRANCH  15  17
ATOM     17  C   UNL     1      -3.831   1.084  24.689  0.00  0.00    +0.138 C 
ATOM     18  C   UNL     1      -4.562   1.465  24.714  0.00  0.00    +0.027 C 
ATOM     19  C   UNL     1      -5.150   0.886  24.755  0.00  0.00    +0.019 C 
ATOM     20  C   UNL     1      -4.781   0.149  24.756  0.00  0.00    +0.073 C 
ATOM     21  N   UNL     1      -3.965   0.271  24.715  0.00  0.00    -0.263 NA
BRANCH  21  22
ATOM     22  C   UNL     1      -3.387  -0.317  24.703  0.00  0.00    +0.102 C 
BRANCH  22  23
ATOM     23  C   UNL     1      -3.598  -1.099  24.549  0.00  0.00    +0.021 A 
ATOM     24  C   UNL     1      -4.028  -1.285  23.870  0.00  0.00    -0.001 A 
ATOM     25  C   UNL     1      -4.238  -2.067  23.716  0.00  0.00    -0.000 A 
ATOM     26  C   UNL     1      -4.019  -2.665  24.241  0.00  0.00    +0.002 A 
ATOM     27  C   UNL     1      -3.588  -2.480  24.920  0.00  0.00    +0.029 A 
ATOM     28  C   UNL     1      -3.378  -1.697  25.074  0.00  0.00    +0.137 A 
ATOM     29  F   UNL     1      -2.947  -1.512  25.753  0.00  0.00    -0.204 F 
ENDBRANCH  22  23
ENDBRANCH  21  22
ENDBRANCH  15  17
TORSDOF 8
ENDMDL
MODEL 6
REMARK VINA RESULT:      -8.4      1.858      2.240
REMARK  Name = 
REMARK  8 active torsions:
REMARK  status: ('A' for Active; 'I' for Inactive)
REMARK    1  A    between atoms: O_2  and  C_3
REMARK    2  A    between atoms: C_3  and  C_4
REMARK    3  A    between atoms: C_4  and  O_5
REMARK    4  A    between atoms: O_5  and  C_6
REMARK    5  A    between atoms: C_9  and  C_12
REMARK    6  A    between atoms: C_15  and  C_17
REMARK    7  A    between atoms: N_21  and  C_22
REMARK    8  A    between atoms: C_22  and  C_23
REMARK                            x       y       z     vdW  Elec       q    Type
REMARK                         _______ _______ _______ _____ _____    ______ ____
ROOT
ATOM     12  C   UNL     1      -0.347   0.563  23.841  0.00  0.00    +0.205 A 
ATOM     13  N   UNL     1      -0.661   0.123  24.466  0.00  0.00    -0.056 NA
ATOM     14  O   UNL     1      -1.425   0.397  24.612  0.00  0.00    -0.336 OA
ATOM     15  C   UNL     1      -1.584   1.006  24.079  0.00  0.00    +0.251 A 
ATOM     16  N   UNL     1      -0.918   1.108  23.603  0.00  0.00    -0.190 NA
ENDROOT
BRANCH  12   9
ATOM      6  C   UNL     1       1.908   0.291  22.859  0.00  0.00    +0.225 A 
ATOM      7  C   UNL     1       1.329  -0.283  22.729  0.00  0.00    +0.058 A 
ATOM      8  C   UNL     1       0.577  -0.192  23.056  0.00  0.00    +0.010 A 
ATOM      9  C   UNL     1       0.405   0.472  23.514  0.00  0.00    +0.058 A 
ATOM     10  C   UNL     1       0.983   1.045  23.645  0.00  0.00    +0.105 A 
ATOM     11  N   UNL     1       1.734   0.954  23.317  0.00  0.00    -0.210 NA
BRANCH   6   5
ATOM      5  O   UNL     1       2.660   0.200  22.532  0.00  0.00    -0.457 OA
BRANCH   5   4
ATOM      4  C   UNL     1       3.319   0.501  22.925  0.00  0.00    +0.239 C 
BRANCH   4   3
ATOM      3  C   UNL     1       4.078   0.294  22.675  0.00  0.00    +0.189 C 
BRANCH   3   2
ATOM      1  C   UNL     1       5.334   0.166  23.347  0.00  0.00    +0.174 C 
ATOM      2  O   UNL     1       4.738   0.641  23.029  0.00  0.00    -0.347 OA
ENDBRANCH   3   2
ENDBRANCH   4   3
ENDBRANCH   5   4
ENDBRANCH   6   5
ENDBRANCH  12   9
BRANCH  15  17
ATOM     17  C   UNL     1      -2.285   1.438  24.030  0.00  0.00    +0.138 C 
ATOM     18  C   UNL     1      -2.956   1.225  23.599  0.00  0.00    +0.027 C 
ATOM     19  C   UNL     1      -3.525   1.813  23.706  0.00  0.00    +0.019 C 
ATOM     20  C   UNL     1      -3.206   2.389  24.203  0.00  0.00    +0.073 C 
ATOM     21  N   UNL     1      -2.439   2.157  24.403  0.00  0.00    -0.263 NA
BRANCH  21  22
ATOM     22  C   UNL     1      -1.919   2.572  24.890  0.00  0.00    +0.102 C 
BRANCH  22  23
ATOM     23  C   UNL     1      -2.152   3.287  25.228  0.00  0.00    +0.021 A 
ATOM     24  C   UNL     1      -2.826   3.319  25.703  0.00  0.00    -0.001 A 
ATOM     25  C   UNL     1      -3.059   4.034  26.041  0.00  0.00    -0.000 A 
ATOM     26  C   UNL     1      -2.618   4.718  25.905  0.00  0.00    +0.002 A 
ATOM     27  C   UNL     1      -1.944   4.687  25.431  0.00  0.00    +0.029 A 
ATOM     28  C   UNL     1      -1.711   3.971  25.093  0.00  0.00    +0.137 A 
ATOM     29  F   UNL     1      -1.036   3.940  24.619  0.00  0.00    -0.204 F 
ENDBRANCH  22  23
ENDBRANCH  21  22
ENDBRANCH  15  17
TORSDOF 8
ENDMDL
MODEL 7
REMARK VINA RESULT:      -8.3      3.382      5.050
REMARK  Name = 
REMARK  8 active torsions:
REMARK  status: ('A' for Active; 'I' for Inactive)
REMARK    1  A    between atoms: O_2  and  C_3
REMARK    2  A    between atoms: C_3  and  C_4
REMARK    3  A    between atoms: C_4  and  O_5
REMARK    4  A    between atoms: O_5  and  C_6
REMARK    5  A    between atoms: C_9  and  C_12
REMARK    6  A    between atoms: C_15  and  C_17
REMARK    7  A    between atoms: N_21  and  C_22
REMARK    8  A    between atoms: C_22  and  C_23
REMARK                            x       y       z     vdW  Elec       q    Type
REMARK                         _______ _______ _______ _____ _____    ______ ____
ROOT
ATOM     12  C   UNL     1      -4.231   1.571  24.680  0.00  0.00    +0.205 A 
ATOM     13  N   UNL     1      -4.692   2.094  24.239  0.00  0.00    -0.056 NA
ATOM     14  O   UNL     1      -4.588   2.851  24.550  0.00  0.00    -0.336 OA
ATOM     15  C   UNL     1      -4.063   2.796  25.184  0.00  0.00    +0.251 A 
ATOM     16  N   UNL     1      -3.843   2.004  25.264  0.00  0.00    -0.190 NA
ENDROOT
BRANCH  12   9
ATOM      6  C   UNL     1      -4.048  -0.870  24.316  0.00  0.00    +0.225 A 
ATOM      7  C   UNL     1      -4.345  -0.581  25.029  0.00  0.00    +0.058 A 
ATOM      8  C   UNL     1      -4.406   0.233  25.151  0.00  0.00    +0.010 A 
ATOM      9  C   UNL     1      -4.170   0.757  24.559  0.00  0.00    +0.058 A 
ATOM     10  C   UNL     1      -3.873   0.468  23.846  0.00  0.00    +0.105 A 
ATOM     11  N   UNL     1      -3.812  -0.346  23.725  0.00  0.00    -0.210 NA
BRANCH   6   5
ATOM      5  O   UNL     1      -3.986  -1.684  24.194  0.00  0.00    -0.457 OA
BRANCH   5   4
ATOM      4  C   UNL     1      -3.427  -2.122  24.613  0.00  0.00    +0.239 C 
BRANCH   4   3
ATOM      3  C   UNL     1      -3.015  -2.730  24.237  0.00  0.00    +0.189 C 
BRANCH   3   2
ATOM      1  C   UNL     1      -1.604  -2.873  24.420  0.00  0.00    +0.174 C 
ATOM      2  O   UNL     1      -2.375  -3.091  24.615  0.00  0.00    -0.347 OA
ENDBRANCH   3   2
ENDBRANCH   4   3
ENDBRANCH   5   4
ENDBRANCH   6   5
ENDBRANCH  12   9
BRANCH  15  17
ATOM     17  C   UNL     1      -3.804   3.421  25.655  0.00  0.00    +0.138 C 
ATOM     18  C   UNL     1      -4.228   3.774  26.269  0.00  0.00    +0.027 C 
ATOM     19  C   UNL     1      -3.761   4.375  26.588  0.00  0.00    +0.019 C 
ATOM     20  C   UNL     1      -3.049   4.393  26.172  0.00  0.00    +0.073 C 
ATOM     21  N   UNL     1      -3.075   3.804  25.595  0.00  0.00    -0.263 NA
BRANCH  21  22
ATOM     22  C   UNL     1      -2.478   3.628  25.055  0.00  0.00    +0.102 C 
BRANCH  22  23
ATOM     23  C   UNL     1      -1.809   4.108  25.008  0.00  0.00    +0.021 A 
ATOM     24  C   UNL     1      -1.893   4.927  24.940  0.00  0.00    -0.001 A 
ATOM     25  C   UNL     1      -1.224   5.407  24.894  0.00  0.00    -0.000 A 
ATOM     26  C   UNL     1      -0.471   5.069  24.915  0.00  0.00    +0.002 A 
ATOM     27  C   UNL     1      -0.387   4.251  24.983  0.00  0.00    +0.029 A 
ATOM     28  C   UNL     1      -1.057   3.771  25.029  0.00  0.00    +0.137 A 
ATOM     29  F   UNL     1      -0.973   2.953  25.097  0.00  0.00    -0.204 F 
ENDBRANCH  22  23
ENDBRANCH  21  22
ENDBRANCH  15  17
TORSDOF 8
ENDMDL
MODEL 8
REMARK VINA RESULT:      -8.1      3.153      4.697
REMARK  Name = 
REMARK  8 active torsions:
REMARK  status: ('A' for Active; 'I' for Inactive)
REMARK    1  A    between atoms: O_2  and  C_3
REMARK    2  A    between atoms: C_3  and  C_4
REMARK    3  A    between atoms: C_4  and  O_5
REMARK    4  A    between atoms: O_5  and  C_6
REMARK    5  A    between atoms: C_9  and  C_12
REMARK    6  A    between atoms: C_15  and  C_17
REMARK    7  A    between atoms: N_21  and  C_22
REMARK    8  A    between atoms: C_22  and  C_23
REMARK                            x       y       z     vdW  Elec       q    Type
REMARK                         _______ _______ _______ _____ _____    ______ ____
ROOT
ATOM     12  C   UNL     1      -4.195   1.052  24.737  0.00  0.00    +0.205 A 
ATOM     13  N   UNL     1      -4.907   0.795  25.066  0.00  0.00    -0.056 NA
ATOM     14  O   UNL     1      -4.949  -0.024  24.975  0.00  0.00    -0.336 OA
ATOM     15  C   UNL     1      -4.263  -0.274  24.590  0.00  0.00    +0.251 A 
ATOM     16  N   UNL     1      -3.797   0.392  24.443  0.00  0.00    -0.190 NA
ENDROOT
BRANCH  12   9
ATOM      6  C   UNL     1      -3.394   3.392  24.648  0.00  0.00    +0.225 A 
ATOM      7  C   UNL     1      -3.397   2.930  23.963  0.00  0.00    +0.058 A 
ATOM      8  C   UNL     1      -3.664   2.150  23.993  0.00  0.00    +0.010 A 
ATOM      9  C   UNL     1      -3.928   1.832  24.707  0.00  0.00    +0.058 A 
ATOM     10  C   UNL     1      -3.925   2.292  25.391  0.00  0.00    +0.105 A 
ATOM     11  N   UNL     1      -3.658   3.072  25.361  0.00  0.00    -0.210 NA
BRANCH   6   5
ATOM      5  O   UNL     1      -3.127   4.172  24.619  0.00  0.00    -0.457 OA
BRANCH   5   4
ATOM      4  C   UNL     1      -2.448   4.391  25.031  0.00  0.00    +0.239 C 
BRANCH   4   3
ATOM      3  C   UNL     1      -2.063   5.097  24.846  0.00  0.00    +0.189 C 
BRANCH   3   2
ATOM      1  C   UNL     1      -0.655   5.342  24.809  0.00  0.00    +0.174 C 
ATOM      2  O   UNL     1      -1.361   5.298  25.232  0.00  0.00    -0.347 OA
ENDBRANCH   3   2
ENDBRANCH   4   3
ENDBRANCH   5   4
ENDBRANCH   6   5
ENDBRANCH  12   9
BRANCH  15  17
ATOM     17  C   UNL     1      -4.076  -1.051  24.387  0.00  0.00    +0.138 C 
ATOM     18  C   UNL     1      -4.478  -1.519  23.839  0.00  0.00    +0.027 C 
ATOM     19  C   UNL     1      -4.104  -2.255  23.810  0.00  0.00    +0.019 C 
ATOM     20  C   UNL     1      -3.472  -2.240  24.339  0.00  0.00    +0.073 C 
ATOM     21  N   UNL     1      -3.454  -1.496  24.696  0.00  0.00    -0.263 NA
BRANCH  21  22
ATOM     22  C   UNL     1      -2.911  -1.243  25.262  0.00  0.00    +0.102 C 
BRANCH  22  23
ATOM     23  C   UNL     1      -2.114  -1.443  25.188  0.00  0.00    +0.021 A 
ATOM     24  C   UNL     1      -1.869  -1.941  24.577  0.00  0.00    -0.001 A 
ATOM     25  C   UNL     1      -1.072  -2.141  24.503  0.00  0.00    -0.000 A 
ATOM     26  C   UNL     1      -0.520  -1.842  25.038  0.00  0.00    +0.002 A 
ATOM     27  C   UNL     1      -0.765  -1.344  25.648  0.00  0.00    +0.029 A 
ATOM     28  C   UNL     1      -1.562  -1.144  25.723  0.00  0.00    +0.137 A 
ATOM     29  F   UNL     1      -1.807  -0.646  26.333  0.00  0.00    -0.204 F 
ENDBRANCH  22  23
ENDBRANCH  21  22
ENDBRANCH  15  17
TORSDOF 8
ENDMDL
MODEL 9
REMARK VINA RESULT:      -7.7      2.557      4.019
REMARK  Name = 
REMARK  8 active torsions:
REMARK  status: ('A' for Active; 'I' for Inactive)
REMARK    1  A    between atoms: O_2  and  C_3
REMARK    2  A    between atoms: C_3  and  C_4
REMARK    3  A    between atoms: C_4  and  O_5
REMARK    4  A    between atoms: O_5  and  C_6
REMARK    5  A    between atoms: C_9  and  C_12
REMARK    6  A    between atoms: C_15  and  C_17
REMARK    7  A    between atoms: N_21  and  C_22
REMARK    8  A    between atoms: C_22  and  C_23
REMARK                            x       y       z     vdW  Elec       q    Type
REMARK                         _______ _______ _______ _____ _____    ______ ____
ROOT
ATOM     12  C   UNL     1      -0.356   0.751  24.422  0.00  0.00    +0.205 A 
ATOM     13  N   UNL     1       0.019   0.364  23.796  0.00  0.00    -0.056 NA
ATOM     14  O   UNL     1      -0.126  -0.445  23.874  0.00  0.00    -0.336 OA
ATOM     15  C   UNL     1      -0.590  -0.558  24.547  0.00  0.00    +0.251 A 
ATOM     16  N   UNL     1      -0.732   0.182  24.885  0.00  0.00    -0.190 NA
ENDROOT
BRANCH  12   9
ATOM      6  C   UNL     1      -0.353   3.191  24.832  0.00  0.00    +0.225 A 
ATOM      7  C   UNL     1      -0.122   2.672  25.431  0.00  0.00    +0.058 A 
ATOM      8  C   UNL     1      -0.123   1.858  25.294  0.00  0.00    +0.010 A 
ATOM      9  C   UNL     1      -0.355   1.564  24.558  0.00  0.00    +0.058 A 
ATOM     10  C   UNL     1      -0.585   2.083  23.960  0.00  0.00    +0.105 A 
ATOM     11  N   UNL     1      -0.584   2.897  24.097  0.00  0.00    -0.210 NA
BRANCH   6   5
ATOM      5  O   UNL     1      -0.351   4.005  24.969  0.00  0.00    -0.457 OA
BRANCH   5   4
ATOM      4  C   UNL     1      -1.065   4.410  25.051  0.00  0.00    +0.239 C 
BRANCH   4   3
ATOM      3  C   UNL     1      -1.082   5.232  24.985  0.00  0.00    +0.189 C 
BRANCH   3   2
ATOM      1  C   UNL     1      -2.466   5.378  25.311  0.00  0.00    +0.174 C 
ATOM      2  O   UNL     1      -1.692   5.662  25.338  0.00  0.00    -0.347 OA
ENDBRANCH   3   2
ENDBRANCH   4   3
ENDBRANCH   5   4
ENDBRANCH   6   5
ENDBRANCH  12   9
BRANCH  15  17
ATOM     17  C   UNL     1      -0.863  -1.282  24.832  0.00  0.00    +0.138 C 
ATOM     18  C   UNL     1      -0.424  -1.829  25.266  0.00  0.00    +0.027 C 
ATOM     19  C   UNL     1      -0.914  -2.472  25.435  0.00  0.00    +0.019 C 
ATOM     20  C   UNL     1      -1.655  -2.321  25.106  0.00  0.00    +0.073 C 
ATOM     21  N   UNL     1      -1.624  -1.586  24.733  0.00  0.00    -0.263 NA
BRANCH  21  22
ATOM     22  C   UNL     1      -2.245  -1.219  24.332  0.00  0.00    +0.102 C 
BRANCH  22  23
ATOM     23  C   UNL     1      -2.961  -1.614  24.231  0.00  0.00    +0.021 A 
ATOM     24  C   UNL     1      -2.985  -2.439  24.250  0.00  0.00    -0.001 A 
ATOM     25  C   UNL     1      -3.702  -2.833  24.150  0.00  0.00    -0.000 A 
ATOM     26  C   UNL     1      -4.396  -2.405  24.031  0.00  0.00    +0.002 A 
ATOM     27  C   UNL     1      -4.373  -1.580  24.011  0.00  0.00    +0.029 A 
ATOM     28  C   UNL     1      -3.656  -1.185  24.112  0.00  0.00    +0.137 A 
ATOM     29  F   UNL     1      -3.633  -0.360  24.093  0.00  0.00    -0.204 F 
ENDBRANCH  22  23
ENDBRANCH  21  22
ENDBRANCH  15  17
TORSDOF 8
ENDMDL
