REMARK  Name = 
REMARK  3 active torsions:
REMARK  status: ('A' for Active; 'I' for Inactive)
REMARK    1  A    between atoms: N_3  and  C_17
REMARK    2  A    between atoms: N_7  and  C_8
REMARK    3  A    between atoms: C_8  and  C_9
REMARK                            x       y       z     vdW  Elec       q    Type
REMARK                         _______ _______ _______ _____ _____    ______ ____
ROOT
ATOM      1  O   UNL     1       0.884  -2.150   0.000  0.00  0.00    -0.252 OA
ATOM      2  C   UNL     1       1.139  -1.365   0.000  0.00  0.00    +0.307 C 
ATOM      3  N   UNL     1       0.654  -0.698   0.000  0.00  0.00    -0.264 N 
ATOM      4  C   UNL     1       1.139  -0.030   0.000  0.00  0.00    +0.116 C 
ATOM      5  C   UNL     1       1.923  -0.285   0.000  0.00  0.00    +0.113 C 
ATOM      6  C   UNL     1       2.638   0.127   0.000  0.00  0.00    +0.094 C 
ATOM      7  N   UNL     1       3.352  -0.285   0.000  0.00  0.00    -0.263 NA
ATOM     14  C   UNL     1       3.352  -1.110   0.000  0.00  0.00    +0.094 C 
ATOM     15  C   UNL     1       2.638  -1.523   0.000  0.00  0.00    +0.112 C 
ATOM     16  N   UNL     1       1.923  -1.110   0.000  0.00  0.00    -0.261 N 
ENDROOT
BRANCH   3  17
ATOM     17  C   UNL     1      -0.171  -0.698   0.000  0.00  0.00    +0.077 C 
ATOM     18  C   UNL     1      -0.584  -1.412   0.000  0.00  0.00    +0.020 C 
ATOM     19  C   UNL     1      -1.409  -1.412   0.000  0.00  0.00    +0.002 C 
ATOM     20  C   UNL     1      -1.821  -0.698   0.000  0.00  0.00    +0.000 C 
ATOM     21  C   UNL     1      -1.409   0.017   0.000  0.00  0.00    +0.002 C 
ATOM     22  C   UNL     1      -0.584   0.017   0.000  0.00  0.00    +0.020 C 
ENDBRANCH   3  17
BRANCH   7   8
ATOM      8  C   UNL     1       4.067   0.127   0.000  0.00  0.00    +0.139 C 
BRANCH   8   9
ATOM      9  C   UNL     1       4.781  -0.285   0.000  0.00  0.00    +0.155 A 
ATOM     10  N   UNL     1       5.535   0.050   0.000  0.00  0.00    -0.226 NA
ATOM     11  C   UNL     1       6.087  -0.563   0.000  0.00  0.00    +0.121 A 
ATOM     12  C   UNL     1       5.674  -1.278   0.000  0.00  0.00    +0.121 A 
ATOM     13  N   UNL     1       4.867  -1.106   0.000  0.00  0.00    -0.226 NA
ENDBRANCH   8   9
ENDBRANCH   7   8
TORSDOF 3
