REMARK  Name = 
REMARK  4 active torsions:
REMARK  status: ('A' for Active; 'I' for Inactive)
REMARK    1  A    between atoms: C_5  and  C_8
REMARK    2  A    between atoms: C_17  and  N_25
REMARK    3  A    between atoms: N_28  and  C_29
REMARK    4  A    between atoms: C_29  and  C_30
REMARK                            x       y       z     vdW  Elec       q    Type
REMARK                         _______ _______ _______ _____ _____    ______ ____
ROOT
ATOM      8  C   UNL     1      -3.615   6.653   0.000  0.00  0.00    +0.000 A 
ATOM      9  C   UNL     1      -3.151   7.335   0.000  0.00  0.00    +0.001 A 
ATOM     10  C   UNL     1      -2.328   7.273   0.000  0.00  0.00    +0.017 A 
ATOM     11  C   UNL     1      -1.970   6.530   0.000  0.00  0.00    +0.078 A 
ATOM     12  N   UNL     1      -1.147   6.591   0.000  0.00  0.00    -0.178 NA
ATOM     13  C   UNL     1      -0.586   5.987   0.000  0.00  0.00    +0.264 C 
ATOM     14  O   UNL     1       0.202   6.230   0.000  0.00  0.00    -0.271 OA
ATOM     15  C   UNL     1      -0.709   5.171   0.000  0.00  0.00    +0.156 C 
ATOM     16  C   UNL     1       0.005   4.758   0.000  0.00  0.00    +0.051 C 
ATOM     17  C   UNL     1       0.005   3.933   0.000  0.00  0.00    +0.101 C 
ATOM     18  C   UNL     1      -0.709   3.521   0.000  0.00  0.00    +0.043 C 
ATOM     19  C   UNL     1      -1.424   3.933   0.000  0.00  0.00    +0.096 C 
ATOM     20  N   UNL     1      -1.424   4.758   0.000  0.00  0.00    -0.269 N 
ATOM     21  C   UNL     1      -2.192   5.060   0.000  0.00  0.00    +0.251 C 
ATOM     22  O   UNL     1      -2.796   4.499   0.000  0.00  0.00    -0.270 OA
ATOM     23  C   UNL     1      -2.435   5.848   0.000  0.00  0.00    +0.069 A 
ATOM     24  C   UNL     1      -3.257   5.910   0.000  0.00  0.00    +0.006 A 
ENDROOT
BRANCH   8   5
ATOM      1 CL   UNL     1      -6.906   6.900   0.000  0.00  0.00    -0.082 Cl
ATOM      2  C   UNL     1      -6.083   6.838   0.000  0.00  0.00    +0.058 A 
ATOM      3  C   UNL     1      -5.619   7.520   0.000  0.00  0.00    +0.011 A 
ATOM      4  C   UNL     1      -4.796   7.458   0.000  0.00  0.00    +0.001 A 
ATOM      5  C   UNL     1      -4.438   6.715   0.000  0.00  0.00    +0.000 A 
ATOM      6  C   UNL     1      -4.903   6.033   0.000  0.00  0.00    +0.001 A 
ATOM      7  C   UNL     1      -5.726   6.095   0.000  0.00  0.00    +0.011 A 
ENDBRANCH   8   5
BRANCH  17  25
ATOM     25  N   UNL     1       0.720   3.521   0.000  0.00  0.00    -0.189 NA
ATOM     26  C   UNL     1       1.434   3.933   0.000  0.00  0.00    +0.340 C 
ATOM     27  O   UNL     1       1.434   4.758   0.000  0.00  0.00    -0.249 OA
ATOM     28  N   UNL     1       2.149   3.521   0.000  0.00  0.00    -0.182 NA
BRANCH  28  29
ATOM     29  C   UNL     1       2.863   3.933   0.000  0.00  0.00    +0.143 C 
BRANCH  29  30
ATOM     30  C   UNL     1       3.578   3.521   0.000  0.00  0.00    -0.003 C 
ATOM     31  C   UNL     1       4.292   3.933   0.000  0.00  0.00    -0.003 C 
ENDBRANCH  29  30
ENDBRANCH  28  29
ENDBRANCH  17  25
TORSDOF 4
