MODEL 1
REMARK VINA RESULT:     -11.1      0.000      0.000
REMARK  Name = 
REMARK  8 active torsions:
REMARK  status: ('A' for Active; 'I' for Inactive)
REMARK    1  A    between atoms: C_2  and  C_4
REMARK    2  A    between atoms: C_6  and  C_7
REMARK    3  A    between atoms: C_7  and  C_8
REMARK    4  A    between atoms: N_10  and  C_11
REMARK    5  A    between atoms: C_11  and  C_12
REMARK    6  A    between atoms: C_22  and  C_23
REMARK    7  A    between atoms: C_23  and  N_24
REMARK    8  A    between atoms: N_24  and  S_25
REMARK                            x       y       z     vdW  Elec       q    Type
REMARK                         _______ _______ _______ _____ _____    ______ ____
ROOT
ATOM      4  C   UNL     1      -3.038   0.573  24.644  0.00  0.00    +0.006 C 
ATOM      5  C   UNL     1      -3.238   1.373  24.682  0.00  0.00    +0.005 C 
ATOM      6  C   UNL     1      -4.030   1.597  24.731  0.00  0.00    +0.027 C 
ATOM     19  C   UNL     1      -4.622   1.023  24.743  0.00  0.00    -0.048 C 
ATOM     20  C   UNL     1      -5.414   1.248  24.793  0.00  0.00    +0.026 C 
ATOM     21  C   UNL     1      -4.422   0.224  24.706  0.00  0.00    -0.033 C 
ATOM     22  C   UNL     1      -3.630  -0.002  24.656  0.00  0.00    +0.041 C 
ENDROOT
BRANCH   4   2
ATOM      1  C   UNL     1      -1.870   0.322  23.860  0.00  0.00    +0.000 C 
ATOM      2  C   UNL     1      -2.246   0.348  24.594  0.00  0.00    +0.000 C 
ATOM      3  C   UNL     1      -1.830   0.150  25.277  0.00  0.00    +0.000 C 
ENDBRANCH   4   2
BRANCH   6   7
ATOM      7  C   UNL     1      -4.230   2.397  24.769  0.00  0.00    +0.091 C 
BRANCH   7   8
ATOM      8  C   UNL     1      -3.856   2.890  25.316  0.00  0.00    +0.242 C 
ATOM      9  O   UNL     1      -4.096   2.887  26.105  0.00  0.00    -0.273 OA
ATOM     10  N   UNL     1      -3.241   3.385  25.073  0.00  0.00    -0.201 NA
BRANCH  10  11
ATOM     11  C   UNL     1      -2.868   3.877  25.620  0.00  0.00    +0.141 C 
BRANCH  11  12
ATOM     12  C   UNL     1      -2.193   4.297  25.402  0.00  0.00    -0.000 A 
ATOM     13  C   UNL     1      -2.243   5.103  25.241  0.00  0.00    -0.000 A 
ATOM     14  C   UNL     1      -1.566   5.524  25.023  0.00  0.00    +0.029 A 
ATOM     15  C   UNL     1      -0.841   5.135  24.966  0.00  0.00    +0.140 A 
ATOM     16  F   UNL     1      -0.164   5.555  24.747  0.00  0.00    -0.204 F 
ATOM     17  C   UNL     1      -0.791   4.328  25.126  0.00  0.00    +0.029 A 
ATOM     18  C   UNL     1      -1.467   3.908  25.345  0.00  0.00    -0.000 A 
ENDBRANCH  11  12
ENDBRANCH  10  11
ENDBRANCH   7   8
ENDBRANCH   6   7
BRANCH  22  23
ATOM     23  C   UNL     1      -3.430  -0.800  24.618  0.00  0.00    +0.119 C 
BRANCH  23  24
ATOM     24  N   UNL     1      -4.021  -1.376  24.637  0.00  0.00    -0.082 NA
BRANCH  24  25
ATOM     25  S   UNL     1      -3.829  -2.170  24.525  0.00  0.00    +0.059 S 
ATOM     26  C   UNL     1      -3.635  -2.965  24.413  0.00  0.00    +0.197 C 
ATOM     27  O   UNL     1      -4.016  -2.103  23.724  0.00  0.00    -0.156 OA
ATOM     28  O   UNL     1      -3.641  -2.238  25.326  0.00  0.00    -0.156 OA
ENDBRANCH  24  25
ENDBRANCH  23  24
ENDBRANCH  22  23
TORSDOF 8
ENDMDL
MODEL 2
REMARK VINA RESULT:     -10.6      2.770      5.404
REMARK  Name = 
REMARK  8 active torsions:
REMARK  status: ('A' for Active; 'I' for Inactive)
REMARK    1  A    between atoms: C_2  and  C_4
REMARK    2  A    between atoms: C_6  and  C_7
REMARK    3  A    between atoms: C_7  and  C_8
REMARK    4  A    between atoms: N_10  and  C_11
REMARK    5  A    between atoms: C_11  and  C_12
REMARK    6  A    between atoms: C_22  and  C_23
REMARK    7  A    between atoms: C_23  and  N_24
REMARK    8  A    between atoms: N_24  and  S_25
REMARK                            x       y       z     vdW  Elec       q    Type
REMARK                         _______ _______ _______ _____ _____    ______ ____
ROOT
ATOM      4  C   UNL     1      -2.197   2.212  24.688  0.00  0.00    +0.006 C 
ATOM      5  C   UNL     1      -2.820   1.693  24.536  0.00  0.00    +0.005 C 
ATOM      6  C   UNL     1      -3.563   1.990  24.334  0.00  0.00    +0.027 C 
ATOM     19  C   UNL     1      -3.683   2.805  24.285  0.00  0.00    -0.048 C 
ATOM     20  C   UNL     1      -4.425   3.101  24.083  0.00  0.00    +0.026 C 
ATOM     21  C   UNL     1      -3.060   3.323  24.437  0.00  0.00    -0.033 C 
ATOM     22  C   UNL     1      -2.316   3.027  24.639  0.00  0.00    +0.041 C 
ENDROOT
BRANCH   4   2
ATOM      1  C   UNL     1      -0.920   1.703  24.297  0.00  0.00    +0.000 C 
ATOM      2  C   UNL     1      -1.454   1.915  24.890  0.00  0.00    +0.000 C 
ATOM      3  C   UNL     1      -1.245   1.830  25.683  0.00  0.00    +0.000 C 
ENDBRANCH   4   2
BRANCH   6   7
ATOM      7  C   UNL     1      -4.186   1.472  24.182  0.00  0.00    +0.091 C 
BRANCH   7   8
ATOM      8  C   UNL     1      -4.323   0.833  24.687  0.00  0.00    +0.242 C 
ATOM      9  O   UNL     1      -4.634   0.961  25.440  0.00  0.00    -0.273 OA
ATOM     10  N   UNL     1      -4.148   0.065  24.438  0.00  0.00    -0.201 NA
BRANCH  10  11
ATOM     11  C   UNL     1      -4.285  -0.573  24.942  0.00  0.00    +0.141 C 
BRANCH  11  12
ATOM     12  C   UNL     1      -4.041  -1.330  24.723  0.00  0.00    -0.000 A 
ATOM     13  C   UNL     1      -4.328  -1.671  24.030  0.00  0.00    -0.000 A 
ATOM     14  C   UNL     1      -4.084  -2.429  23.811  0.00  0.00    +0.029 A 
ATOM     15  C   UNL     1      -3.553  -2.844  24.287  0.00  0.00    +0.140 A 
ATOM     16  F   UNL     1      -3.309  -3.602  24.068  0.00  0.00    -0.204 F 
ATOM     17  C   UNL     1      -3.267  -2.503  24.980  0.00  0.00    +0.029 A 
ATOM     18  C   UNL     1      -3.510  -1.746  25.199  0.00  0.00    -0.000 A 
ENDBRANCH  11  12
ENDBRANCH  10  11
ENDBRANCH   7   8
ENDBRANCH   6   7
BRANCH  22  23
ATOM     23  C   UNL     1      -1.693   3.545  24.791  0.00  0.00    +0.119 C 
BRANCH  23  24
ATOM     24  N   UNL     1      -1.787   4.354  24.659  0.00  0.00    -0.082 NA
BRANCH  24  25
ATOM     25  S   UNL     1      -1.180   4.877  24.854  0.00  0.00    +0.059 S 
ATOM     26  C   UNL     1      -0.572   5.401  25.048  0.00  0.00    +0.197 C 
ATOM     27  O   UNL     1      -1.585   5.094  25.539  0.00  0.00    -0.156 OA
ATOM     28  O   UNL     1      -0.773   4.661  24.169  0.00  0.00    -0.156 OA
ENDBRANCH  24  25
ENDBRANCH  23  24
ENDBRANCH  22  23
TORSDOF 8
ENDMDL
MODEL 3
REMARK VINA RESULT:     -10.6      1.357      2.330
REMARK  Name = 
REMARK  8 active torsions:
REMARK  status: ('A' for Active; 'I' for Inactive)
REMARK    1  A    between atoms: C_2  and  C_4
REMARK    2  A    between atoms: C_6  and  C_7
REMARK    3  A    between atoms: C_7  and  C_8
REMARK    4  A    between atoms: N_10  and  C_11
REMARK    5  A    between atoms: C_11  and  C_12
REMARK    6  A    between atoms: C_22  and  C_23
REMARK    7  A    between atoms: C_23  and  N_24
REMARK    8  A    between atoms: N_24  and  S_25
REMARK                            x       y       z     vdW  Elec       q    Type
REMARK                         _______ _______ _______ _____ _____    ______ ____
ROOT
ATOM      4  C   UNL     1      -2.652   0.010  24.651  0.00  0.00    +0.006 C 
ATOM      5  C   UNL     1      -2.053   0.575  24.699  0.00  0.00    +0.005 C 
ATOM      6  C   UNL     1      -1.263   0.338  24.715  0.00  0.00    +0.027 C 
ATOM     19  C   UNL     1      -1.072  -0.465  24.683  0.00  0.00    -0.048 C 
ATOM     20  C   UNL     1      -0.283  -0.701  24.699  0.00  0.00    +0.026 C 
ATOM     21  C   UNL     1      -1.671  -1.029  24.635  0.00  0.00    -0.033 C 
ATOM     22  C   UNL     1      -2.462  -0.792  24.619  0.00  0.00    +0.041 C 
ENDROOT
BRANCH   4   2
ATOM      1  C   UNL     1      -3.796   0.452  23.917  0.00  0.00    +0.000 C 
ATOM      2  C   UNL     1      -3.442   0.247  24.635  0.00  0.00    +0.000 C 
ATOM      3  C   UNL     1      -3.877   0.281  25.334  0.00  0.00    +0.000 C 
ENDBRANCH   4   2
BRANCH   6   7
ATOM      7  C   UNL     1      -0.664   0.903  24.762  0.00  0.00    +0.091 C 
BRANCH   7   8
ATOM      8  C   UNL     1      -0.699   1.492  25.340  0.00  0.00    +0.242 C 
ATOM      9  O   UNL     1      -0.604   1.297  26.135  0.00  0.00    -0.273 OA
ATOM     10  N   UNL     1      -0.829   2.278  25.120  0.00  0.00    -0.201 NA
BRANCH  10  11
ATOM     11  C   UNL     1      -0.864   2.866  25.697  0.00  0.00    +0.141 C 
BRANCH  11  12
ATOM     12  C   UNL     1      -1.074   3.636  25.487  0.00  0.00    -0.000 A 
ATOM     13  C   UNL     1      -0.541   4.111  25.076  0.00  0.00    -0.000 A 
ATOM     14  C   UNL     1      -0.751   4.881  24.866  0.00  0.00    +0.029 A 
ATOM     15  C   UNL     1      -1.495   5.175  25.069  0.00  0.00    +0.140 A 
ATOM     16  F   UNL     1      -1.705   5.945  24.859  0.00  0.00    -0.204 F 
ATOM     17  C   UNL     1      -2.028   4.699  25.480  0.00  0.00    +0.029 A 
ATOM     18  C   UNL     1      -1.818   3.930  25.690  0.00  0.00    -0.000 A 
ENDBRANCH  11  12
ENDBRANCH  10  11
ENDBRANCH   7   8
ENDBRANCH   6   7
BRANCH  22  23
ATOM     23  C   UNL     1      -3.061  -1.357  24.572  0.00  0.00    +0.119 C 
BRANCH  23  24
ATOM     24  N   UNL     1      -2.872  -2.160  24.560  0.00  0.00    -0.082 NA
BRANCH  24  25
ATOM     25  S   UNL     1      -3.468  -2.723  24.480  0.00  0.00    +0.059 S 
ATOM     26  C   UNL     1      -4.066  -3.287  24.399  0.00  0.00    +0.197 C 
ATOM     27  O   UNL     1      -3.517  -2.790  25.300  0.00  0.00    -0.156 OA
ATOM     28  O   UNL     1      -3.421  -2.658  23.658  0.00  0.00    -0.156 OA
ENDBRANCH  24  25
ENDBRANCH  23  24
ENDBRANCH  22  23
TORSDOF 8
ENDMDL
MODEL 4
REMARK VINA RESULT:     -10.4      2.829      5.738
REMARK  Name = 
REMARK  8 active torsions:
REMARK  status: ('A' for Active; 'I' for Inactive)
REMARK    1  A    between atoms: C_2  and  C_4
REMARK    2  A    between atoms: C_6  and  C_7
REMARK    3  A    between atoms: C_7  and  C_8
REMARK    4  A    between atoms: N_10  and  C_11
REMARK    5  A    between atoms: C_11  and  C_12
REMARK    6  A    between atoms: C_22  and  C_23
REMARK    7  A    between atoms: C_23  and  N_24
REMARK    8  A    between atoms: N_24  and  S_25
REMARK                            x       y       z     vdW  Elec       q    Type
REMARK                         _______ _______ _______ _____ _____    ______ ____
ROOT
ATOM      4  C   UNL     1      -2.239   2.240  24.703  0.00  0.00    +0.006 C 
ATOM      5  C   UNL     1      -2.073   1.432  24.712  0.00  0.00    +0.005 C 
ATOM      6  C   UNL     1      -1.333   1.167  24.964  0.00  0.00    +0.027 C 
ATOM     19  C   UNL     1      -0.760   1.709  25.206  0.00  0.00    -0.048 C 
ATOM     20  C   UNL     1      -0.021   1.443  25.457  0.00  0.00    +0.026 C 
ATOM     21  C   UNL     1      -0.927   2.516  25.197  0.00  0.00    -0.033 C 
ATOM     22  C   UNL     1      -1.667   2.783  24.945  0.00  0.00    +0.041 C 
ENDROOT
BRANCH   4   2
ATOM      1  C   UNL     1      -3.117   2.641  23.649  0.00  0.00    +0.000 C 
ATOM      2  C   UNL     1      -2.979   2.505  24.452  0.00  0.00    +0.000 C 
ATOM      3  C   UNL     1      -3.580   2.634  25.001  0.00  0.00    +0.000 C 
ENDBRANCH   4   2
BRANCH   6   7
ATOM      7  C   UNL     1      -1.167   0.359  24.973  0.00  0.00    +0.091 C 
BRANCH   7   8
ATOM      8  C   UNL     1      -1.688  -0.165  25.342  0.00  0.00    +0.242 C 
ATOM      9  O   UNL     1      -1.734  -0.189  26.165  0.00  0.00    -0.273 OA
ATOM     10  N   UNL     1      -2.161  -0.665  24.887  0.00  0.00    -0.201 NA
BRANCH  10  11
ATOM     11  C   UNL     1      -2.681  -1.188  25.256  0.00  0.00    +0.141 C 
BRANCH  11  12
ATOM     12  C   UNL     1      -3.198  -1.644  24.802  0.00  0.00    -0.000 A 
ATOM     13  C   UNL     1      -3.818  -1.284  24.396  0.00  0.00    -0.000 A 
ATOM     14  C   UNL     1      -4.334  -1.741  23.941  0.00  0.00    +0.029 A 
ATOM     15  C   UNL     1      -4.228  -2.558  23.894  0.00  0.00    +0.140 A 
ATOM     16  F   UNL     1      -4.745  -3.015  23.440  0.00  0.00    -0.204 F 
ATOM     17  C   UNL     1      -3.608  -2.918  24.300  0.00  0.00    +0.029 A 
ATOM     18  C   UNL     1      -3.092  -2.462  24.754  0.00  0.00    -0.000 A 
ENDBRANCH  11  12
ENDBRANCH  10  11
ENDBRANCH   7   8
ENDBRANCH   6   7
BRANCH  22  23
ATOM     23  C   UNL     1      -1.834   3.590  24.936  0.00  0.00    +0.119 C 
BRANCH  23  24
ATOM     24  N   UNL     1      -1.290   4.128  25.246  0.00  0.00    -0.082 NA
BRANCH  24  25
ATOM     25  S   UNL     1      -1.394   4.936  25.124  0.00  0.00    +0.059 S 
ATOM     26  C   UNL     1      -1.498   5.746  25.001  0.00  0.00    +0.197 C 
ATOM     27  O   UNL     1      -0.818   4.922  24.533  0.00  0.00    -0.156 OA
ATOM     28  O   UNL     1      -1.970   4.952  25.714  0.00  0.00    -0.156 OA
ENDBRANCH  24  25
ENDBRANCH  23  24
ENDBRANCH  22  23
TORSDOF 8
ENDMDL
MODEL 5
REMARK VINA RESULT:      -9.2      2.620      4.005
REMARK  Name = 
REMARK  8 active torsions:
REMARK  status: ('A' for Active; 'I' for Inactive)
REMARK    1  A    between atoms: C_2  and  C_4
REMARK    2  A    between atoms: C_6  and  C_7
REMARK    3  A    between atoms: C_7  and  C_8
REMARK    4  A    between atoms: N_10  and  C_11
REMARK    5  A    between atoms: C_11  and  C_12
REMARK    6  A    between atoms: C_22  and  C_23
REMARK    7  A    between atoms: C_23  and  N_24
REMARK    8  A    between atoms: N_24  and  S_25
REMARK                            x       y       z     vdW  Elec       q    Type
REMARK                         _______ _______ _______ _____ _____    ______ ____
ROOT
ATOM      4  C   UNL     1      -1.375   0.618  24.508  0.00  0.00    +0.006 C 
ATOM      5  C   UNL     1      -2.111   0.460  24.847  0.00  0.00    +0.005 C 
ATOM      6  C   UNL     1      -2.385  -0.316  24.894  0.00  0.00    +0.027 C 
ATOM     19  C   UNL     1      -1.924  -0.935  24.602  0.00  0.00    -0.048 C 
ATOM     20  C   UNL     1      -2.199  -1.711  24.648  0.00  0.00    +0.026 C 
ATOM     21  C   UNL     1      -1.190  -0.777  24.263  0.00  0.00    -0.033 C 
ATOM     22  C   UNL     1      -0.914  -0.001  24.216  0.00  0.00    +0.041 C 
ENDROOT
BRANCH   4   2
ATOM      1  C   UNL     1      -1.275   1.854  23.798  0.00  0.00    +0.000 C 
ATOM      2  C   UNL     1      -1.101   1.395  24.461  0.00  0.00    +0.000 C 
ATOM      3  C   UNL     1      -0.653   1.712  25.076  0.00  0.00    +0.000 C 
ENDBRANCH   4   2
BRANCH   6   7
ATOM      7  C   UNL     1      -3.121  -0.473  25.232  0.00  0.00    +0.091 C 
BRANCH   7   8
ATOM      8  C   UNL     1      -3.805  -0.156  24.897  0.00  0.00    +0.242 C 
ATOM      9  O   UNL     1      -4.141  -0.510  24.231  0.00  0.00    -0.273 OA
ATOM     10  N   UNL     1      -4.154   0.515  25.227  0.00  0.00    -0.201 NA
BRANCH  10  11
ATOM     11  C   UNL     1      -4.838   0.832  24.892  0.00  0.00    +0.141 C 
BRANCH  11  12
ATOM     12  C   UNL     1      -5.090   1.587  25.106  0.00  0.00    -0.000 A 
ATOM     13  C   UNL     1      -5.594   1.687  25.751  0.00  0.00    -0.000 A 
ATOM     14  C   UNL     1      -5.845   2.443  25.965  0.00  0.00    +0.029 A 
ATOM     15  C   UNL     1      -5.592   3.099  25.534  0.00  0.00    +0.140 A 
ATOM     16  F   UNL     1      -5.844   3.856  25.748  0.00  0.00    -0.204 F 
ATOM     17  C   UNL     1      -5.088   3.000  24.889  0.00  0.00    +0.029 A 
ATOM     18  C   UNL     1      -4.836   2.244  24.675  0.00  0.00    -0.000 A 
ENDBRANCH  11  12
ENDBRANCH  10  11
ENDBRANCH   7   8
ENDBRANCH   6   7
BRANCH  22  23
ATOM     23  C   UNL     1      -0.179   0.157  23.877  0.00  0.00    +0.119 C 
BRANCH  23  24
ATOM     24  N   UNL     1       0.245  -0.448  23.509  0.00  0.00    -0.082 NA
BRANCH  24  25
ATOM     25  S   UNL     1       0.957  -0.281  23.129  0.00  0.00    +0.059 S 
ATOM     26  C   UNL     1       1.670  -0.114  22.749  0.00  0.00    +0.197 C 
ATOM     27  O   UNL     1       0.553  -0.174  22.418  0.00  0.00    -0.156 OA
ATOM     28  O   UNL     1       1.362  -0.388  23.840  0.00  0.00    -0.156 OA
ENDBRANCH  24  25
ENDBRANCH  23  24
ENDBRANCH  22  23
TORSDOF 8
ENDMDL
MODEL 6
REMARK VINA RESULT:      -9.1      2.991      4.887
REMARK  Name = 
REMARK  8 active torsions:
REMARK  status: ('A' for Active; 'I' for Inactive)
REMARK    1  A    between atoms: C_2  and  C_4
REMARK    2  A    between atoms: C_6  and  C_7
REMARK    3  A    between atoms: C_7  and  C_8
REMARK    4  A    between atoms: N_10  and  C_11
REMARK    5  A    between atoms: C_11  and  C_12
REMARK    6  A    between atoms: C_22  and  C_23
REMARK    7  A    between atoms: C_23  and  N_24
REMARK    8  A    between atoms: N_24  and  S_25
REMARK                            x       y       z     vdW  Elec       q    Type
REMARK                         _______ _______ _______ _____ _____    ______ ____
ROOT
ATOM      4  C   UNL     1      -2.418   3.307  24.930  0.00  0.00    +0.006 C 
ATOM      5  C   UNL     1      -1.795   2.957  24.517  0.00  0.00    +0.005 C 
ATOM      6  C   UNL     1      -1.952   2.478  23.864  0.00  0.00    +0.027 C 
ATOM     19  C   UNL     1      -2.731   2.349  23.624  0.00  0.00    -0.048 C 
ATOM     20  C   UNL     1      -2.887   1.870  22.971  0.00  0.00    +0.026 C 
ATOM     21  C   UNL     1      -3.353   2.698  24.036  0.00  0.00    -0.033 C 
ATOM     22  C   UNL     1      -3.197   3.178  24.690  0.00  0.00    +0.041 C 
ENDROOT
BRANCH   4   2
ATOM      1  C   UNL     1      -2.137   4.595  25.480  0.00  0.00    +0.000 C 
ATOM      2  C   UNL     1      -2.262   3.786  25.583  0.00  0.00    +0.000 C 
ATOM      3  C   UNL     1      -2.229   3.456  26.338  0.00  0.00    +0.000 C 
ENDBRANCH   4   2
BRANCH   6   7
ATOM      7  C   UNL     1      -1.329   2.128  23.451  0.00  0.00    +0.091 C 
BRANCH   7   8
ATOM      8  C   UNL     1      -0.774   1.669  23.854  0.00  0.00    +0.242 C 
ATOM      9  O   UNL     1      -0.064   2.005  24.106  0.00  0.00    -0.273 OA
ATOM     10  N   UNL     1      -0.930   0.872  24.006  0.00  0.00    -0.201 NA
BRANCH  10  11
ATOM     11  C   UNL     1      -0.375   0.413  24.409  0.00  0.00    +0.141 C 
BRANCH  11  12
ATOM     12  C   UNL     1      -0.566  -0.356  24.636  0.00  0.00    -0.000 A 
ATOM     13  C   UNL     1      -0.866  -0.502  25.390  0.00  0.00    -0.000 A 
ATOM     14  C   UNL     1      -1.056  -1.273  25.617  0.00  0.00    +0.029 A 
ATOM     15  C   UNL     1      -0.945  -1.897  25.089  0.00  0.00    +0.140 A 
ATOM     16  F   UNL     1      -1.135  -2.667  25.316  0.00  0.00    -0.204 F 
ATOM     17  C   UNL     1      -0.645  -1.751  24.335  0.00  0.00    +0.029 A 
ATOM     18  C   UNL     1      -0.455  -0.981  24.108  0.00  0.00    -0.000 A 
ENDBRANCH  11  12
ENDBRANCH  10  11
ENDBRANCH   7   8
ENDBRANCH   6   7
BRANCH  22  23
ATOM     23  C   UNL     1      -3.819   3.527  25.103  0.00  0.00    +0.119 C 
BRANCH  23  24
ATOM     24  N   UNL     1      -4.599   3.321  24.929  0.00  0.00    -0.082 NA
BRANCH  24  25
ATOM     25  S   UNL     1      -5.216   3.617  25.387  0.00  0.00    +0.059 S 
ATOM     26  C   UNL     1      -5.835   3.912  25.847  0.00  0.00    +0.197 C 
ATOM     27  O   UNL     1      -5.186   4.329  24.972  0.00  0.00    -0.156 OA
ATOM     28  O   UNL     1      -5.248   2.905  25.804  0.00  0.00    -0.156 OA
ENDBRANCH  24  25
ENDBRANCH  23  24
ENDBRANCH  22  23
TORSDOF 8
ENDMDL
