MODEL 1
REMARK VINA RESULT:     -10.9      0.000      0.000
REMARK  Name = 
REMARK  3 active torsions:
REMARK  status: ('A' for Active; 'I' for Inactive)
REMARK    1  A    between atoms: C_4  and  C_5
REMARK    2  A    between atoms: C_5  and  N_6
REMARK    3  A    between atoms: N_12  and  C_15
REMARK                            x       y       z     vdW  Elec       q    Type
REMARK                         _______ _______ _______ _____ _____    ______ ____
ROOT
ATOM      6  N   UNL     1      -3.726   2.632  24.516  0.00  0.00    -0.266 NA
ATOM      7  C   UNL     1      -4.378   2.553  25.016  0.00  0.00    +0.094 C 
ATOM      8  C   UNL     1      -4.654   1.803  25.217  0.00  0.00    +0.112 C 
ATOM      9  N   UNL     1      -4.280   1.130  24.917  0.00  0.00    -0.261 N 
ATOM     10  C   UNL     1      -3.629   1.210  24.417  0.00  0.00    +0.113 C 
ATOM     11  C   UNL     1      -3.374   0.454  24.208  0.00  0.00    +0.121 C 
ATOM     12  N   UNL     1      -3.868  -0.093  24.579  0.00  0.00    -0.241 N 
ATOM     13  C   UNL     1      -4.428   0.326  25.017  0.00  0.00    +0.311 C 
ATOM     14  O   UNL     1      -5.030  -0.003  25.475  0.00  0.00    -0.252 OA
ATOM     21  C   UNL     1      -3.352   1.961  24.216  0.00  0.00    +0.094 C 
ENDROOT
BRANCH  12  15
ATOM     15  C   UNL     1      -3.812  -0.914  24.522  0.00  0.00    +0.055 A 
ATOM     16  C   UNL     1      -3.355  -1.335  25.065  0.00  0.00    +0.015 A 
ATOM     17  C   UNL     1      -3.299  -2.157  25.008  0.00  0.00    +0.001 A 
ATOM     18  C   UNL     1      -3.700  -2.556  24.408  0.00  0.00    +0.000 A 
ATOM     19  C   UNL     1      -4.156  -2.136  23.865  0.00  0.00    +0.001 A 
ATOM     20  C   UNL     1      -4.212  -1.314  23.922  0.00  0.00    +0.015 A 
ENDBRANCH  12  15
BRANCH   6   5
ATOM      5  C   UNL     1      -3.449   3.383  24.315  0.00  0.00    +0.102 C 
BRANCH   5   4
ATOM      1  C   UNL     1      -0.864   4.389  25.175  0.00  0.00    +0.154 C 
ATOM      2  N   UNL     1      -1.666   4.199  25.160  0.00  0.00    -0.248 N 
ATOM      3  C   UNL     1      -2.063   3.813  24.548  0.00  0.00    +0.094 A 
ATOM      4  C   UNL     1      -2.854   3.737  24.765  0.00  0.00    +0.033 A 
ATOM     22  C   UNL     1      -2.949   4.076  25.512  0.00  0.00    +0.119 A 
ATOM     23  N   UNL     1      -2.214   4.362  25.756  0.00  0.00    -0.168 NA
ENDBRANCH   5   4
ENDBRANCH   6   5
TORSDOF 3
ENDMDL
MODEL 2
REMARK VINA RESULT:     -10.1      1.938      2.516
REMARK  Name = 
REMARK  3 active torsions:
REMARK  status: ('A' for Active; 'I' for Inactive)
REMARK    1  A    between atoms: C_4  and  C_5
REMARK    2  A    between atoms: C_5  and  N_6
REMARK    3  A    between atoms: N_12  and  C_15
REMARK                            x       y       z     vdW  Elec       q    Type
REMARK                         _______ _______ _______ _____ _____    ______ ____
ROOT
ATOM      6  N   UNL     1      -0.800   1.398  25.469  0.00  0.00    -0.266 NA
ATOM      7  C   UNL     1      -0.269   1.020  24.963  0.00  0.00    +0.094 C 
ATOM      8  C   UNL     1      -0.488   0.322  24.584  0.00  0.00    +0.112 C 
ATOM      9  N   UNL     1      -1.238   0.001  24.709  0.00  0.00    -0.261 N 
ATOM     10  C   UNL     1      -1.769   0.379  25.214  0.00  0.00    +0.113 C 
ATOM     11  C   UNL     1      -2.465  -0.063  25.231  0.00  0.00    +0.121 C 
ATOM     12  N   UNL     1      -2.364  -0.715  24.736  0.00  0.00    -0.241 N 
ATOM     13  C   UNL     1      -1.606  -0.675  24.413  0.00  0.00    +0.311 C 
ATOM     14  O   UNL     1      -1.274  -1.217  23.887  0.00  0.00    -0.252 OA
ATOM     21  C   UNL     1      -1.550   1.079  25.595  0.00  0.00    +0.094 C 
ENDROOT
BRANCH  12  15
ATOM     15  C   UNL     1      -2.924  -1.303  24.589  0.00  0.00    +0.055 A 
ATOM     16  C   UNL     1      -3.556  -1.154  24.079  0.00  0.00    +0.015 A 
ATOM     17  C   UNL     1      -4.115  -1.742  23.932  0.00  0.00    +0.001 A 
ATOM     18  C   UNL     1      -4.042  -2.480  24.295  0.00  0.00    +0.000 A 
ATOM     19  C   UNL     1      -3.411  -2.629  24.804  0.00  0.00    +0.001 A 
ATOM     20  C   UNL     1      -2.852  -2.041  24.951  0.00  0.00    +0.015 A 
ENDBRANCH  12  15
BRANCH   6   5
ATOM      5  C   UNL     1      -0.581   2.098  25.849  0.00  0.00    +0.102 C 
BRANCH   5   4
ATOM      1  C   UNL     1      -1.835   4.661  25.309  0.00  0.00    +0.154 C 
ATOM      2  N   UNL     1      -1.339   4.004  25.259  0.00  0.00    -0.248 N 
ATOM      3  C   UNL     1      -1.351   3.346  25.757  0.00  0.00    +0.094 A 
ATOM      4  C   UNL     1      -0.762   2.826  25.507  0.00  0.00    +0.033 A 
ATOM     22  C   UNL     1      -0.384   3.162  24.855  0.00  0.00    +0.119 A 
ATOM     23  N   UNL     1      -0.741   3.891  24.701  0.00  0.00    -0.168 NA
ENDBRANCH   5   4
ENDBRANCH   6   5
TORSDOF 3
ENDMDL
MODEL 3
REMARK VINA RESULT:     -10.1      1.264      4.835
REMARK  Name = 
REMARK  3 active torsions:
REMARK  status: ('A' for Active; 'I' for Inactive)
REMARK    1  A    between atoms: C_4  and  C_5
REMARK    2  A    between atoms: C_5  and  N_6
REMARK    3  A    between atoms: N_12  and  C_15
REMARK                            x       y       z     vdW  Elec       q    Type
REMARK                         _______ _______ _______ _____ _____    ______ ____
ROOT
ATOM      6  N   UNL     1      -3.944   0.574  25.014  0.00  0.00    -0.266 NA
ATOM      7  C   UNL     1      -4.406   0.979  24.463  0.00  0.00    +0.094 C 
ATOM      8  C   UNL     1      -4.190   1.736  24.221  0.00  0.00    +0.112 C 
ATOM      9  N   UNL     1      -3.511   2.091  24.529  0.00  0.00    -0.261 N 
ATOM     10  C   UNL     1      -3.049   1.687  25.080  0.00  0.00    +0.113 C 
ATOM     11  C   UNL     1      -2.416   2.172  25.287  0.00  0.00    +0.121 C 
ATOM     12  N   UNL     1      -2.486   2.877  24.863  0.00  0.00    -0.241 N 
ATOM     13  C   UNL     1      -3.163   2.826  24.395  0.00  0.00    +0.311 C 
ATOM     14  O   UNL     1      -3.443   3.409  23.882  0.00  0.00    -0.252 OA
ATOM     21  C   UNL     1      -3.266   0.928  25.323  0.00  0.00    +0.094 C 
ENDROOT
BRANCH  12  15
ATOM     15  C   UNL     1      -1.969   3.519  24.901  0.00  0.00    +0.055 A 
ATOM     16  C   UNL     1      -2.197   4.210  25.292  0.00  0.00    +0.015 A 
ATOM     17  C   UNL     1      -1.681   4.852  25.330  0.00  0.00    +0.001 A 
ATOM     18  C   UNL     1      -0.937   4.803  24.977  0.00  0.00    +0.000 A 
ATOM     19  C   UNL     1      -0.709   4.114  24.587  0.00  0.00    +0.001 A 
ATOM     20  C   UNL     1      -1.225   3.472  24.549  0.00  0.00    +0.015 A 
ENDBRANCH  12  15
BRANCH   6   5
ATOM      5  C   UNL     1      -4.160  -0.184  25.257  0.00  0.00    +0.102 C 
BRANCH   5   4
ATOM      1  C   UNL     1      -2.642  -2.517  24.430  0.00  0.00    +0.154 C 
ATOM      2  N   UNL     1      -3.204  -1.915  24.452  0.00  0.00    -0.248 N 
ATOM      3  C   UNL     1      -3.263  -1.326  25.027  0.00  0.00    +0.094 A 
ATOM      4  C   UNL     1      -3.902  -0.842  24.832  0.00  0.00    +0.033 A 
ATOM     22  C   UNL     1      -4.238  -1.131  24.135  0.00  0.00    +0.119 A 
ATOM     23  N   UNL     1      -3.807  -1.794  23.900  0.00  0.00    -0.168 NA
ENDBRANCH   5   4
ENDBRANCH   6   5
TORSDOF 3
ENDMDL
MODEL 4
REMARK VINA RESULT:      -9.8      2.280      5.407
REMARK  Name = 
REMARK  3 active torsions:
REMARK  status: ('A' for Active; 'I' for Inactive)
REMARK    1  A    between atoms: C_4  and  C_5
REMARK    2  A    between atoms: C_5  and  N_6
REMARK    3  A    between atoms: N_12  and  C_15
REMARK                            x       y       z     vdW  Elec       q    Type
REMARK                         _______ _______ _______ _____ _____    ______ ____
ROOT
ATOM      6  N   UNL     1      -0.889  -0.131  24.984  0.00  0.00    -0.266 NA
ATOM      7  C   UNL     1      -0.633   0.015  24.213  0.00  0.00    +0.094 C 
ATOM      8  C   UNL     1      -0.629   0.785  23.919  0.00  0.00    +0.112 C 
ATOM      9  N   UNL     1      -0.879   1.410  24.395  0.00  0.00    -0.261 N 
ATOM     10  C   UNL     1      -1.135   1.265  25.166  0.00  0.00    +0.113 C 
ATOM     11  C   UNL     1      -1.349   1.986  25.504  0.00  0.00    +0.121 C 
ATOM     12  N   UNL     1      -1.226   2.577  24.942  0.00  0.00    -0.241 N 
ATOM     13  C   UNL     1      -0.936   2.221  24.258  0.00  0.00    +0.311 C 
ATOM     14  O   UNL     1      -0.737   2.608  23.557  0.00  0.00    -0.252 OA
ATOM     21  C   UNL     1      -1.140   0.494  25.461  0.00  0.00    +0.094 C 
ENDROOT
BRANCH  12  15
ATOM     15  C   UNL     1      -1.368   3.383  25.047  0.00  0.00    +0.055 A 
ATOM     16  C   UNL     1      -2.133   3.650  25.206  0.00  0.00    +0.015 A 
ATOM     17  C   UNL     1      -2.276   4.456  25.311  0.00  0.00    +0.001 A 
ATOM     18  C   UNL     1      -1.653   4.995  25.257  0.00  0.00    +0.000 A 
ATOM     19  C   UNL     1      -0.889   4.728  25.099  0.00  0.00    +0.001 A 
ATOM     20  C   UNL     1      -0.747   3.922  24.994  0.00  0.00    +0.015 A 
ENDBRANCH  12  15
BRANCH   6   5
ATOM      5  C   UNL     1      -0.893  -0.902  25.279  0.00  0.00    +0.102 C 
BRANCH   5   4
ATOM      1  C   UNL     1      -3.419  -2.310  25.015  0.00  0.00    +0.154 C 
ATOM      2  N   UNL     1      -2.634  -2.081  24.910  0.00  0.00    -0.248 N 
ATOM      3  C   UNL     1      -2.249  -1.469  25.307  0.00  0.00    +0.094 A 
ATOM      4  C   UNL     1      -1.473  -1.434  25.031  0.00  0.00    +0.033 A 
ATOM     22  C   UNL     1      -1.377  -2.025  24.463  0.00  0.00    +0.119 A 
ATOM     23  N   UNL     1      -2.095  -2.425  24.388  0.00  0.00    -0.168 NA
ENDBRANCH   5   4
ENDBRANCH   6   5
TORSDOF 3
ENDMDL
