REMARK  Name = 
REMARK  8 active torsions:
REMARK  status: ('A' for Active; 'I' for Inactive)
REMARK    1  A    between atoms: C_2  and  C_3
REMARK    2  A    between atoms: C_3  and  C_4
REMARK    3  A    between atoms: C_3  and  C_6
REMARK    4  A    between atoms: C_8  and  C_31
REMARK    5  A    between atoms: C_10  and  C_12
REMARK    6  A    between atoms: C_19  and  C_20
REMARK    7  A    between atoms: C_20  and  N_21
REMARK    8  A    between atoms: N_21  and  C_22
REMARK                            x       y       z     vdW  Elec       q    Type
REMARK                         _______ _______ _______ _____ _____    ______ ____
ROOT
ATOM     12  C   UNL     1       1.661  -1.343   0.000  0.00  0.00    +0.056 C 
ATOM     13  C   UNL     1       1.814  -2.106   0.000  0.00  0.00    +0.078 C 
ATOM     14  N   UNL     1       1.065  -1.759   0.000  0.00  0.00    -0.272 NA
ATOM     15  C   UNL     1       1.205  -0.720   0.000  0.00  0.00    +0.072 C 
ATOM     16  C   UNL     1       0.961  -0.114   0.000  0.00  0.00    +0.018 C 
ATOM     17  C   UNL     1       0.923  -1.010   0.000  0.00  0.00    +0.010 C 
ATOM     18  C   UNL     1       0.119  -1.362   0.000  0.00  0.00    +0.018 C 
ATOM     19  C   UNL     1       0.226  -2.118   0.000  0.00  0.00    +0.075 C 
ENDROOT
BRANCH  12  10
ATOM      6  C   UNL     1       2.829   0.501   0.000  0.00  0.00    +0.061 A 
ATOM      7  N   UNL     1       3.597   0.200   0.000  0.00  0.00    -0.231 NA
ATOM      8  C   UNL     1       3.720  -0.616   0.000  0.00  0.00    +0.162 A 
ATOM      9  N   UNL     1       3.075  -1.130   0.000  0.00  0.00    -0.231 NA
ATOM     10  C   UNL     1       2.307  -0.828   0.000  0.00  0.00    +0.063 A 
ATOM     11  C   UNL     1       2.184  -0.013   0.000  0.00  0.00    +0.030 A 
BRANCH   8  31
ATOM     31  C   UNL     1       4.488  -0.918   0.000  0.00  0.00    +0.039 A 
ATOM     32  C   UNL     1       5.133  -0.404   0.000  0.00  0.00    +0.024 A 
ATOM     33  C   UNL     1       5.901  -0.706   0.000  0.00  0.00    +0.099 A 
ATOM     34  N   UNL     1       6.023  -1.522   0.000  0.00  0.00    -0.242 NA
ATOM     35  C   UNL     1       5.378  -2.036   0.000  0.00  0.00    +0.099 A 
ATOM     36  C   UNL     1       4.610  -1.734   0.000  0.00  0.00    +0.024 A 
ENDBRANCH   8  31
BRANCH   6   3
ATOM      3  C   UNL     1       2.707   1.317   0.000  0.00  0.00    +0.040 C 
BRANCH   3   2
ATOM      1  C   UNL     1       1.294   1.105   0.000  0.00  0.00    +0.000 C 
ATOM      2  C   UNL     1       1.939   1.619   0.000  0.00  0.00    +0.006 C 
ENDBRANCH   3   2
BRANCH   3   4
ATOM      4  C   UNL     1       3.352   1.831   0.000  0.00  0.00    +0.006 C 
ATOM      5  C   UNL     1       4.120   1.530   0.000  0.00  0.00    +0.000 C 
ENDBRANCH   3   4
ENDBRANCH   6   3
ENDBRANCH  12  10
BRANCH  19  20
ATOM     20  C   UNL     1      -0.179  -2.836   0.000  0.00  0.00    +0.104 C 
BRANCH  20  21
ATOM     21  N   UNL     1      -1.004  -2.845   0.000  0.00  0.00    -0.218 NA
BRANCH  21  22
ATOM     22  C   UNL     1      -1.408  -3.564   0.000  0.00  0.00    +0.076 C 
ATOM     23  C   UNL     1      -0.988  -4.274   0.000  0.00  0.00    +0.039 C 
ATOM     24  C   UNL     1      -1.393  -4.993   0.000  0.00  0.00    +0.095 C 
ATOM     25  N   UNL     1      -2.218  -5.002   0.000  0.00  0.00    -0.279 N 
ATOM     26  C   UNL     1      -2.638  -4.292   0.000  0.00  0.00    +0.095 C 
ATOM     27  C   UNL     1      -2.233  -3.573   0.000  0.00  0.00    +0.039 C 
ATOM     28  C   UNL     1      -2.623  -5.721   0.000  0.00  0.00    +0.226 C 
ATOM     29  C   UNL     1      -3.448  -5.729   0.000  0.00  0.00    +0.095 C 
ATOM     30  O   UNL     1      -2.203  -6.431   0.000  0.00  0.00    -0.275 OA
ENDBRANCH  21  22
ENDBRANCH  20  21
ENDBRANCH  19  20
TORSDOF 8
