MODEL 1
REMARK VINA RESULT:     -15.8      0.000      0.000
REMARK  Name = 
REMARK  5 active torsions:
REMARK  status: ('A' for Active; 'I' for Inactive)
REMARK    1  A    between atoms: C_5  and  C_6
REMARK    2  A    between atoms: C_6  and  N_7
REMARK    3  A    between atoms: C_16  and  C_21
REMARK    4  A    between atoms: C_24  and  O_25
REMARK    5  A    between atoms: O_25  and  C_26
REMARK                            x       y       z     vdW  Elec       q    Type
REMARK                         _______ _______ _______ _____ _____    ______ ____
ROOT
ATOM      7  N   UNL     1      -3.486   2.974  25.090  0.00  0.00    -0.269 NA
ATOM      8  C   UNL     1      -3.676   3.775  25.230  0.00  0.00    +0.074 C 
ATOM      9  C   UNL     1      -4.649   3.690  25.379  0.00  0.00    +0.039 C 
ATOM     10  C   UNL     1      -5.445   3.789  25.524  0.00  0.00    +0.011 C 
ATOM     11  C   UNL     1      -5.005   3.261  25.380  0.00  0.00    +0.054 C 
ATOM     12  C   UNL     1      -4.066   3.359  25.238  0.00  0.00    +0.078 C 
ATOM     13  C   UNL     1      -4.989   2.351  25.253  0.00  0.00    +0.041 A 
ATOM     14  C   UNL     1      -5.491   1.697  25.246  0.00  0.00    +0.013 A 
ATOM     15  C   UNL     1      -5.186   0.945  25.093  0.00  0.00    +0.006 A 
ATOM     16  C   UNL     1      -4.379   0.849  24.947  0.00  0.00    +0.056 A 
ATOM     17  C   UNL     1      -3.878   1.504  24.954  0.00  0.00    +0.261 A 
ATOM     18  O   UNL     1      -3.072   1.407  24.808  0.00  0.00    -0.267 OA
ATOM     19  N   UNL     1      -4.183   2.255  25.107  0.00  0.00    -0.299 N 
ATOM     20  C   UNL     1      -4.622   2.740  25.245  0.00  0.00    +0.110 C 
ENDROOT
BRANCH  16  21
ATOM     21  C   UNL     1      -4.076   0.098  24.795  0.00  0.00    +0.005 A 
ATOM     22  C   UNL     1      -3.810  -0.374  25.418  0.00  0.00    +0.003 A 
ATOM     23  C   UNL     1      -3.506  -1.125  25.266  0.00  0.00    +0.037 A 
ATOM     24  C   UNL     1      -3.467  -1.406  24.491  0.00  0.00    +0.147 A 
ATOM     30  C   UNL     1      -3.732  -0.935  23.868  0.00  0.00    +0.037 A 
ATOM     31  C   UNL     1      -4.037  -0.182  24.020  0.00  0.00    +0.003 A 
BRANCH  24  25
ATOM     25  O   UNL     1      -3.163  -2.158  24.339  0.00  0.00    -0.404 OA
BRANCH  25  26
ATOM     26  C   UNL     1      -3.622  -2.825  24.488  0.00  0.00    +0.575 C 
ATOM     27  F   UNL     1      -4.082  -3.494  24.638  0.00  0.00    -0.133 F 
ATOM     28  F   UNL     1      -3.272  -2.900  25.231  0.00  0.00    -0.133 F 
ATOM     29  F   UNL     1      -3.973  -2.751  23.746  0.00  0.00    -0.133 F 
ENDBRANCH  25  26
ENDBRANCH  24  25
ENDBRANCH  16  21
BRANCH   7   6
ATOM      6  C   UNL     1      -3.024   2.310  24.923  0.00  0.00    +0.099 C 
BRANCH   6   5
ATOM      1  F   UNL     1       0.223   2.638  24.438  0.00  0.00    -0.204 F 
ATOM      2  C   UNL     1      -0.589   2.556  24.559  0.00  0.00    +0.140 A 
ATOM      3  C   UNL     1      -1.105   2.578  23.917  0.00  0.00    +0.029 A 
ATOM      4  C   UNL     1      -1.918   2.496  24.038  0.00  0.00    -0.001 A 
ATOM      5  C   UNL     1      -2.213   2.392  24.802  0.00  0.00    -0.006 A 
ATOM     32  C   UNL     1      -1.696   2.370  25.444  0.00  0.00    -0.001 A 
ATOM     33  C   UNL     1      -0.883   2.452  25.323  0.00  0.00    +0.029 A 
ENDBRANCH   6   5
ENDBRANCH   7   6
TORSDOF 5
ENDMDL
MODEL 2
REMARK VINA RESULT:     -14.7      1.497      3.766
REMARK  Name = 
REMARK  5 active torsions:
REMARK  status: ('A' for Active; 'I' for Inactive)
REMARK    1  A    between atoms: C_5  and  C_6
REMARK    2  A    between atoms: C_6  and  N_7
REMARK    3  A    between atoms: C_16  and  C_21
REMARK    4  A    between atoms: C_24  and  O_25
REMARK    5  A    between atoms: O_25  and  C_26
REMARK                            x       y       z     vdW  Elec       q    Type
REMARK                         _______ _______ _______ _____ _____    ______ ____
ROOT
ATOM      7  N   UNL     1      -4.589   0.677  24.933  0.00  0.00    -0.269 NA
ATOM      8  C   UNL     1      -5.395   0.796  25.119  0.00  0.00    +0.074 C 
ATOM      9  C   UNL     1      -5.403   1.782  25.195  0.00  0.00    +0.039 C 
ATOM     10  C   UNL     1      -5.574   2.572  25.292  0.00  0.00    +0.011 C 
ATOM     11  C   UNL     1      -5.014   2.178  25.140  0.00  0.00    +0.054 C 
ATOM     12  C   UNL     1      -5.022   1.225  25.070  0.00  0.00    +0.078 C 
ATOM     13  C   UNL     1      -4.118   2.243  24.948  0.00  0.00    +0.041 A 
ATOM     14  C   UNL     1      -3.521   2.805  24.860  0.00  0.00    +0.013 A 
ATOM     15  C   UNL     1      -2.753   2.566  24.674  0.00  0.00    +0.006 A 
ATOM     16  C   UNL     1      -2.583   1.765  24.576  0.00  0.00    +0.056 A 
ATOM     17  C   UNL     1      -3.180   1.202  24.664  0.00  0.00    +0.261 A 
ATOM     18  O   UNL     1      -3.010   0.401  24.566  0.00  0.00    -0.267 OA
ATOM     19  N   UNL     1      -3.947   1.441  24.850  0.00  0.00    -0.299 N 
ATOM     20  C   UNL     1      -4.466   1.840  24.994  0.00  0.00    +0.110 C 
ENDROOT
BRANCH  16  21
ATOM     21  C   UNL     1      -1.816   1.526  24.390  0.00  0.00    +0.005 A 
ATOM     22  C   UNL     1      -1.581   1.473  23.601  0.00  0.00    +0.003 A 
ATOM     23  C   UNL     1      -0.814   1.235  23.414  0.00  0.00    +0.037 A 
ATOM     24  C   UNL     1      -0.281   1.050  24.016  0.00  0.00    +0.147 A 
ATOM     30  C   UNL     1      -0.515   1.103  24.805  0.00  0.00    +0.037 A 
ATOM     31  C   UNL     1      -1.283   1.342  24.992  0.00  0.00    +0.003 A 
BRANCH  24  25
ATOM     25  O   UNL     1       0.487   0.812  23.829  0.00  0.00    -0.404 OA
BRANCH  25  26
ATOM     26  C   UNL     1       0.612   0.098  23.437  0.00  0.00    +0.575 C 
ATOM     27  F   UNL     1       0.738  -0.617  23.044  0.00  0.00    -0.133 F 
ATOM     28  F   UNL     1       0.771   0.509  22.740  0.00  0.00    -0.133 F 
ATOM     29  F   UNL     1       0.453  -0.313  24.134  0.00  0.00    -0.133 F 
ENDBRANCH  25  26
ENDBRANCH  24  25
ENDBRANCH  16  21
BRANCH   7   6
ATOM      6  C   UNL     1      -3.893   0.273  24.750  0.00  0.00    +0.099 C 
BRANCH   6   5
ATOM      1  F   UNL     1      -3.919  -3.016  24.474  0.00  0.00    -0.204 F 
ATOM      2  C   UNL     1      -3.912  -2.193  24.543  0.00  0.00    +0.140 A 
ATOM      3  C   UNL     1      -3.681  -1.841  25.251  0.00  0.00    +0.029 A 
ATOM      4  C   UNL     1      -3.674  -1.019  25.321  0.00  0.00    -0.001 A 
ATOM      5  C   UNL     1      -3.899  -0.549  24.681  0.00  0.00    -0.006 A 
ATOM     32  C   UNL     1      -4.131  -0.902  23.972  0.00  0.00    -0.001 A 
ATOM     33  C   UNL     1      -4.137  -1.724  23.903  0.00  0.00    +0.029 A 
ENDBRANCH   6   5
ENDBRANCH   7   6
TORSDOF 5
ENDMDL
MODEL 3
REMARK VINA RESULT:     -14.5      2.455      4.180
REMARK  Name = 
REMARK  5 active torsions:
REMARK  status: ('A' for Active; 'I' for Inactive)
REMARK    1  A    between atoms: C_5  and  C_6
REMARK    2  A    between atoms: C_6  and  N_7
REMARK    3  A    between atoms: C_16  and  C_21
REMARK    4  A    between atoms: C_24  and  O_25
REMARK    5  A    between atoms: O_25  and  C_26
REMARK                            x       y       z     vdW  Elec       q    Type
REMARK                         _______ _______ _______ _____ _____    ______ ____
ROOT
ATOM      7  N   UNL     1      -1.582  -0.750  24.783  0.00  0.00    -0.269 NA
ATOM      8  C   UNL     1      -1.077  -1.415  24.750  0.00  0.00    +0.074 C 
ATOM      9  C   UNL     1      -1.746  -2.122  24.581  0.00  0.00    +0.039 C 
ATOM     10  C   UNL     1      -2.162  -2.809  24.443  0.00  0.00    +0.011 C 
ATOM     11  C   UNL     1      -2.300  -2.125  24.520  0.00  0.00    +0.054 C 
ATOM     12  C   UNL     1      -1.642  -1.453  24.682  0.00  0.00    +0.078 C 
ATOM     13  C   UNL     1      -2.997  -1.526  24.523  0.00  0.00    +0.041 A 
ATOM     14  C   UNL     1      -3.817  -1.498  24.437  0.00  0.00    +0.013 A 
ATOM     15  C   UNL     1      -4.212  -0.775  24.490  0.00  0.00    +0.006 A 
ATOM     16  C   UNL     1      -3.787  -0.082  24.630  0.00  0.00    +0.056 A 
ATOM     17  C   UNL     1      -2.968  -0.111  24.716  0.00  0.00    +0.261 A 
ATOM     18  O   UNL     1      -2.543   0.583  24.856  0.00  0.00    -0.267 OA
ATOM     19  N   UNL     1      -2.573  -0.833  24.663  0.00  0.00    -0.299 N 
ATOM     20  C   UNL     1      -2.468  -1.490  24.586  0.00  0.00    +0.110 C 
ENDROOT
BRANCH  16  21
ATOM     21  C   UNL     1      -4.183   0.640  24.683  0.00  0.00    +0.005 A 
ATOM     22  C   UNL     1      -4.609   0.827  25.364  0.00  0.00    +0.003 A 
ATOM     23  C   UNL     1      -5.005   1.548  25.418  0.00  0.00    +0.037 A 
ATOM     24  C   UNL     1      -4.975   2.083  24.791  0.00  0.00    +0.147 A 
ATOM     30  C   UNL     1      -4.549   1.897  24.110  0.00  0.00    +0.037 A 
ATOM     31  C   UNL     1      -4.152   1.174  24.056  0.00  0.00    +0.003 A 
BRANCH  24  25
ATOM     25  O   UNL     1      -5.371   2.806  24.845  0.00  0.00    -0.404 OA
BRANCH  25  26
ATOM     26  C   UNL     1      -5.059   3.412  25.307  0.00  0.00    +0.575 C 
ATOM     27  F   UNL     1      -4.748   4.019  25.771  0.00  0.00    -0.133 F 
ATOM     28  F   UNL     1      -5.548   3.186  25.932  0.00  0.00    -0.133 F 
ATOM     29  F   UNL     1      -4.571   3.638  24.683  0.00  0.00    -0.133 F 
ENDBRANCH  25  26
ENDBRANCH  24  25
ENDBRANCH  16  21
BRANCH   7   6
ATOM      6  C   UNL     1      -1.812   0.039  24.863  0.00  0.00    +0.099 C 
BRANCH   6   5
ATOM      1  F   UNL     1       0.466   2.383  25.319  0.00  0.00    -0.204 F 
ATOM      2  C   UNL     1      -0.104   1.797  25.205  0.00  0.00    +0.140 A 
ATOM      3  C   UNL     1      -0.498   1.473  25.853  0.00  0.00    +0.029 A 
ATOM      4  C   UNL     1      -1.068   0.887  25.740  0.00  0.00    -0.001 A 
ATOM      5  C   UNL     1      -1.243   0.624  24.977  0.00  0.00    -0.006 A 
ATOM     32  C   UNL     1      -0.849   0.948  24.329  0.00  0.00    -0.001 A 
ATOM     33  C   UNL     1      -0.279   1.535  24.443  0.00  0.00    +0.029 A 
ENDBRANCH   6   5
ENDBRANCH   7   6
TORSDOF 5
ENDMDL
MODEL 4
REMARK VINA RESULT:     -14.5      2.372      4.737
REMARK  Name = 
REMARK  5 active torsions:
REMARK  status: ('A' for Active; 'I' for Inactive)
REMARK    1  A    between atoms: C_5  and  C_6
REMARK    2  A    between atoms: C_6  and  N_7
REMARK    3  A    between atoms: C_16  and  C_21
REMARK    4  A    between atoms: C_24  and  O_25
REMARK    5  A    between atoms: O_25  and  C_26
REMARK                            x       y       z     vdW  Elec       q    Type
REMARK                         _______ _______ _______ _____ _____    ______ ____
ROOT
ATOM      7  N   UNL     1      -3.915  -0.699  24.437  0.00  0.00    -0.269 NA
ATOM      8  C   UNL     1      -4.494  -1.282  24.284  0.00  0.00    +0.074 C 
ATOM      9  C   UNL     1      -3.921  -2.087  24.275  0.00  0.00    +0.039 C 
ATOM     10  C   UNL     1      -3.595  -2.832  24.237  0.00  0.00    +0.011 C 
ATOM     11  C   UNL     1      -3.375  -2.174  24.346  0.00  0.00    +0.054 C 
ATOM     12  C   UNL     1      -3.942  -1.406  24.351  0.00  0.00    +0.078 C 
ATOM     13  C   UNL     1      -2.614  -1.687  24.515  0.00  0.00    +0.041 A 
ATOM     14  C   UNL     1      -1.803  -1.784  24.624  0.00  0.00    +0.013 A 
ATOM     15  C   UNL     1      -1.325  -1.127  24.770  0.00  0.00    +0.006 A 
ATOM     16  C   UNL     1      -1.659  -0.374  24.808  0.00  0.00    +0.056 A 
ATOM     17  C   UNL     1      -2.471  -0.277  24.699  0.00  0.00    +0.261 A 
ATOM     18  O   UNL     1      -2.805   0.477  24.737  0.00  0.00    -0.267 OA
ATOM     19  N   UNL     1      -2.949  -0.933  24.553  0.00  0.00    -0.299 N 
ATOM     20  C   UNL     1      -3.132  -1.569  24.452  0.00  0.00    +0.110 C 
ENDROOT
BRANCH  16  21
ATOM     21  C   UNL     1      -1.181   0.282  24.955  0.00  0.00    +0.005 A 
ATOM     22  C   UNL     1      -0.810   0.670  24.328  0.00  0.00    +0.003 A 
ATOM     23  C   UNL     1      -0.332   1.326  24.474  0.00  0.00    +0.037 A 
ATOM     24  C   UNL     1      -0.224   1.594  25.246  0.00  0.00    +0.147 A 
ATOM     30  C   UNL     1      -0.595   1.206  25.874  0.00  0.00    +0.037 A 
ATOM     31  C   UNL     1      -1.074   0.550  25.727  0.00  0.00    +0.003 A 
BRANCH  24  25
ATOM     25  O   UNL     1       0.255   2.250  25.393  0.00  0.00    -0.404 OA
BRANCH  25  26
ATOM     26  C   UNL     1      -0.088   2.978  25.569  0.00  0.00    +0.575 C 
ATOM     27  F   UNL     1      -0.432   3.707  25.748  0.00  0.00    -0.133 F 
ATOM     28  F   UNL     1       0.001   2.824  26.375  0.00  0.00    -0.133 F 
ATOM     29  F   UNL     1      -0.178   3.133  24.765  0.00  0.00    -0.133 F 
ENDBRANCH  25  26
ENDBRANCH  24  25
ENDBRANCH  16  21
BRANCH   7   6
ATOM      6  C   UNL     1      -3.592   0.048  24.571  0.00  0.00    +0.099 C 
BRANCH   6   5
ATOM      1  F   UNL     1      -5.566   2.685  24.782  0.00  0.00    -0.204 F 
ATOM      2  C   UNL     1      -5.072   2.026  24.729  0.00  0.00    +0.140 A 
ATOM      3  C   UNL     1      -4.580   1.931  24.075  0.00  0.00    +0.029 A 
ATOM      4  C   UNL     1      -4.086   1.272  24.022  0.00  0.00    -0.001 A 
ATOM      5  C   UNL     1      -4.086   0.707  24.624  0.00  0.00    -0.006 A 
ATOM     32  C   UNL     1      -4.578   0.802  25.278  0.00  0.00    -0.001 A 
ATOM     33  C   UNL     1      -5.072   1.462  25.331  0.00  0.00    +0.029 A 
ENDBRANCH   6   5
ENDBRANCH   7   6
TORSDOF 5
ENDMDL
MODEL 5
REMARK VINA RESULT:     -14.4      1.553      2.932
REMARK  Name = 
REMARK  5 active torsions:
REMARK  status: ('A' for Active; 'I' for Inactive)
REMARK    1  A    between atoms: C_5  and  C_6
REMARK    2  A    between atoms: C_6  and  N_7
REMARK    3  A    between atoms: C_16  and  C_21
REMARK    4  A    between atoms: C_24  and  O_25
REMARK    5  A    between atoms: O_25  and  C_26
REMARK                            x       y       z     vdW  Elec       q    Type
REMARK                         _______ _______ _______ _____ _____    ______ ____
ROOT
ATOM      7  N   UNL     1      -2.205   3.070  25.380  0.00  0.00    -0.269 NA
ATOM      8  C   UNL     1      -1.722   3.728  25.558  0.00  0.00    +0.074 C 
ATOM      9  C   UNL     1      -0.839   3.286  25.575  0.00  0.00    +0.039 C 
ATOM     10  C   UNL     1      -0.053   3.077  25.625  0.00  0.00    +0.011 C 
ATOM     11  C   UNL     1      -0.667   2.761  25.496  0.00  0.00    +0.054 C 
ATOM     12  C   UNL     1      -1.513   3.203  25.483  0.00  0.00    +0.078 C 
ATOM     13  C   UNL     1      -1.027   1.939  25.300  0.00  0.00    +0.041 A 
ATOM     14  C   UNL     1      -0.804   1.154  25.178  0.00  0.00    +0.013 A 
ATOM     15  C   UNL     1      -1.376   0.585  25.006  0.00  0.00    +0.006 A 
ATOM     16  C   UNL     1      -2.171   0.800  24.956  0.00  0.00    +0.056 A 
ATOM     17  C   UNL     1      -2.394   1.585  25.078  0.00  0.00    +0.261 A 
ATOM     18  O   UNL     1      -3.189   1.800  25.029  0.00  0.00    -0.267 OA
ATOM     19  N   UNL     1      -1.822   2.154  25.250  0.00  0.00    -0.299 N 
ATOM     20  C   UNL     1      -1.225   2.431  25.370  0.00  0.00    +0.110 C 
ENDROOT
BRANCH  16  21
ATOM     21  C   UNL     1      -2.741   0.231  24.784  0.00  0.00    +0.005 A 
ATOM     22  C   UNL     1      -3.064  -0.226  25.391  0.00  0.00    +0.003 A 
ATOM     23  C   UNL     1      -3.635  -0.796  25.219  0.00  0.00    +0.037 A 
ATOM     24  C   UNL     1      -3.884  -0.910  24.441  0.00  0.00    +0.147 A 
ATOM     30  C   UNL     1      -3.561  -0.454  23.834  0.00  0.00    +0.037 A 
ATOM     31  C   UNL     1      -2.990   0.117  24.005  0.00  0.00    +0.003 A 
BRANCH  24  25
ATOM     25  O   UNL     1      -4.455  -1.480  24.269  0.00  0.00    -0.404 OA
BRANCH  25  26
ATOM     26  C   UNL     1      -4.225  -2.226  24.004  0.00  0.00    +0.575 C 
ATOM     27  F   UNL     1      -3.995  -2.972  23.737  0.00  0.00    -0.133 F 
ATOM     28  F   UNL     1      -4.347  -1.986  23.224  0.00  0.00    -0.133 F 
ATOM     29  F   UNL     1      -4.103  -2.466  24.783  0.00  0.00    -0.133 F 
ENDBRANCH  25  26
ENDBRANCH  24  25
ENDBRANCH  16  21
BRANCH   7   6
ATOM      6  C   UNL     1      -2.891   2.639  25.221  0.00  0.00    +0.099 C 
BRANCH   6   5
ATOM      1  F   UNL     1      -5.831   4.137  25.279  0.00  0.00    -0.204 F 
ATOM      2  C   UNL     1      -5.096   3.763  25.264  0.00  0.00    +0.140 A 
ATOM      3  C   UNL     1      -4.784   3.441  25.956  0.00  0.00    +0.029 A 
ATOM      4  C   UNL     1      -4.048   3.066  25.942  0.00  0.00    -0.001 A 
ATOM      5  C   UNL     1      -3.625   3.014  25.235  0.00  0.00    -0.006 A 
ATOM     32  C   UNL     1      -3.938   3.336  24.543  0.00  0.00    -0.001 A 
ATOM     33  C   UNL     1      -4.674   3.711  24.557  0.00  0.00    +0.029 A 
ENDBRANCH   6   5
ENDBRANCH   7   6
TORSDOF 5
ENDMDL
MODEL 6
REMARK VINA RESULT:     -14.3      1.905      2.536
REMARK  Name = 
REMARK  5 active torsions:
REMARK  status: ('A' for Active; 'I' for Inactive)
REMARK    1  A    between atoms: C_5  and  C_6
REMARK    2  A    between atoms: C_6  and  N_7
REMARK    3  A    between atoms: C_16  and  C_21
REMARK    4  A    between atoms: C_24  and  O_25
REMARK    5  A    between atoms: O_25  and  C_26
REMARK                            x       y       z     vdW  Elec       q    Type
REMARK                         _______ _______ _______ _____ _____    ______ ____
ROOT
ATOM      7  N   UNL     1      -4.280   2.794  25.187  0.00  0.00    -0.269 NA
ATOM      8  C   UNL     1      -5.021   3.167  25.279  0.00  0.00    +0.074 C 
ATOM      9  C   UNL     1      -5.615   2.385  25.169  0.00  0.00    +0.039 C 
ATOM     10  C   UNL     1      -6.228   1.854  25.102  0.00  0.00    +0.011 C 
ATOM     11  C   UNL     1      -5.527   1.843  25.073  0.00  0.00    +0.054 C 
ATOM     12  C   UNL     1      -4.967   2.608  25.182  0.00  0.00    +0.078 C 
ATOM     13  C   UNL     1      -4.820   1.270  24.947  0.00  0.00    +0.041 A 
ATOM     14  C   UNL     1      -4.658   0.474  24.805  0.00  0.00    +0.013 A 
ATOM     15  C   UNL     1      -3.877   0.219  24.731  0.00  0.00    +0.006 A 
ATOM     16  C   UNL     1      -3.258   0.760  24.800  0.00  0.00    +0.056 A 
ATOM     17  C   UNL     1      -3.420   1.556  24.942  0.00  0.00    +0.261 A 
ATOM     18  O   UNL     1      -2.800   2.097  25.011  0.00  0.00    -0.267 OA
ATOM     19  N   UNL     1      -4.201   1.811  25.016  0.00  0.00    -0.299 N 
ATOM     20  C   UNL     1      -4.869   1.794  25.039  0.00  0.00    +0.110 C 
ENDROOT
BRANCH  16  21
ATOM     21  C   UNL     1      -2.477   0.504  24.726  0.00  0.00    +0.005 A 
ATOM     22  C   UNL     1      -2.096   0.551  23.996  0.00  0.00    +0.003 A 
ATOM     23  C   UNL     1      -1.315   0.296  23.921  0.00  0.00    +0.037 A 
ATOM     24  C   UNL     1      -0.916  -0.007  24.576  0.00  0.00    +0.147 A 
ATOM     30  C   UNL     1      -1.296  -0.054  25.306  0.00  0.00    +0.037 A 
ATOM     31  C   UNL     1      -2.078   0.202  25.381  0.00  0.00    +0.003 A 
BRANCH  24  25
ATOM     25  O   UNL     1      -0.134  -0.263  24.502  0.00  0.00    -0.404 OA
BRANCH  25  26
ATOM     26  C   UNL     1       0.189  -0.384  23.753  0.00  0.00    +0.575 C 
ATOM     27  F   UNL     1       0.514  -0.504  23.004  0.00  0.00    -0.133 F 
ATOM     28  F   UNL     1       0.469   0.392  23.749  0.00  0.00    -0.133 F 
ATOM     29  F   UNL     1      -0.090  -1.160  23.758  0.00  0.00    -0.133 F 
ENDBRANCH  25  26
ENDBRANCH  24  25
ENDBRANCH  16  21
BRANCH   7   6
ATOM      6  C   UNL     1      -3.459   2.713  25.141  0.00  0.00    +0.099 C 
BRANCH   6   5
ATOM      1  F   UNL     1      -1.516   5.358  25.485  0.00  0.00    -0.204 F 
ATOM      2  C   UNL     1      -2.003   4.697  25.399  0.00  0.00    +0.140 A 
ATOM      3  C   UNL     1      -2.242   4.456  24.648  0.00  0.00    +0.029 A 
ATOM      4  C   UNL     1      -2.728   3.795  24.561  0.00  0.00    -0.001 A 
ATOM      5  C   UNL     1      -2.974   3.374  25.227  0.00  0.00    -0.006 A 
ATOM     32  C   UNL     1      -2.734   3.615  25.979  0.00  0.00    -0.001 A 
ATOM     33  C   UNL     1      -2.248   4.276  26.065  0.00  0.00    +0.029 A 
ENDBRANCH   6   5
ENDBRANCH   7   6
TORSDOF 5
ENDMDL
