MODEL 1
REMARK VINA RESULT:      -8.7      0.000      0.000
REMARK  Name = 
REMARK  9 active torsions:
REMARK  status: ('A' for Active; 'I' for Inactive)
REMARK    1  A    between atoms: O_2  and  C_3
REMARK    2  A    between atoms: C_3  and  C_4
REMARK    3  A    between atoms: C_4  and  O_5
REMARK    4  A    between atoms: O_5  and  C_6
REMARK    5  A    between atoms: C_9  and  C_12
REMARK    6  A    between atoms: C_15  and  C_17
REMARK    7  A    between atoms: N_21  and  C_22
REMARK    8  A    between atoms: C_22  and  C_23
REMARK    9  A    between atoms: C_26  and  C_27
REMARK                            x       y       z     vdW  Elec       q    Type
REMARK                         _______ _______ _______ _____ _____    ______ ____
ROOT
ATOM     12  C   UNL     1      -1.004   0.087  24.559  0.00  0.00    +0.205 A 
ATOM     13  N   UNL     1      -1.025   0.073  25.384  0.00  0.00    -0.056 NA
ATOM     14  O   UNL     1      -1.816   0.080  25.620  0.00  0.00    -0.336 OA
ATOM     15  C   UNL     1      -2.284   0.099  24.941  0.00  0.00    +0.251 A 
ATOM     16  N   UNL     1      -1.783   0.103  24.285  0.00  0.00    -0.190 NA
ENDROOT
BRANCH  12   9
ATOM      6  C   UNL     1       1.033   0.081  23.154  0.00  0.00    +0.225 A 
ATOM      7  C   UNL     1       0.674   0.795  23.357  0.00  0.00    +0.058 A 
ATOM      8  C   UNL     1      -0.005   0.797  23.826  0.00  0.00    +0.010 A 
ATOM      9  C   UNL     1      -0.325   0.085  24.091  0.00  0.00    +0.058 A 
ATOM     10  C   UNL     1       0.034  -0.630  23.887  0.00  0.00    +0.105 A 
ATOM     11  N   UNL     1       0.713  -0.632  23.418  0.00  0.00    -0.210 NA
BRANCH   6   5
ATOM      5  O   UNL     1       1.712   0.080  22.685  0.00  0.00    -0.457 OA
BRANCH   5   4
ATOM      4  C   UNL     1       2.413   0.404  22.973  0.00  0.00    +0.239 C 
BRANCH   4   3
ATOM      3  C   UNL     1       3.109   0.335  22.535  0.00  0.00    +0.189 C 
BRANCH   3   2
ATOM      1  C   UNL     1       4.487   0.482  22.882  0.00  0.00    +0.174 C 
ATOM      2  O   UNL     1       3.755   0.819  22.708  0.00  0.00    -0.347 OA
ENDBRANCH   3   2
ENDBRANCH   4   3
ENDBRANCH   5   4
ENDBRANCH   6   5
ENDBRANCH  12   9
BRANCH  15  17
ATOM     17  C   UNL     1      -3.109   0.111  24.920  0.00  0.00    +0.138 C 
ATOM     18  C   UNL     1      -3.604  -0.544  24.991  0.00  0.00    +0.027 C 
ATOM     19  C   UNL     1      -4.385  -0.279  24.940  0.00  0.00    +0.019 C 
ATOM     20  C   UNL     1      -4.370   0.539  24.838  0.00  0.00    +0.073 C 
ATOM     21  N   UNL     1      -3.582   0.780  24.826  0.00  0.00    -0.260 NA
BRANCH  21  22
ATOM     22  C   UNL     1      -3.314   1.555  24.736  0.00  0.00    +0.138 C 
BRANCH  22  23
ATOM     23  C   UNL     1      -3.847   2.183  24.771  0.00  0.00    +0.139 A 
ATOM     24  C   UNL     1      -4.211   2.546  24.126  0.00  0.00    +0.037 A 
ATOM     25  C   UNL     1      -4.699   3.146  24.413  0.00  0.00    +0.038 A 
ATOM     26  C   UNL     1      -4.636   3.154  25.236  0.00  0.00    +0.156 A 
ATOM     29  O   UNL     1      -4.109   2.559  25.456  0.00  0.00    -0.458 OA
BRANCH  26  27
ATOM     27  C   UNL     1      -5.030   3.667  25.747  0.00  0.00    +0.246 C 
ATOM     28  O   UNL     1      -5.855   3.706  25.738  0.00  0.00    -0.212 OA
ENDBRANCH  26  27
ENDBRANCH  22  23
ENDBRANCH  21  22
ENDBRANCH  15  17
TORSDOF 9
ENDMDL
MODEL 2
REMARK VINA RESULT:      -8.2      2.398      3.876
REMARK  Name = 
REMARK  9 active torsions:
REMARK  status: ('A' for Active; 'I' for Inactive)
REMARK    1  A    between atoms: O_2  and  C_3
REMARK    2  A    between atoms: C_3  and  C_4
REMARK    3  A    between atoms: C_4  and  O_5
REMARK    4  A    between atoms: O_5  and  C_6
REMARK    5  A    between atoms: C_9  and  C_12
REMARK    6  A    between atoms: C_15  and  C_17
REMARK    7  A    between atoms: N_21  and  C_22
REMARK    8  A    between atoms: C_22  and  C_23
REMARK    9  A    between atoms: C_26  and  C_27
REMARK                            x       y       z     vdW  Elec       q    Type
REMARK                         _______ _______ _______ _____ _____    ______ ____
ROOT
ATOM     12  C   UNL     1      -0.514   1.634  25.293  0.00  0.00    +0.205 A 
ATOM     13  N   UNL     1       0.128   1.939  25.711  0.00  0.00    -0.056 NA
ATOM     14  O   UNL     1       0.054   2.761  25.731  0.00  0.00    -0.336 OA
ATOM     15  C   UNL     1      -0.635   2.964  25.324  0.00  0.00    +0.251 A 
ATOM     16  N   UNL     1      -0.986   2.268  25.053  0.00  0.00    -0.190 NA
ENDROOT
BRANCH  12   9
ATOM      6  C   UNL     1      -0.950  -0.758  24.834  0.00  0.00    +0.225 A 
ATOM      7  C   UNL     1      -1.159  -0.434  25.562  0.00  0.00    +0.058 A 
ATOM      8  C   UNL     1      -1.014   0.364  25.715  0.00  0.00    +0.010 A 
ATOM      9  C   UNL     1      -0.659   0.837  25.140  0.00  0.00    +0.058 A 
ATOM     10  C   UNL     1      -0.451   0.511  24.410  0.00  0.00    +0.105 A 
ATOM     11  N   UNL     1      -0.596  -0.286  24.257  0.00  0.00    -0.210 NA
BRANCH   6   5
ATOM      5  O   UNL     1      -1.096  -1.556  24.681  0.00  0.00    -0.457 OA
BRANCH   5   4
ATOM      4  C   UNL     1      -1.856  -1.807  24.483  0.00  0.00    +0.239 C 
BRANCH   4   3
ATOM      3  C   UNL     1      -2.034  -2.612  24.471  0.00  0.00    +0.189 C 
BRANCH   3   2
ATOM      1  C   UNL     1      -3.404  -3.016  24.510  0.00  0.00    +0.174 C 
ATOM      2  O   UNL     1      -2.712  -2.879  24.083  0.00  0.00    -0.347 OA
ENDBRANCH   3   2
ENDBRANCH   4   3
ENDBRANCH   5   4
ENDBRANCH   6   5
ENDBRANCH  12   9
BRANCH  15  17
ATOM     17  C   UNL     1      -0.922   3.728  25.209  0.00  0.00    +0.138 C 
ATOM     18  C   UNL     1      -0.561   4.318  24.760  0.00  0.00    +0.027 C 
ATOM     19  C   UNL     1      -1.037   4.992  24.796  0.00  0.00    +0.019 C 
ATOM     20  C   UNL     1      -1.691   4.818  25.267  0.00  0.00    +0.073 C 
ATOM     21  N   UNL     1      -1.620   4.037  25.522  0.00  0.00    -0.260 NA
BRANCH  21  22
ATOM     22  C   UNL     1      -2.154   3.635  26.006  0.00  0.00    +0.138 C 
BRANCH  22  23
ATOM     23  C   UNL     1      -2.962   3.786  25.944  0.00  0.00    +0.139 A 
ATOM     24  C   UNL     1      -3.390   4.328  26.394  0.00  0.00    +0.037 A 
ATOM     25  C   UNL     1      -4.177   4.299  26.149  0.00  0.00    +0.038 A 
ATOM     26  C   UNL     1      -4.236   3.738  25.546  0.00  0.00    +0.156 A 
ATOM     29  O   UNL     1      -3.484   3.422  25.420  0.00  0.00    -0.458 OA
BRANCH  26  27
ATOM     27  C   UNL     1      -4.924   3.531  25.142  0.00  0.00    +0.246 C 
ATOM     28  O   UNL     1      -5.586   3.271  25.560  0.00  0.00    -0.212 OA
ENDBRANCH  26  27
ENDBRANCH  22  23
ENDBRANCH  21  22
ENDBRANCH  15  17
TORSDOF 9
ENDMDL
MODEL 3
REMARK VINA RESULT:      -7.9      1.746      2.099
REMARK  Name = 
REMARK  9 active torsions:
REMARK  status: ('A' for Active; 'I' for Inactive)
REMARK    1  A    between atoms: O_2  and  C_3
REMARK    2  A    between atoms: C_3  and  C_4
REMARK    3  A    between atoms: C_4  and  O_5
REMARK    4  A    between atoms: O_5  and  C_6
REMARK    5  A    between atoms: C_9  and  C_12
REMARK    6  A    between atoms: C_15  and  C_17
REMARK    7  A    between atoms: N_21  and  C_22
REMARK    8  A    between atoms: C_22  and  C_23
REMARK    9  A    between atoms: C_26  and  C_27
REMARK                            x       y       z     vdW  Elec       q    Type
REMARK                         _______ _______ _______ _____ _____    ______ ____
ROOT
ATOM     12  C   UNL     1      -0.583   0.537  23.915  0.00  0.00    +0.205 A 
ATOM     13  N   UNL     1      -0.906   0.084  24.524  0.00  0.00    -0.056 NA
ATOM     14  O   UNL     1      -1.659   0.377  24.689  0.00  0.00    -0.336 OA
ATOM     15  C   UNL     1      -1.803   1.011  24.181  0.00  0.00    +0.251 A 
ATOM     16  N   UNL     1      -1.138   1.111  23.703  0.00  0.00    -0.190 NA
ENDROOT
BRANCH  12   9
ATOM      6  C   UNL     1       1.653   0.232  22.900  0.00  0.00    +0.225 A 
ATOM      7  C   UNL     1       1.088  -0.365  22.839  0.00  0.00    +0.058 A 
ATOM      8  C   UNL     1       0.342  -0.264  23.177  0.00  0.00    +0.010 A 
ATOM      9  C   UNL     1       0.162   0.435  23.576  0.00  0.00    +0.058 A 
ATOM     10  C   UNL     1       0.728   1.033  23.637  0.00  0.00    +0.105 A 
ATOM     11  N   UNL     1       1.474   0.931  23.299  0.00  0.00    -0.210 NA
BRANCH   6   5
ATOM      5  O   UNL     1       2.399   0.130  22.562  0.00  0.00    -0.457 OA
BRANCH   5   4
ATOM      4  C   UNL     1       3.054   0.516  22.882  0.00  0.00    +0.239 C 
BRANCH   4   3
ATOM      3  C   UNL     1       3.815   0.279  22.670  0.00  0.00    +0.189 C 
BRANCH   3   2
ATOM      1  C   UNL     1       5.132   0.256  23.225  0.00  0.00    +0.174 C 
ATOM      2  O   UNL     1       4.470   0.680  22.972  0.00  0.00    -0.347 OA
ENDBRANCH   3   2
ENDBRANCH   4   3
ENDBRANCH   5   4
ENDBRANCH   6   5
ENDBRANCH  12   9
BRANCH  15  17
ATOM     17  C   UNL     1      -2.490   1.467  24.157  0.00  0.00    +0.138 C 
ATOM     18  C   UNL     1      -3.126   1.356  23.643  0.00  0.00    +0.027 C 
ATOM     19  C   UNL     1      -3.691   1.934  23.810  0.00  0.00    +0.019 C 
ATOM     20  C   UNL     1      -3.404   2.401  24.427  0.00  0.00    +0.073 C 
ATOM     21  N   UNL     1      -2.662   2.112  24.641  0.00  0.00    -0.260 NA
BRANCH  21  22
ATOM     22  C   UNL     1      -2.177   2.416  25.234  0.00  0.00    +0.138 C 
BRANCH  22  23
ATOM     23  C   UNL     1      -2.150   3.229  25.370  0.00  0.00    +0.139 A 
ATOM     24  C   UNL     1      -2.598   3.643  25.925  0.00  0.00    +0.037 A 
ATOM     25  C   UNL     1      -2.395   4.441  25.872  0.00  0.00    +0.038 A 
ATOM     26  C   UNL     1      -1.822   4.520  25.284  0.00  0.00    +0.156 A 
ATOM     29  O   UNL     1      -1.671   3.771  24.974  0.00  0.00    -0.458 OA
BRANCH  26  27
ATOM     27  C   UNL     1      -1.464   5.224  25.048  0.00  0.00    +0.246 C 
ATOM     28  O   UNL     1      -0.661   5.236  24.858  0.00  0.00    -0.212 OA
ENDBRANCH  26  27
ENDBRANCH  22  23
ENDBRANCH  21  22
ENDBRANCH  15  17
TORSDOF 9
ENDMDL
MODEL 4
REMARK VINA RESULT:      -7.8      1.416      1.973
REMARK  Name = 
REMARK  9 active torsions:
REMARK  status: ('A' for Active; 'I' for Inactive)
REMARK    1  A    between atoms: O_2  and  C_3
REMARK    2  A    between atoms: C_3  and  C_4
REMARK    3  A    between atoms: C_4  and  O_5
REMARK    4  A    between atoms: O_5  and  C_6
REMARK    5  A    between atoms: C_9  and  C_12
REMARK    6  A    between atoms: C_15  and  C_17
REMARK    7  A    between atoms: N_21  and  C_22
REMARK    8  A    between atoms: C_22  and  C_23
REMARK    9  A    between atoms: C_26  and  C_27
REMARK                            x       y       z     vdW  Elec       q    Type
REMARK                         _______ _______ _______ _____ _____    ______ ____
ROOT
ATOM     12  C   UNL     1      -0.538   1.555  24.741  0.00  0.00    +0.205 A 
ATOM     13  N   UNL     1      -0.846   1.195  25.416  0.00  0.00    -0.056 NA
ATOM     14  O   UNL     1      -1.438   1.684  25.719  0.00  0.00    -0.336 OA
ATOM     15  C   UNL     1      -1.496   2.347  25.231  0.00  0.00    +0.251 A 
ATOM     16  N   UNL     1      -0.939   2.267  24.626  0.00  0.00    -0.190 NA
ENDROOT
BRANCH  12   9
ATOM      6  C   UNL     1       1.273   0.660  23.311  0.00  0.00    +0.225 A 
ATOM      7  C   UNL     1       0.560   0.252  23.377  0.00  0.00    +0.058 A 
ATOM      8  C   UNL     1      -0.043   0.550  23.853  0.00  0.00    +0.010 A 
ATOM      9  C   UNL     1       0.066   1.257  24.265  0.00  0.00    +0.058 A 
ATOM     10  C   UNL     1       0.781   1.666  24.199  0.00  0.00    +0.105 A 
ATOM     11  N   UNL     1       1.384   1.367  23.722  0.00  0.00    -0.210 NA
BRANCH   6   5
ATOM      5  O   UNL     1       1.877   0.362  22.834  0.00  0.00    -0.457 OA
BRANCH   5   4
ATOM      4  C   UNL     1       2.650   0.635  22.927  0.00  0.00    +0.239 C 
BRANCH   4   3
ATOM      3  C   UNL     1       3.267   0.267  22.522  0.00  0.00    +0.189 C 
BRANCH   3   2
ATOM      1  C   UNL     1       4.642   0.372  22.897  0.00  0.00    +0.174 C 
ATOM      2  O   UNL     1       3.999   0.644  22.458  0.00  0.00    -0.347 OA
ENDBRANCH   3   2
ENDBRANCH   4   3
ENDBRANCH   5   4
ENDBRANCH   6   5
ENDBRANCH  12   9
BRANCH  15  17
ATOM     17  C   UNL     1      -2.018   2.977  25.330  0.00  0.00    +0.138 C 
ATOM     18  C   UNL     1      -1.830   3.716  25.645  0.00  0.00    +0.027 C 
ATOM     19  C   UNL     1      -2.516   4.176  25.640  0.00  0.00    +0.019 C 
ATOM     20  C   UNL     1      -3.126   3.721  25.322  0.00  0.00    +0.073 C 
ATOM     21  N   UNL     1      -2.818   2.980  25.130  0.00  0.00    -0.260 NA
BRANCH  21  22
ATOM     22  C   UNL     1      -3.237   2.353  24.797  0.00  0.00    +0.138 C 
BRANCH  22  23
ATOM     23  C   UNL     1      -4.059   2.324  24.864  0.00  0.00    +0.139 A 
ATOM     24  C   UNL     1      -4.601   2.519  24.274  0.00  0.00    +0.037 A 
ATOM     25  C   UNL     1      -5.360   2.410  24.578  0.00  0.00    +0.038 A 
ATOM     26  C   UNL     1      -5.287   2.147  25.358  0.00  0.00    +0.156 A 
ATOM     29  O   UNL     1      -4.482   2.094  25.534  0.00  0.00    -0.458 OA
BRANCH  26  27
ATOM     27  C   UNL     1      -5.908   1.970  25.869  0.00  0.00    +0.246 C 
ATOM     28  O   UNL     1      -6.120   2.502  26.463  0.00  0.00    -0.212 OA
ENDBRANCH  26  27
ENDBRANCH  22  23
ENDBRANCH  21  22
ENDBRANCH  15  17
TORSDOF 9
ENDMDL
MODEL 5
REMARK VINA RESULT:      -7.7      2.184      4.988
REMARK  Name = 
REMARK  9 active torsions:
REMARK  status: ('A' for Active; 'I' for Inactive)
REMARK    1  A    between atoms: O_2  and  C_3
REMARK    2  A    between atoms: C_3  and  C_4
REMARK    3  A    between atoms: C_4  and  O_5
REMARK    4  A    between atoms: O_5  and  C_6
REMARK    5  A    between atoms: C_9  and  C_12
REMARK    6  A    between atoms: C_15  and  C_17
REMARK    7  A    between atoms: N_21  and  C_22
REMARK    8  A    between atoms: C_22  and  C_23
REMARK    9  A    between atoms: C_26  and  C_27
REMARK                            x       y       z     vdW  Elec       q    Type
REMARK                         _______ _______ _______ _____ _____    ______ ____
ROOT
ATOM     12  C   UNL     1      -4.146   1.069  24.757  0.00  0.00    +0.205 A 
ATOM     13  N   UNL     1      -4.863   0.791  25.056  0.00  0.00    -0.056 NA
ATOM     14  O   UNL     1      -4.882  -0.028  24.953  0.00  0.00    -0.336 OA
ATOM     15  C   UNL     1      -4.177  -0.256  24.591  0.00  0.00    +0.251 A 
ATOM     16  N   UNL     1      -3.722   0.422  24.470  0.00  0.00    -0.190 NA
ENDROOT
BRANCH  12   9
ATOM      6  C   UNL     1      -3.400   3.428  24.728  0.00  0.00    +0.225 A 
ATOM      7  C   UNL     1      -3.490   3.016  24.020  0.00  0.00    +0.058 A 
ATOM      8  C   UNL     1      -3.739   2.230  24.030  0.00  0.00    +0.010 A 
ATOM      9  C   UNL     1      -3.898   1.855  24.747  0.00  0.00    +0.058 A 
ATOM     10  C   UNL     1      -3.807   2.269  25.457  0.00  0.00    +0.105 A 
ATOM     11  N   UNL     1      -3.558   3.055  25.447  0.00  0.00    -0.210 NA
BRANCH   6   5
ATOM      5  O   UNL     1      -3.151   4.215  24.718  0.00  0.00    -0.457 OA
BRANCH   5   4
ATOM      4  C   UNL     1      -2.437   4.426  25.073  0.00  0.00    +0.239 C 
BRANCH   4   3
ATOM      3  C   UNL     1      -2.089   5.153  24.896  0.00  0.00    +0.189 C 
BRANCH   3   2
ATOM      1  C   UNL     1      -0.675   5.332  24.799  0.00  0.00    +0.174 C 
ATOM      2  O   UNL     1      -1.369   5.361  25.243  0.00  0.00    -0.347 OA
ENDBRANCH   3   2
ENDBRANCH   4   3
ENDBRANCH   5   4
ENDBRANCH   6   5
ENDBRANCH  12   9
BRANCH  15  17
ATOM     17  C   UNL     1      -3.963  -1.026  24.386  0.00  0.00    +0.138 C 
ATOM     18  C   UNL     1      -4.382  -1.526  23.882  0.00  0.00    +0.027 C 
ATOM     19  C   UNL     1      -3.971  -2.240  23.833  0.00  0.00    +0.019 C 
ATOM     20  C   UNL     1      -3.299  -2.180  24.307  0.00  0.00    +0.073 C 
ATOM     21  N   UNL     1      -3.294  -1.430  24.648  0.00  0.00    -0.260 NA
BRANCH  21  22
ATOM     22  C   UNL     1      -2.720  -1.135  25.163  0.00  0.00    +0.138 C 
BRANCH  22  23
ATOM     23  C   UNL     1      -1.923  -1.294  25.025  0.00  0.00    +0.139 A 
ATOM     24  C   UNL     1      -1.487  -1.912  25.354  0.00  0.00    +0.037 A 
ATOM     25  C   UNL     1      -0.715  -1.863  25.067  0.00  0.00    +0.038 A 
ATOM     26  C   UNL     1      -0.673  -1.212  24.561  0.00  0.00    +0.156 A 
ATOM     29  O   UNL     1      -1.420  -0.861  24.535  0.00  0.00    -0.458 OA
BRANCH  26  27
ATOM     27  C   UNL     1      -0.004  -0.959  24.153  0.00  0.00    +0.246 C 
ATOM     28  O   UNL     1      -0.001  -0.223  23.779  0.00  0.00    -0.212 OA
ENDBRANCH  26  27
ENDBRANCH  22  23
ENDBRANCH  21  22
ENDBRANCH  15  17
TORSDOF 9
ENDMDL
MODEL 6
REMARK VINA RESULT:      -7.7      1.726      2.895
REMARK  Name = 
REMARK  9 active torsions:
REMARK  status: ('A' for Active; 'I' for Inactive)
REMARK    1  A    between atoms: O_2  and  C_3
REMARK    2  A    between atoms: C_3  and  C_4
REMARK    3  A    between atoms: C_4  and  O_5
REMARK    4  A    between atoms: O_5  and  C_6
REMARK    5  A    between atoms: C_9  and  C_12
REMARK    6  A    between atoms: C_15  and  C_17
REMARK    7  A    between atoms: N_21  and  C_22
REMARK    8  A    between atoms: C_22  and  C_23
REMARK    9  A    between atoms: C_26  and  C_27
REMARK                            x       y       z     vdW  Elec       q    Type
REMARK                         _______ _______ _______ _____ _____    ______ ____
ROOT
ATOM     12  C   UNL     1      -0.228   1.054  24.137  0.00  0.00    +0.205 A 
ATOM     13  N   UNL     1      -0.321   1.418  24.871  0.00  0.00    -0.056 NA
ATOM     14  O   UNL     1      -1.129   1.464  25.033  0.00  0.00    -0.336 OA
ATOM     15  C   UNL     1      -1.536   1.128  24.398  0.00  0.00    +0.251 A 
ATOM     16  N   UNL     1      -0.979   0.874  23.845  0.00  0.00    -0.190 NA
ENDROOT
BRANCH  12   9
ATOM      6  C   UNL     1       1.923   0.580  23.010  0.00  0.00    +0.225 A 
ATOM      7  C   UNL     1       1.309   0.032  22.971  0.00  0.00    +0.058 A 
ATOM      8  C   UNL     1       0.591   0.190  23.347  0.00  0.00    +0.010 A 
ATOM      9  C   UNL     1       0.489   0.896  23.761  0.00  0.00    +0.058 A 
ATOM     10  C   UNL     1       1.105   1.444  23.800  0.00  0.00    +0.105 A 
ATOM     11  N   UNL     1       1.822   1.286  23.424  0.00  0.00    -0.210 NA
BRANCH   6   5
ATOM      5  O   UNL     1       2.641   0.422  22.634  0.00  0.00    -0.457 OA
BRANCH   5   4
ATOM      4  C   UNL     1       3.350   0.660  22.981  0.00  0.00    +0.239 C 
BRANCH   4   3
ATOM      3  C   UNL     1       4.065   0.356  22.705  0.00  0.00    +0.189 C 
BRANCH   3   2
ATOM      1  C   UNL     1       5.325   0.073  23.318  0.00  0.00    +0.174 C 
ATOM      2  O   UNL     1       4.778   0.619  23.029  0.00  0.00    -0.347 OA
ENDBRANCH   3   2
ENDBRANCH   4   3
ENDBRANCH   5   4
ENDBRANCH   6   5
ENDBRANCH  12   9
BRANCH  15  17
ATOM     17  C   UNL     1      -2.355   1.058  24.329  0.00  0.00    +0.138 C 
ATOM     18  C   UNL     1      -2.853   1.582  23.933  0.00  0.00    +0.027 C 
ATOM     19  C   UNL     1      -3.626   1.299  24.003  0.00  0.00    +0.019 C 
ATOM     20  C   UNL     1      -3.604   0.602  24.443  0.00  0.00    +0.073 C 
ATOM     21  N   UNL     1      -2.818   0.453  24.645  0.00  0.00    -0.260 NA
BRANCH  21  22
ATOM     22  C   UNL     1      -2.544  -0.189  25.084  0.00  0.00    +0.138 C 
BRANCH  22  23
ATOM     23  C   UNL     1      -2.962  -0.900  25.080  0.00  0.00    +0.139 A 
ATOM     24  C   UNL     1      -3.424  -1.194  25.696  0.00  0.00    +0.037 A 
ATOM     25  C   UNL     1      -3.739  -1.918  25.457  0.00  0.00    +0.038 A 
ATOM     26  C   UNL     1      -3.470  -2.071  24.692  0.00  0.00    +0.156 A 
ATOM     29  O   UNL     1      -2.990  -1.442  24.459  0.00  0.00    -0.458 OA
BRANCH  26  27
ATOM     27  C   UNL     1      -3.650  -2.737  24.239  0.00  0.00    +0.246 C 
ATOM     28  O   UNL     1      -4.314  -2.736  23.749  0.00  0.00    -0.212 OA
ENDBRANCH  26  27
ENDBRANCH  22  23
ENDBRANCH  21  22
ENDBRANCH  15  17
TORSDOF 9
ENDMDL
MODEL 7
REMARK VINA RESULT:      -7.6      2.933      4.973
REMARK  Name = 
REMARK  9 active torsions:
REMARK  status: ('A' for Active; 'I' for Inactive)
REMARK    1  A    between atoms: O_2  and  C_3
REMARK    2  A    between atoms: C_3  and  C_4
REMARK    3  A    between atoms: C_4  and  O_5
REMARK    4  A    between atoms: O_5  and  C_6
REMARK    5  A    between atoms: C_9  and  C_12
REMARK    6  A    between atoms: C_15  and  C_17
REMARK    7  A    between atoms: N_21  and  C_22
REMARK    8  A    between atoms: C_22  and  C_23
REMARK    9  A    between atoms: C_26  and  C_27
REMARK                            x       y       z     vdW  Elec       q    Type
REMARK                         _______ _______ _______ _____ _____    ______ ____
ROOT
ATOM     12  C   UNL     1      -4.156   1.769  24.521  0.00  0.00    +0.205 A 
ATOM     13  N   UNL     1      -4.555   2.338  24.077  0.00  0.00    -0.056 NA
ATOM     14  O   UNL     1      -4.367   3.080  24.385  0.00  0.00    -0.336 OA
ATOM     15  C   UNL     1      -3.850   2.970  25.019  0.00  0.00    +0.251 A 
ATOM     16  N   UNL     1      -3.720   2.159  25.103  0.00  0.00    -0.190 NA
ENDROOT
BRANCH  12   9
ATOM      6  C   UNL     1      -4.247  -0.679  24.169  0.00  0.00    +0.225 A 
ATOM      7  C   UNL     1      -4.695  -0.332  24.767  0.00  0.00    +0.058 A 
ATOM      8  C   UNL     1      -4.665   0.484  24.885  0.00  0.00    +0.010 A 
ATOM      9  C   UNL     1      -4.186   0.953  24.404  0.00  0.00    +0.058 A 
ATOM     10  C   UNL     1      -3.737   0.605  23.805  0.00  0.00    +0.105 A 
ATOM     11  N   UNL     1      -3.767  -0.211  23.687  0.00  0.00    -0.210 NA
BRANCH   6   5
ATOM      5  O   UNL     1      -4.277  -1.495  24.052  0.00  0.00    -0.457 OA
BRANCH   5   4
ATOM      4  C   UNL     1      -3.797  -1.995  24.499  0.00  0.00    +0.239 C 
BRANCH   4   3
ATOM      3  C   UNL     1      -3.573  -2.729  24.197  0.00  0.00    +0.189 C 
BRANCH   3   2
ATOM      1  C   UNL     1      -2.235  -3.162  24.450  0.00  0.00    +0.174 C 
ATOM      2  O   UNL     1      -3.042  -3.203  24.615  0.00  0.00    -0.347 OA
ENDBRANCH   3   2
ENDBRANCH   4   3
ENDBRANCH   5   4
ENDBRANCH   6   5
ENDBRANCH  12   9
BRANCH  15  17
ATOM     17  C   UNL     1      -3.522   3.565  25.486  0.00  0.00    +0.138 C 
ATOM     18  C   UNL     1      -3.896   3.952  26.110  0.00  0.00    +0.027 C 
ATOM     19  C   UNL     1      -3.367   4.504  26.421  0.00  0.00    +0.019 C 
ATOM     20  C   UNL     1      -2.667   4.457  25.989  0.00  0.00    +0.073 C 
ATOM     21  N   UNL     1      -2.762   3.877  25.411  0.00  0.00    -0.260 NA
BRANCH  21  22
ATOM     22  C   UNL     1      -2.197   3.649  24.856  0.00  0.00    +0.138 C 
BRANCH  22  23
ATOM     23  C   UNL     1      -1.412   3.543  25.085  0.00  0.00    +0.139 A 
ATOM     24  C   UNL     1      -0.801   4.090  24.995  0.00  0.00    +0.037 A 
ATOM     25  C   UNL     1      -0.111   3.756  25.299  0.00  0.00    +0.038 A 
ATOM     26  C   UNL     1      -0.296   3.001  25.579  0.00  0.00    +0.156 A 
ATOM     29  O   UNL     1      -1.099   2.870  25.446  0.00  0.00    -0.458 OA
BRANCH  26  27
ATOM     27  C   UNL     1       0.231   2.473  25.929  0.00  0.00    +0.246 C 
ATOM     28  O   UNL     1       0.621   2.678  26.626  0.00  0.00    -0.212 OA
ENDBRANCH  26  27
ENDBRANCH  22  23
ENDBRANCH  21  22
ENDBRANCH  15  17
TORSDOF 9
ENDMDL
MODEL 8
REMARK VINA RESULT:      -7.3      1.981      5.732
REMARK  Name = 
REMARK  9 active torsions:
REMARK  status: ('A' for Active; 'I' for Inactive)
REMARK    1  A    between atoms: O_2  and  C_3
REMARK    2  A    between atoms: C_3  and  C_4
REMARK    3  A    between atoms: C_4  and  O_5
REMARK    4  A    between atoms: O_5  and  C_6
REMARK    5  A    between atoms: C_9  and  C_12
REMARK    6  A    between atoms: C_15  and  C_17
REMARK    7  A    between atoms: N_21  and  C_22
REMARK    8  A    between atoms: C_22  and  C_23
REMARK    9  A    between atoms: C_26  and  C_27
REMARK                            x       y       z     vdW  Elec       q    Type
REMARK                         _______ _______ _______ _____ _____    ______ ____
ROOT
ATOM     12  C   UNL     1      -1.023   2.281  24.616  0.00  0.00    +0.205 A 
ATOM     13  N   UNL     1      -0.255   2.502  24.822  0.00  0.00    -0.056 NA
ATOM     14  O   UNL     1       0.259   1.909  24.569  0.00  0.00    -0.336 OA
ATOM     15  C   UNL     1      -0.191   1.320  24.206  0.00  0.00    +0.251 A 
ATOM     16  N   UNL     1      -0.983   1.550  24.234  0.00  0.00    -0.190 NA
ENDROOT
BRANCH  12   9
ATOM      6  C   UNL     1      -3.082   3.580  25.060  0.00  0.00    +0.225 A 
ATOM      7  C   UNL     1      -2.494   3.530  25.636  0.00  0.00    +0.058 A 
ATOM      8  C   UNL     1      -1.808   3.097  25.488  0.00  0.00    +0.010 A 
ATOM      9  C   UNL     1      -1.709   2.714  24.764  0.00  0.00    +0.058 A 
ATOM     10  C   UNL     1      -2.298   2.765  24.187  0.00  0.00    +0.105 A 
ATOM     11  N   UNL     1      -2.984   3.198  24.336  0.00  0.00    -0.210 NA
BRANCH   6   5
ATOM      5  O   UNL     1      -3.768   4.013  25.209  0.00  0.00    -0.457 OA
BRANCH   5   4
ATOM      4  C   UNL     1      -4.392   3.669  25.624  0.00  0.00    +0.239 C 
BRANCH   4   3
ATOM      3  C   UNL     1      -5.169   3.892  25.459  0.00  0.00    +0.189 C 
BRANCH   3   2
ATOM      1  C   UNL     1      -6.139   2.882  25.743  0.00  0.00    +0.174 C 
ATOM      2  O   UNL     1      -5.788   3.606  25.925  0.00  0.00    -0.347 OA
ENDBRANCH   3   2
ENDBRANCH   4   3
ENDBRANCH   5   4
ENDBRANCH   6   5
ENDBRANCH  12   9
BRANCH  15  17
ATOM     17  C   UNL     1       0.099   0.624  23.872  0.00  0.00    +0.138 C 
ATOM     18  C   UNL     1       0.593   0.572  23.214  0.00  0.00    +0.027 C 
ATOM     19  C   UNL     1       0.746  -0.227  23.073  0.00  0.00    +0.019 C 
ATOM     20  C   UNL     1       0.347  -0.668  23.645  0.00  0.00    +0.073 C 
ATOM     21  N   UNL     1      -0.053  -0.142  24.139  0.00  0.00    -0.260 NA
BRANCH  21  22
ATOM     22  C   UNL     1      -0.522  -0.346  24.785  0.00  0.00    +0.138 C 
BRANCH  22  23
ATOM     23  C   UNL     1      -0.902  -1.078  24.804  0.00  0.00    +0.139 A 
ATOM     24  C   UNL     1      -0.614  -1.765  25.158  0.00  0.00    +0.037 A 
ATOM     25  C   UNL     1      -1.171  -2.363  25.046  0.00  0.00    +0.038 A 
ATOM     26  C   UNL     1      -1.804  -2.045  24.622  0.00  0.00    +0.156 A 
ATOM     29  O   UNL     1      -1.638  -1.251  24.474  0.00  0.00    -0.458 OA
BRANCH  26  27
ATOM     27  C   UNL     1      -2.483  -2.450  24.390  0.00  0.00    +0.246 C 
ATOM     28  O   UNL     1      -3.093  -2.580  24.930  0.00  0.00    -0.212 OA
ENDBRANCH  26  27
ENDBRANCH  22  23
ENDBRANCH  21  22
ENDBRANCH  15  17
TORSDOF 9
ENDMDL
MODEL 9
REMARK VINA RESULT:      -7.3      2.883      4.098
REMARK  Name = 
REMARK  9 active torsions:
REMARK  status: ('A' for Active; 'I' for Inactive)
REMARK    1  A    between atoms: O_2  and  C_3
REMARK    2  A    between atoms: C_3  and  C_4
REMARK    3  A    between atoms: C_4  and  O_5
REMARK    4  A    between atoms: O_5  and  C_6
REMARK    5  A    between atoms: C_9  and  C_12
REMARK    6  A    between atoms: C_15  and  C_17
REMARK    7  A    between atoms: N_21  and  C_22
REMARK    8  A    between atoms: C_22  and  C_23
REMARK    9  A    between atoms: C_26  and  C_27
REMARK                            x       y       z     vdW  Elec       q    Type
REMARK                         _______ _______ _______ _____ _____    ______ ____
ROOT
ATOM     12  C   UNL     1      -1.985   2.237  25.013  0.00  0.00    +0.205 A 
ATOM     13  N   UNL     1      -2.125   2.498  24.243  0.00  0.00    -0.056 NA
ATOM     14  O   UNL     1      -2.886   2.260  24.027  0.00  0.00    -0.336 OA
ATOM     15  C   UNL     1      -3.215   1.851  24.663  0.00  0.00    +0.251 A 
ATOM     16  N   UNL     1      -2.659   1.837  25.273  0.00  0.00    -0.190 NA
ENDROOT
BRANCH  12   9
ATOM      6  C   UNL     1       0.091   2.589  26.314  0.00  0.00    +0.225 A 
ATOM      7  C   UNL     1      -0.371   3.235  26.092  0.00  0.00    +0.058 A 
ATOM      8  C   UNL     1      -1.063   3.117  25.658  0.00  0.00    +0.010 A 
ATOM      9  C   UNL     1      -1.293   2.354  25.446  0.00  0.00    +0.058 A 
ATOM     10  C   UNL     1      -0.831   1.707  25.669  0.00  0.00    +0.105 A 
ATOM     11  N   UNL     1      -0.139   1.825  26.103  0.00  0.00    -0.210 NA
BRANCH   6   5
ATOM      5  O   UNL     1       0.782   2.706  26.748  0.00  0.00    -0.457 OA
BRANCH   5   4
ATOM      4  C   UNL     1       0.803   2.521  27.551  0.00  0.00    +0.239 C 
BRANCH   4   3
ATOM      3  C   UNL     1       1.471   2.704  27.999  0.00  0.00    +0.189 C 
BRANCH   3   2
ATOM      1  C   UNL     1       2.178   2.617  29.237  0.00  0.00    +0.174 C 
ATOM      2  O   UNL     1       1.474   2.562  28.812  0.00  0.00    -0.347 OA
ENDBRANCH   3   2
ENDBRANCH   4   3
ENDBRANCH   5   4
ENDBRANCH   6   5
ENDBRANCH  12   9
BRANCH  15  17
ATOM     17  C   UNL     1      -3.968   1.516  24.687  0.00  0.00    +0.138 C 
ATOM     18  C   UNL     1      -4.645   1.867  25.001  0.00  0.00    +0.027 C 
ATOM     19  C   UNL     1      -5.272   1.339  24.908  0.00  0.00    +0.019 C 
ATOM     20  C   UNL     1      -4.982   0.662  24.537  0.00  0.00    +0.073 C 
ATOM     21  N   UNL     1      -4.177   0.771  24.400  0.00  0.00    -0.260 NA
BRANCH  21  22
ATOM     22  C   UNL     1      -3.669   0.231  24.039  0.00  0.00    +0.138 C 
BRANCH  22  23
ATOM     23  C   UNL     1      -3.773  -0.578  24.162  0.00  0.00    +0.139 A 
ATOM     24  C   UNL     1      -4.214  -1.088  23.687  0.00  0.00    +0.037 A 
ATOM     25  C   UNL     1      -4.168  -1.845  24.011  0.00  0.00    +0.038 A 
ATOM     26  C   UNL     1      -3.698  -1.803  24.688  0.00  0.00    +0.156 A 
ATOM     29  O   UNL     1      -3.454  -1.020  24.781  0.00  0.00    -0.458 OA
BRANCH  26  27
ATOM     27  C   UNL     1      -3.506  -2.433  25.184  0.00  0.00    +0.246 C 
ATOM     28  O   UNL     1      -3.476  -3.201  24.885  0.00  0.00    -0.212 OA
ENDBRANCH  26  27
ENDBRANCH  22  23
ENDBRANCH  21  22
ENDBRANCH  15  17
TORSDOF 9
ENDMDL
MODEL 10
REMARK VINA RESULT:      -6.2     15.943     18.246
REMARK  Name = 
REMARK  9 active torsions:
REMARK  status: ('A' for Active; 'I' for Inactive)
REMARK    1  A    between atoms: O_2  and  C_3
REMARK    2  A    between atoms: C_3  and  C_4
REMARK    3  A    between atoms: C_4  and  O_5
REMARK    4  A    between atoms: O_5  and  C_6
REMARK    5  A    between atoms: C_9  and  C_12
REMARK    6  A    between atoms: C_15  and  C_17
REMARK    7  A    between atoms: N_21  and  C_22
REMARK    8  A    between atoms: C_22  and  C_23
REMARK    9  A    between atoms: C_26  and  C_27
REMARK                            x       y       z     vdW  Elec       q    Type
REMARK                         _______ _______ _______ _____ _____    ______ ____
ROOT
ATOM     12  C   UNL     1      12.780   7.751  20.403  0.00  0.00    +0.205 A 
ATOM     13  N   UNL     1      12.668   7.219  21.023  0.00  0.00    -0.056 NA
ATOM     14  O   UNL     1      13.333   7.252  21.511  0.00  0.00    -0.336 OA
ATOM     15  C   UNL     1      13.856   7.805  21.194  0.00  0.00    +0.251 A 
ATOM     16  N   UNL     1      13.514   8.114  20.509  0.00  0.00    -0.190 NA
ENDROOT
BRANCH  12   9
ATOM      6  C   UNL     1      11.195   8.187  18.553  0.00  0.00    +0.225 A 
ATOM      7  C   UNL     1      11.048   8.495  19.303  0.00  0.00    +0.058 A 
ATOM      8  C   UNL     1      11.576   8.350  19.920  0.00  0.00    +0.010 A 
ATOM      9  C   UNL     1      12.252   7.897  19.787  0.00  0.00    +0.058 A 
ATOM     10  C   UNL     1      12.400   7.588  19.035  0.00  0.00    +0.105 A 
ATOM     11  N   UNL     1      11.871   7.733  18.418  0.00  0.00    -0.210 NA
BRANCH   6   5
ATOM      5  O   UNL     1      10.667   8.332  17.936  0.00  0.00    -0.457 OA
BRANCH   5   4
ATOM      4  C   UNL     1      10.921   8.731  17.260  0.00  0.00    +0.239 C 
BRANCH   4   3
ATOM      3  C   UNL     1      10.629   8.513  16.520  0.00  0.00    +0.189 C 
BRANCH   3   2
ATOM      1  C   UNL     1      10.724   9.079  15.212  0.00  0.00    +0.174 C 
ATOM      2  O   UNL     1      10.412   9.094  15.975  0.00  0.00    -0.347 OA
ENDBRANCH   3   2
ENDBRANCH   4   3
ENDBRANCH   5   4
ENDBRANCH   6   5
ENDBRANCH  12   9
BRANCH  15  17
ATOM     17  C   UNL     1      14.590   8.013  21.506  0.00  0.00    +0.138 C 
ATOM     18  C   UNL     1      14.767   8.714  21.901  0.00  0.00    +0.027 C 
ATOM     19  C   UNL     1      15.564   8.691  22.117  0.00  0.00    +0.019 C 
ATOM     20  C   UNL     1      15.878   7.975  21.854  0.00  0.00    +0.073 C 
ATOM     21  N   UNL     1      15.277   7.556  21.477  0.00  0.00    -0.260 NA
BRANCH  21  22
ATOM     22  C   UNL     1      15.349   6.811  21.131  0.00  0.00    +0.138 C 
BRANCH  22  23
ATOM     23  C   UNL     1      16.061   6.585  20.783  0.00  0.00    +0.139 A 
ATOM     24  C   UNL     1      16.785   6.500  21.169  0.00  0.00    +0.037 A 
ATOM     25  C   UNL     1      17.347   6.267  20.612  0.00  0.00    +0.038 A 
ATOM     26  C   UNL     1      16.970   6.208  19.880  0.00  0.00    +0.156 A 
ATOM     29  O   UNL     1      16.176   6.405  19.986  0.00  0.00    -0.458 OA
BRANCH  26  27
ATOM     27  C   UNL     1      17.325   5.990  19.169  0.00  0.00    +0.246 C 
ATOM     28  O   UNL     1      16.866   5.691  18.552  0.00  0.00    -0.212 OA
ENDBRANCH  26  27
ENDBRANCH  22  23
ENDBRANCH  21  22
ENDBRANCH  15  17
TORSDOF 9
ENDMDL
