MODEL 1
REMARK VINA RESULT:     -11.9      0.000      0.000
REMARK  Name = 
REMARK  4 active torsions:
REMARK  status: ('A' for Active; 'I' for Inactive)
REMARK    1  A    between atoms: C_4  and  C_15
REMARK    2  A    between atoms: N_5  and  C_6
REMARK    3  A    between atoms: C_6  and  C_7
REMARK    4  A    between atoms: C_17  and  C_20
REMARK                            x       y       z     vdW  Elec       q    Type
REMARK                         _______ _______ _______ _____ _____    ______ ____
ROOT
ATOM      1  O   UNL     1      -6.256   1.440  25.753  0.00  0.00    -0.222 OA
ATOM      2  C   UNL     1      -5.520   1.481  25.383  0.00  0.00    +0.170 C 
ATOM      3  C   UNL     1      -5.111   2.173  25.196  0.00  0.00    +0.060 C 
ATOM      4  C   UNL     1      -4.402   1.957  24.831  0.00  0.00    +0.140 C 
ATOM      5  N   UNL     1      -4.375   1.133  24.793  0.00  0.00    -0.260 NA
ATOM     14  C   UNL     1      -5.067   0.840  25.134  0.00  0.00    +0.106 C 
ENDROOT
BRANCH   4  15
ATOM     15  C   UNL     1      -3.823   2.475  24.554  0.00  0.00    +0.251 A 
ATOM     16  N   UNL     1      -3.209   2.799  24.999  0.00  0.00    -0.190 NA
ATOM     17  C   UNL     1      -2.763   3.284  24.502  0.00  0.00    +0.205 A 
ATOM     18  N   UNL     1      -3.100   3.259  23.750  0.00  0.00    -0.056 NA
ATOM     19  O   UNL     1      -3.756   2.759  23.782  0.00  0.00    -0.336 OA
BRANCH  17  20
ATOM     20  C   UNL     1      -2.095   3.718  24.720  0.00  0.00    +0.058 A 
ATOM     21  C   UNL     1      -2.180   4.480  25.025  0.00  0.00    +0.006 A 
ATOM     22  C   UNL     1      -1.513   4.913  25.242  0.00  0.00    +0.021 A 
ATOM     23  C   UNL     1      -0.760   4.585  25.154  0.00  0.00    +0.099 A 
ATOM     24  N   UNL     1      -0.676   3.823  24.850  0.00  0.00    -0.242 NA
ATOM     25  C   UNL     1      -1.343   3.389  24.632  0.00  0.00    +0.102 A 
ENDBRANCH  17  20
ENDBRANCH   4  15
BRANCH   5   6
ATOM      6  C   UNL     1      -3.765   0.683  24.471  0.00  0.00    +0.100 C 
BRANCH   6   7
ATOM      7  C   UNL     1      -3.761  -0.136  24.568  0.00  0.00    -0.006 A 
ATOM      8  C   UNL     1      -3.425  -0.470  25.245  0.00  0.00    -0.002 A 
ATOM      9  C   UNL     1      -3.422  -1.290  25.341  0.00  0.00    +0.011 A 
ATOM     10  C   UNL     1      -3.752  -1.775  24.763  0.00  0.00    +0.058 A 
ATOM     11 CL   UNL     1      -3.748  -2.594  24.860  0.00  0.00    -0.082 Cl
ATOM     12  C   UNL     1      -4.088  -1.441  24.086  0.00  0.00    +0.011 A 
ATOM     13  C   UNL     1      -4.091  -0.622  23.990  0.00  0.00    -0.002 A 
ENDBRANCH   6   7
ENDBRANCH   5   6
TORSDOF 4
ENDMDL
MODEL 2
REMARK VINA RESULT:     -11.7      1.992      4.671
REMARK  Name = 
REMARK  4 active torsions:
REMARK  status: ('A' for Active; 'I' for Inactive)
REMARK    1  A    between atoms: C_4  and  C_15
REMARK    2  A    between atoms: N_5  and  C_6
REMARK    3  A    between atoms: C_6  and  C_7
REMARK    4  A    between atoms: C_17  and  C_20
REMARK                            x       y       z     vdW  Elec       q    Type
REMARK                         _______ _______ _______ _____ _____    ______ ____
ROOT
ATOM      1  O   UNL     1      -5.746   3.211  25.724  0.00  0.00    -0.222 OA
ATOM      2  C   UNL     1      -5.105   2.775  25.440  0.00  0.00    +0.170 C 
ATOM      3  C   UNL     1      -5.138   2.010  25.134  0.00  0.00    +0.060 C 
ATOM      4  C   UNL     1      -4.372   1.790  24.918  0.00  0.00    +0.140 C 
ATOM      5  N   UNL     1      -3.868   2.419  25.091  0.00  0.00    -0.260 NA
ATOM     14  C   UNL     1      -4.321   3.028  25.414  0.00  0.00    +0.106 C 
ENDROOT
BRANCH   4  15
ATOM     15  C   UNL     1      -4.151   1.067  24.587  0.00  0.00    +0.251 A 
ATOM     16  N   UNL     1      -4.126   0.342  24.979  0.00  0.00    -0.190 NA
ATOM     17  C   UNL     1      -3.875  -0.231  24.440  0.00  0.00    +0.205 A 
ATOM     18  N   UNL     1      -3.745   0.141  23.715  0.00  0.00    -0.056 NA
ATOM     19  O   UNL     1      -3.916   0.944  23.806  0.00  0.00    -0.336 OA
BRANCH  17  20
ATOM     20  C   UNL     1      -3.772  -1.034  24.598  0.00  0.00    +0.058 A 
ATOM     21  C   UNL     1      -4.019  -1.598  24.049  0.00  0.00    +0.006 A 
ATOM     22  C   UNL     1      -3.916  -2.400  24.207  0.00  0.00    +0.021 A 
ATOM     23  C   UNL     1      -3.566  -2.640  24.915  0.00  0.00    +0.099 A 
ATOM     24  N   UNL     1      -3.319  -2.076  25.464  0.00  0.00    -0.242 NA
ATOM     25  C   UNL     1      -3.422  -1.273  25.306  0.00  0.00    +0.102 A 
ENDBRANCH  17  20
ENDBRANCH   4  15
BRANCH   5   6
ATOM      6  C   UNL     1      -3.053   2.437  24.963  0.00  0.00    +0.100 C 
BRANCH   6   7
ATOM      7  C   UNL     1      -2.638   3.144  25.046  0.00  0.00    -0.006 A 
ATOM      8  C   UNL     1      -2.613   3.684  24.422  0.00  0.00    -0.002 A 
ATOM      9  C   UNL     1      -2.197   4.392  24.506  0.00  0.00    +0.011 A 
ATOM     10  C   UNL     1      -1.807   4.560  25.212  0.00  0.00    +0.058 A 
ATOM     11 CL   UNL     1      -1.391   5.268  25.295  0.00  0.00    -0.082 Cl
ATOM     12  C   UNL     1      -1.831   4.020  25.836  0.00  0.00    +0.011 A 
ATOM     13  C   UNL     1      -2.247   3.313  25.752  0.00  0.00    -0.002 A 
ENDBRANCH   6   7
ENDBRANCH   5   6
TORSDOF 4
ENDMDL
MODEL 3
REMARK VINA RESULT:     -11.4      2.150      3.013
REMARK  Name = 
REMARK  4 active torsions:
REMARK  status: ('A' for Active; 'I' for Inactive)
REMARK    1  A    between atoms: C_4  and  C_15
REMARK    2  A    between atoms: N_5  and  C_6
REMARK    3  A    between atoms: C_6  and  C_7
REMARK    4  A    between atoms: C_17  and  C_20
REMARK                            x       y       z     vdW  Elec       q    Type
REMARK                         _______ _______ _______ _____ _____    ______ ____
ROOT
ATOM      1  O   UNL     1       0.228  -0.635  23.553  0.00  0.00    -0.222 OA
ATOM      2  C   UNL     1      -0.274  -0.186  24.028  0.00  0.00    +0.170 C 
ATOM      3  C   UNL     1      -0.108   0.561  24.338  0.00  0.00    +0.060 C 
ATOM      4  C   UNL     1      -0.763   0.804  24.778  0.00  0.00    +0.140 C 
ATOM      5  N   UNL     1      -1.332   0.208  24.739  0.00  0.00    -0.260 NA
ATOM     14  C   UNL     1      -1.030  -0.404  24.275  0.00  0.00    +0.106 C 
ENDROOT
BRANCH   4  15
ATOM     15  C   UNL     1      -0.835   1.518  25.184  0.00  0.00    +0.251 A 
ATOM     16  N   UNL     1      -1.105   2.231  24.869  0.00  0.00    -0.190 NA
ATOM     17  C   UNL     1      -1.086   2.798  25.468  0.00  0.00    +0.205 A 
ATOM     18  N   UNL     1      -0.804   2.436  26.154  0.00  0.00    -0.056 NA
ATOM     19  O   UNL     1      -0.648   1.645  25.978  0.00  0.00    -0.336 OA
BRANCH  17  20
ATOM     20  C   UNL     1      -1.311   3.589  25.395  0.00  0.00    +0.058 A 
ATOM     21  C   UNL     1      -0.790   4.136  25.064  0.00  0.00    +0.006 A 
ATOM     22  C   UNL     1      -1.014   4.926  24.990  0.00  0.00    +0.021 A 
ATOM     23  C   UNL     1      -1.759   5.170  25.248  0.00  0.00    +0.099 A 
ATOM     24  N   UNL     1      -2.280   4.623  25.579  0.00  0.00    -0.242 NA
ATOM     25  C   UNL     1      -2.056   3.832  25.653  0.00  0.00    +0.102 A 
ENDBRANCH  17  20
ENDBRANCH   4  15
BRANCH   5   6
ATOM      6  C   UNL     1      -2.073   0.222  25.101  0.00  0.00    +0.100 C 
BRANCH   6   7
ATOM      7  C   UNL     1      -2.665  -0.294  24.848  0.00  0.00    -0.006 A 
ATOM      8  C   UNL     1      -3.181  -0.067  24.246  0.00  0.00    -0.002 A 
ATOM      9  C   UNL     1      -3.774  -0.584  23.994  0.00  0.00    +0.011 A 
ATOM     10  C   UNL     1      -3.849  -1.327  24.343  0.00  0.00    +0.058 A 
ATOM     11 CL   UNL     1      -4.441  -1.843  24.090  0.00  0.00    -0.082 Cl
ATOM     12  C   UNL     1      -3.332  -1.554  24.945  0.00  0.00    +0.011 A 
ATOM     13  C   UNL     1      -2.740  -1.038  25.197  0.00  0.00    -0.002 A 
ENDBRANCH   6   7
ENDBRANCH   5   6
TORSDOF 4
ENDMDL
MODEL 4
REMARK VINA RESULT:     -11.0      1.792      2.821
REMARK  Name = 
REMARK  4 active torsions:
REMARK  status: ('A' for Active; 'I' for Inactive)
REMARK    1  A    between atoms: C_4  and  C_15
REMARK    2  A    between atoms: N_5  and  C_6
REMARK    3  A    between atoms: C_6  and  C_7
REMARK    4  A    between atoms: C_17  and  C_20
REMARK                            x       y       z     vdW  Elec       q    Type
REMARK                         _______ _______ _______ _____ _____    ______ ____
ROOT
ATOM      1  O   UNL     1      -0.441   0.086  24.375  0.00  0.00    -0.222 OA
ATOM      2  C   UNL     1      -1.250   0.246  24.408  0.00  0.00    +0.170 C 
ATOM      3  C   UNL     1      -1.606   0.973  24.248  0.00  0.00    +0.060 C 
ATOM      4  C   UNL     1      -2.420   0.884  24.348  0.00  0.00    +0.140 C 
ATOM      5  N   UNL     1      -2.566   0.103  24.568  0.00  0.00    -0.260 NA
ATOM     14  C   UNL     1      -1.842  -0.291  24.605  0.00  0.00    +0.106 C 
ENDROOT
BRANCH   4  15
ATOM     15  C   UNL     1      -2.988   1.473  24.244  0.00  0.00    +0.251 A 
ATOM     16  N   UNL     1      -3.419   1.842  24.844  0.00  0.00    -0.190 NA
ATOM     17  C   UNL     1      -3.923   2.394  24.493  0.00  0.00    +0.205 A 
ATOM     18  N   UNL     1      -3.802   2.367  23.677  0.00  0.00    -0.056 NA
ATOM     19  O   UNL     1      -3.224   1.798  23.523  0.00  0.00    -0.336 OA
BRANCH  17  20
ATOM     20  C   UNL     1      -4.453   2.887  24.889  0.00  0.00    +0.058 A 
ATOM     21  C   UNL     1      -5.178   2.590  25.147  0.00  0.00    +0.006 A 
ATOM     22  C   UNL     1      -5.708   3.082  25.542  0.00  0.00    +0.021 A 
ATOM     23  C   UNL     1      -5.514   3.872  25.680  0.00  0.00    +0.099 A 
ATOM     24  N   UNL     1      -4.789   4.169  25.422  0.00  0.00    -0.242 NA
ATOM     25  C   UNL     1      -4.258   3.676  25.026  0.00  0.00    +0.102 A 
ENDBRANCH  17  20
ENDBRANCH   4  15
BRANCH   5   6
ATOM      6  C   UNL     1      -3.306  -0.227  24.724  0.00  0.00    +0.100 C 
BRANCH   6   7
ATOM      7  C   UNL     1      -3.411  -1.043  24.683  0.00  0.00    -0.006 A 
ATOM      8  C   UNL     1      -3.244  -1.515  25.339  0.00  0.00    -0.002 A 
ATOM      9  C   UNL     1      -3.349  -2.333  25.297  0.00  0.00    +0.011 A 
ATOM     10  C   UNL     1      -3.621  -2.678  24.599  0.00  0.00    +0.058 A 
ATOM     11 CL   UNL     1      -3.726  -3.496  24.558  0.00  0.00    -0.082 Cl
ATOM     12  C   UNL     1      -3.788  -2.206  23.943  0.00  0.00    +0.011 A 
ATOM     13  C   UNL     1      -3.683  -1.390  23.985  0.00  0.00    -0.002 A 
ENDBRANCH   6   7
ENDBRANCH   5   6
TORSDOF 4
ENDMDL
MODEL 5
REMARK VINA RESULT:     -10.9      2.740      5.396
REMARK  Name = 
REMARK  4 active torsions:
REMARK  status: ('A' for Active; 'I' for Inactive)
REMARK    1  A    between atoms: C_4  and  C_15
REMARK    2  A    between atoms: N_5  and  C_6
REMARK    3  A    between atoms: C_6  and  C_7
REMARK    4  A    between atoms: C_17  and  C_20
REMARK                            x       y       z     vdW  Elec       q    Type
REMARK                         _______ _______ _______ _____ _____    ______ ____
ROOT
ATOM      1  O   UNL     1       0.894   1.304  23.815  0.00  0.00    -0.222 OA
ATOM      2  C   UNL     1       0.168   1.193  24.190  0.00  0.00    +0.170 C 
ATOM      3  C   UNL     1      -0.209   0.469  24.309  0.00  0.00    +0.060 C 
ATOM      4  C   UNL     1      -0.919   0.614  24.705  0.00  0.00    +0.140 C 
ATOM      5  N   UNL     1      -0.979   1.427  24.830  0.00  0.00    -0.260 NA
ATOM     14  C   UNL     1      -0.307   1.785  24.511  0.00  0.00    +0.106 C 
ENDROOT
BRANCH   4  15
ATOM     15  C   UNL     1      -1.470   0.045  24.935  0.00  0.00    +0.251 A 
ATOM     16  N   UNL     1      -1.987  -0.360  24.435  0.00  0.00    -0.190 NA
ATOM     17  C   UNL     1      -2.438  -0.874  24.897  0.00  0.00    +0.205 A 
ATOM     18  N   UNL     1      -2.201  -0.786  25.682  0.00  0.00    -0.056 NA
ATOM     19  O   UNL     1      -1.602  -0.218  25.705  0.00  0.00    -0.336 OA
BRANCH  17  20
ATOM     20  C   UNL     1      -3.024  -1.385  24.621  0.00  0.00    +0.058 A 
ATOM     21  C   UNL     1      -3.703  -1.081  24.264  0.00  0.00    +0.006 A 
ATOM     22  C   UNL     1      -4.288  -1.592  23.989  0.00  0.00    +0.021 A 
ATOM     23  C   UNL     1      -4.196  -2.408  24.071  0.00  0.00    +0.099 A 
ATOM     24  N   UNL     1      -3.517  -2.713  24.428  0.00  0.00    -0.242 NA
ATOM     25  C   UNL     1      -2.931  -2.201  24.703  0.00  0.00    +0.102 A 
ENDBRANCH  17  20
ENDBRANCH   4  15
BRANCH   5   6
ATOM      6  C   UNL     1      -1.602   1.815  25.206  0.00  0.00    +0.100 C 
BRANCH   6   7
ATOM      7  C   UNL     1      -1.629   2.639  25.218  0.00  0.00    -0.006 A 
ATOM      8  C   UNL     1      -1.209   3.057  25.792  0.00  0.00    -0.002 A 
ATOM      9  C   UNL     1      -1.237   3.883  25.803  0.00  0.00    +0.011 A 
ATOM     10  C   UNL     1      -1.682   4.288  25.240  0.00  0.00    +0.058 A 
ATOM     11 CL   UNL     1      -1.709   5.113  25.251  0.00  0.00    -0.082 Cl
ATOM     12  C   UNL     1      -2.101   3.869  24.665  0.00  0.00    +0.011 A 
ATOM     13  C   UNL     1      -2.074   3.045  24.655  0.00  0.00    -0.002 A 
ENDBRANCH   6   7
ENDBRANCH   5   6
TORSDOF 4
ENDMDL
MODEL 6
REMARK VINA RESULT:     -10.5      2.137      3.587
REMARK  Name = 
REMARK  4 active torsions:
REMARK  status: ('A' for Active; 'I' for Inactive)
REMARK    1  A    between atoms: C_4  and  C_15
REMARK    2  A    between atoms: N_5  and  C_6
REMARK    3  A    between atoms: C_6  and  C_7
REMARK    4  A    between atoms: C_17  and  C_20
REMARK                            x       y       z     vdW  Elec       q    Type
REMARK                         _______ _______ _______ _____ _____    ______ ____
ROOT
ATOM      1  O   UNL     1       0.450   2.674  26.190  0.00  0.00    -0.222 OA
ATOM      2  C   UNL     1      -0.233   2.426  25.800  0.00  0.00    +0.170 C 
ATOM      3  C   UNL     1      -0.902   2.887  25.653  0.00  0.00    +0.060 C 
ATOM      4  C   UNL     1      -1.449   2.419  25.250  0.00  0.00    +0.140 C 
ATOM      5  N   UNL     1      -1.119   1.670  25.148  0.00  0.00    -0.260 NA
ATOM     14  C   UNL     1      -0.367   1.675  25.488  0.00  0.00    +0.106 C 
ENDROOT
BRANCH   4  15
ATOM     15  C   UNL     1      -2.196   2.658  24.994  0.00  0.00    +0.251 A 
ATOM     16  N   UNL     1      -2.897   2.605  25.426  0.00  0.00    -0.190 NA
ATOM     17  C   UNL     1      -3.507   2.907  24.959  0.00  0.00    +0.205 A 
ATOM     18  N   UNL     1      -3.184   3.147  24.240  0.00  0.00    -0.056 NA
ATOM     19  O   UNL     1      -2.373   2.993  24.261  0.00  0.00    -0.336 OA
BRANCH  17  20
ATOM     20  C   UNL     1      -4.302   2.960  25.175  0.00  0.00    +0.058 A 
ATOM     21  C   UNL     1      -4.815   2.333  25.019  0.00  0.00    +0.006 A 
ATOM     22  C   UNL     1      -5.608   2.386  25.235  0.00  0.00    +0.021 A 
ATOM     23  C   UNL     1      -5.891   3.066  25.607  0.00  0.00    +0.099 A 
ATOM     24  N   UNL     1      -5.378   3.693  25.763  0.00  0.00    -0.242 NA
ATOM     25  C   UNL     1      -4.584   3.640  25.547  0.00  0.00    +0.102 A 
ENDBRANCH  17  20
ENDBRANCH   4  15
BRANCH   5   6
ATOM      6  C   UNL     1      -1.476   1.029  24.772  0.00  0.00    +0.100 C 
BRANCH   6   7
ATOM      7  C   UNL     1      -1.193   0.265  24.900  0.00  0.00    -0.006 A 
ATOM      8  C   UNL     1      -0.656  -0.070  24.370  0.00  0.00    -0.002 A 
ATOM      9  C   UNL     1      -0.373  -0.835  24.499  0.00  0.00    +0.011 A 
ATOM     10  C   UNL     1      -0.626  -1.263  25.156  0.00  0.00    +0.058 A 
ATOM     11 CL   UNL     1      -0.343  -2.028  25.284  0.00  0.00    -0.082 Cl
ATOM     12  C   UNL     1      -1.163  -0.928  25.686  0.00  0.00    +0.011 A 
ATOM     13  C   UNL     1      -1.446  -0.164  25.557  0.00  0.00    -0.002 A 
ENDBRANCH   6   7
ENDBRANCH   5   6
TORSDOF 4
ENDMDL
