MODEL 1
REMARK VINA RESULT:     -10.4      0.000      0.000
REMARK  Name = 
REMARK  9 active torsions:
REMARK  status: ('A' for Active; 'I' for Inactive)
REMARK    1  A    between atoms: O_2  and  C_3
REMARK    2  A    between atoms: C_6  and  N_7
REMARK    3  A    between atoms: N_10  and  C_11
REMARK    4  A    between atoms: C_13  and  C_22
REMARK    5  A    between atoms: C_16  and  C_18
REMARK    6  A    between atoms: N_24  and  C_25
REMARK    7  A    between atoms: C_25  and  C_26
REMARK    8  A    between atoms: C_25  and  C_36
REMARK    9  A    between atoms: C_26  and  C_27
REMARK                            x       y       z     vdW  Elec       q    Type
REMARK                         _______ _______ _______ _____ _____    ______ ____
ROOT
ATOM     11  C   UNL     1       0.358  -0.006  23.333  0.00  0.00    +0.119 C 
ATOM     12  C   UNL     1       0.077   0.637  23.767  0.00  0.00    +0.053 C 
ATOM     13  C   UNL     1      -0.508   0.361  24.280  0.00  0.00    +0.156 C 
ATOM     14  N   UNL     1      -0.589  -0.452  24.162  0.00  0.00    -0.268 N 
ATOM     15  C   UNL     1      -0.054  -0.678  23.576  0.00  0.00    +0.116 C 
ATOM     16  C   UNL     1      -1.113  -0.949  24.559  0.00  0.00    +0.249 C 
ATOM     17  O   UNL     1      -1.131  -1.755  24.381  0.00  0.00    -0.270 OA
ENDROOT
BRANCH  11  10
ATOM      7  N   UNL     1       2.328   0.121  22.400  0.00  0.00    -0.161 NA
ATOM      8  C   UNL     1       1.738   0.096  22.977  0.00  0.00    +0.343 C 
ATOM      9  O   UNL     1       1.941   0.147  23.775  0.00  0.00    -0.249 OA
ATOM     10  N   UNL     1       0.947   0.020  22.756  0.00  0.00    -0.187 NA
BRANCH   7   6
ATOM      3  C   UNL     1       4.701   0.351  23.064  0.00  0.00    +0.139 A 
ATOM      4  C   UNL     1       4.325  -0.381  23.122  0.00  0.00    +0.038 A 
ATOM      5  C   UNL     1       3.534  -0.458  22.900  0.00  0.00    +0.020 A 
ATOM      6  C   UNL     1       3.119   0.198  22.621  0.00  0.00    +0.075 A 
ATOM     39  C   UNL     1       3.494   0.930  22.563  0.00  0.00    +0.020 A 
ATOM     40  C   UNL     1       4.286   1.007  22.784  0.00  0.00    +0.038 A 
BRANCH   3   2
ATOM      1  C   UNL     1       5.765   0.064  23.974  0.00  0.00    +0.252 C 
ATOM      2  O   UNL     1       5.492   0.428  23.285  0.00  0.00    -0.471 OA
ENDBRANCH   3   2
ENDBRANCH   7   6
ENDBRANCH  11  10
BRANCH  16  18
ATOM     18  C   UNL     1      -1.618  -0.642  25.134  0.00  0.00    +0.049 C 
ATOM     19  C   UNL     1      -2.169  -1.133  25.503  0.00  0.00    -0.039 C 
ATOM     20  C   UNL     1      -2.214  -1.931  25.298  0.00  0.00    +0.027 C 
ATOM     21  C   UNL     1      -2.675  -0.825  26.079  0.00  0.00    +0.027 C 
ENDBRANCH  16  18
BRANCH  13  22
ATOM     22  C   UNL     1      -0.937   0.818  24.815  0.00  0.00    +0.260 C 
ATOM     23  O   UNL     1      -1.027   0.564  25.595  0.00  0.00    -0.272 OA
ATOM     24  N   UNL     1      -1.278   1.530  24.572  0.00  0.00    -0.196 NA
BRANCH  24  25
ATOM     25  C   UNL     1      -1.706   1.986  25.108  0.00  0.00    +0.179 C 
BRANCH  25  36
ATOM     36  C   UNL     1      -1.325   2.571  25.548  0.00  0.00    +0.281 C 
ATOM     37  N   UNL     1      -0.842   3.123  25.169  0.00  0.00    -0.086 NA
ATOM     38  O   UNL     1      -1.426   2.605  26.366  0.00  0.00    -0.270 OA
ENDBRANCH  25  36
BRANCH  25  26
ATOM     26  C   UNL     1      -2.516   1.859  25.204  0.00  0.00    +0.059 C 
BRANCH  26  27
ATOM     27  C   UNL     1      -3.055   2.246  24.715  0.00  0.00    +0.001 A 
ATOM     28  C   UNL     1      -2.868   2.733  24.075  0.00  0.00    +0.095 A 
ATOM     29  N   UNL     1      -3.574   3.002  23.745  0.00  0.00    -0.244 NA
ATOM     30  C   UNL     1      -4.197   2.683  24.180  0.00  0.00    +0.081 A 
ATOM     31  C   UNL     1      -3.877   2.216  24.779  0.00  0.00    +0.015 A 
ATOM     32  C   UNL     1      -4.376   1.823  25.307  0.00  0.00    +0.001 A 
ATOM     33  C   UNL     1      -5.193   1.897  25.235  0.00  0.00    +0.000 A 
ATOM     34  C   UNL     1      -5.514   2.364  24.635  0.00  0.00    +0.002 A 
ATOM     35  C   UNL     1      -5.016   2.757  24.107  0.00  0.00    +0.019 A 
ENDBRANCH  26  27
ENDBRANCH  25  26
ENDBRANCH  24  25
ENDBRANCH  13  22
TORSDOF 9
ENDMDL
MODEL 2
REMARK VINA RESULT:      -9.9      1.379      2.935
REMARK  Name = 
REMARK  9 active torsions:
REMARK  status: ('A' for Active; 'I' for Inactive)
REMARK    1  A    between atoms: O_2  and  C_3
REMARK    2  A    between atoms: C_6  and  N_7
REMARK    3  A    between atoms: N_10  and  C_11
REMARK    4  A    between atoms: C_13  and  C_22
REMARK    5  A    between atoms: C_16  and  C_18
REMARK    6  A    between atoms: N_24  and  C_25
REMARK    7  A    between atoms: C_25  and  C_26
REMARK    8  A    between atoms: C_25  and  C_36
REMARK    9  A    between atoms: C_26  and  C_27
REMARK                            x       y       z     vdW  Elec       q    Type
REMARK                         _______ _______ _______ _____ _____    ______ ____
ROOT
ATOM     11  C   UNL     1       0.204   0.847  23.439  0.00  0.00    +0.119 C 
ATOM     12  C   UNL     1      -0.556   0.586  23.626  0.00  0.00    +0.053 C 
ATOM     13  C   UNL     1      -0.900   1.143  24.128  0.00  0.00    +0.156 C 
ATOM     14  N   UNL     1      -0.353   1.749  24.251  0.00  0.00    -0.268 N 
ATOM     15  C   UNL     1       0.329   1.565  23.825  0.00  0.00    +0.116 C 
ATOM     16  C   UNL     1      -0.468   2.419  24.717  0.00  0.00    +0.249 C 
ATOM     17  O   UNL     1       0.133   2.980  24.788  0.00  0.00    -0.270 OA
ENDROOT
BRANCH  11  10
ATOM      7  N   UNL     1       2.092   0.118  22.620  0.00  0.00    -0.161 NA
ATOM      8  C   UNL     1       1.552   0.508  23.108  0.00  0.00    +0.343 C 
ATOM      9  O   UNL     1       1.821   0.948  23.751  0.00  0.00    -0.249 OA
ATOM     10  N   UNL     1       0.744   0.457  22.951  0.00  0.00    -0.187 NA
BRANCH   7   6
ATOM      3  C   UNL     1       4.518   0.272  23.089  0.00  0.00    +0.139 A 
ATOM      4  C   UNL     1       4.094  -0.399  23.319  0.00  0.00    +0.038 A 
ATOM      5  C   UNL     1       3.285  -0.449  23.162  0.00  0.00    +0.020 A 
ATOM      6  C   UNL     1       2.901   0.169  22.776  0.00  0.00    +0.075 A 
ATOM     39  C   UNL     1       3.324   0.839  22.546  0.00  0.00    +0.020 A 
ATOM     40  C   UNL     1       4.133   0.891  22.702  0.00  0.00    +0.038 A 
BRANCH   3   2
ATOM      1  C   UNL     1       5.608   0.186  24.009  0.00  0.00    +0.252 C 
ATOM      2  O   UNL     1       5.326   0.322  23.245  0.00  0.00    -0.471 OA
ENDBRANCH   3   2
ENDBRANCH   7   6
ENDBRANCH  11  10
BRANCH  16  18
ATOM     18  C   UNL     1      -1.183   2.529  25.112  0.00  0.00    +0.049 C 
ATOM     19  C   UNL     1      -1.316   3.222  25.540  0.00  0.00    -0.039 C 
ATOM     20  C   UNL     1      -0.733   3.804  25.572  0.00  0.00    +0.027 C 
ATOM     21  C   UNL     1      -2.033   3.331  25.936  0.00  0.00    +0.027 C 
ENDBRANCH  16  18
BRANCH  13  22
ATOM     22  C   UNL     1      -1.658   1.102  24.450  0.00  0.00    +0.260 C 
ATOM     23  O   UNL     1      -1.781   1.298  25.242  0.00  0.00    -0.272 OA
ATOM     24  N   UNL     1      -2.295   0.867  23.980  0.00  0.00    -0.196 NA
BRANCH  24  25
ATOM     25  C   UNL     1      -3.052   0.826  24.302  0.00  0.00    +0.179 C 
BRANCH  25  36
ATOM     36  C   UNL     1      -3.600   1.423  24.145  0.00  0.00    +0.281 C 
ATOM     37  N   UNL     1      -3.638   1.757  23.391  0.00  0.00    -0.086 NA
ATOM     38  O   UNL     1      -4.106   1.687  24.739  0.00  0.00    -0.270 OA
ENDBRANCH  25  36
BRANCH  25  26
ATOM     26  C   UNL     1      -3.264   0.188  24.782  0.00  0.00    +0.059 C 
BRANCH  26  27
ATOM     27  C   UNL     1      -3.544  -0.509  24.442  0.00  0.00    +0.001 A 
ATOM     28  C   UNL     1      -3.936  -0.572  23.718  0.00  0.00    +0.095 A 
ATOM     29  N   UNL     1      -4.116  -1.367  23.595  0.00  0.00    -0.244 NA
ATOM     30  C   UNL     1      -3.836  -1.795  24.242  0.00  0.00    +0.081 A 
ATOM     31  C   UNL     1      -3.483  -1.265  24.765  0.00  0.00    +0.015 A 
ATOM     32  C   UNL     1      -3.151  -1.539  25.469  0.00  0.00    +0.001 A 
ATOM     33  C   UNL     1      -3.172  -2.344  25.649  0.00  0.00    +0.000 A 
ATOM     34  C   UNL     1      -3.525  -2.874  25.125  0.00  0.00    +0.002 A 
ATOM     35  C   UNL     1      -3.857  -2.601  24.422  0.00  0.00    +0.019 A 
ENDBRANCH  26  27
ENDBRANCH  25  26
ENDBRANCH  24  25
ENDBRANCH  13  22
TORSDOF 9
ENDMDL
MODEL 3
REMARK VINA RESULT:      -9.6      1.297      1.845
REMARK  Name = 
REMARK  9 active torsions:
REMARK  status: ('A' for Active; 'I' for Inactive)
REMARK    1  A    between atoms: O_2  and  C_3
REMARK    2  A    between atoms: C_6  and  N_7
REMARK    3  A    between atoms: N_10  and  C_11
REMARK    4  A    between atoms: C_13  and  C_22
REMARK    5  A    between atoms: C_16  and  C_18
REMARK    6  A    between atoms: N_24  and  C_25
REMARK    7  A    between atoms: C_25  and  C_26
REMARK    8  A    between atoms: C_25  and  C_36
REMARK    9  A    between atoms: C_26  and  C_27
REMARK                            x       y       z     vdW  Elec       q    Type
REMARK                         _______ _______ _______ _____ _____    ______ ____
ROOT
ATOM     11  C   UNL     1       0.439  -0.173  23.077  0.00  0.00    +0.119 C 
ATOM     12  C   UNL     1      -0.185   0.357  22.983  0.00  0.00    +0.053 C 
ATOM     13  C   UNL     1      -0.725   0.228  23.593  0.00  0.00    +0.156 C 
ATOM     14  N   UNL     1      -0.434  -0.383  24.066  0.00  0.00    -0.268 N 
ATOM     15  C   UNL     1       0.286  -0.631  23.747  0.00  0.00    +0.116 C 
ATOM     16  C   UNL     1      -0.798  -0.692  24.738  0.00  0.00    +0.249 C 
ATOM     17  O   UNL     1      -0.439  -1.306  25.156  0.00  0.00    -0.270 OA
ENDROOT
BRANCH  11  10
ATOM      7  N   UNL     1       2.509  -0.089  22.387  0.00  0.00    -0.161 NA
ATOM      8  C   UNL     1       1.846  -0.027  22.875  0.00  0.00    +0.343 C 
ATOM      9  O   UNL     1       1.930   0.243  23.650  0.00  0.00    -0.249 OA
ATOM     10  N   UNL     1       1.101  -0.235  22.589  0.00  0.00    -0.187 NA
BRANCH   7   6
ATOM      3  C   UNL     1       4.744   0.534  23.247  0.00  0.00    +0.139 A 
ATOM      4  C   UNL     1       4.281   1.094  22.855  0.00  0.00    +0.038 A 
ATOM      5  C   UNL     1       3.536   0.886  22.569  0.00  0.00    +0.020 A 
ATOM      6  C   UNL     1       3.254   0.119  22.673  0.00  0.00    +0.075 A 
ATOM     39  C   UNL     1       3.716  -0.442  23.064  0.00  0.00    +0.020 A 
ATOM     40  C   UNL     1       4.462  -0.235  23.352  0.00  0.00    +0.038 A 
BRANCH   3   2
ATOM      1  C   UNL     1       5.864   0.264  24.092  0.00  0.00    +0.252 C 
ATOM      2  O   UNL     1       5.490   0.741  23.534  0.00  0.00    -0.471 OA
ENDBRANCH   3   2
ENDBRANCH   7   6
ENDBRANCH  11  10
BRANCH  16  18
ATOM     18  C   UNL     1      -1.521  -0.388  24.992  0.00  0.00    +0.049 C 
ATOM     19  C   UNL     1      -1.884  -0.695  25.667  0.00  0.00    -0.039 C 
ATOM     20  C   UNL     1      -1.523  -1.306  26.086  0.00  0.00    +0.027 C 
ATOM     21  C   UNL     1      -2.608  -0.389  25.921  0.00  0.00    +0.027 C 
ENDBRANCH  16  18
BRANCH  13  22
ATOM     22  C   UNL     1      -1.432   0.636  23.711  0.00  0.00    +0.260 C 
ATOM     23  O   UNL     1      -2.108   0.230  23.950  0.00  0.00    -0.272 OA
ATOM     24  N   UNL     1      -1.462   1.452  23.589  0.00  0.00    -0.196 NA
BRANCH  24  25
ATOM     25  C   UNL     1      -2.168   1.861  23.707  0.00  0.00    +0.179 C 
BRANCH  25  36
ATOM     36  C   UNL     1      -2.725   1.904  23.098  0.00  0.00    +0.281 C 
ATOM     37  N   UNL     1      -3.514   1.713  23.249  0.00  0.00    -0.086 NA
ATOM     38  O   UNL     1      -2.494   2.138  22.343  0.00  0.00    -0.270 OA
ENDBRANCH  25  36
BRANCH  25  26
ATOM     26  C   UNL     1      -2.319   2.226  24.431  0.00  0.00    +0.059 C 
BRANCH  26  27
ATOM     27  C   UNL     1      -1.981   2.958  24.602  0.00  0.00    +0.001 A 
ATOM     28  C   UNL     1      -1.298   3.270  24.258  0.00  0.00    +0.095 A 
ATOM     29  N   UNL     1      -1.161   4.012  24.591  0.00  0.00    -0.244 NA
ATOM     30  C   UNL     1      -1.759   4.159  25.140  0.00  0.00    +0.081 A 
ATOM     31  C   UNL     1      -2.265   3.508  25.147  0.00  0.00    +0.015 A 
ATOM     32  C   UNL     1      -2.920   3.501  25.648  0.00  0.00    +0.001 A 
ATOM     33  C   UNL     1      -3.069   4.144  26.143  0.00  0.00    +0.000 A 
ATOM     34  C   UNL     1      -2.563   4.795  26.136  0.00  0.00    +0.002 A 
ATOM     35  C   UNL     1      -1.908   4.803  25.635  0.00  0.00    +0.019 A 
ENDBRANCH  26  27
ENDBRANCH  25  26
ENDBRANCH  24  25
ENDBRANCH  13  22
TORSDOF 9
ENDMDL
MODEL 4
REMARK VINA RESULT:      -8.9      1.532      2.392
REMARK  Name = 
REMARK  9 active torsions:
REMARK  status: ('A' for Active; 'I' for Inactive)
REMARK    1  A    between atoms: O_2  and  C_3
REMARK    2  A    between atoms: C_6  and  N_7
REMARK    3  A    between atoms: N_10  and  C_11
REMARK    4  A    between atoms: C_13  and  C_22
REMARK    5  A    between atoms: C_16  and  C_18
REMARK    6  A    between atoms: N_24  and  C_25
REMARK    7  A    between atoms: C_25  and  C_26
REMARK    8  A    between atoms: C_25  and  C_36
REMARK    9  A    between atoms: C_26  and  C_27
REMARK                            x       y       z     vdW  Elec       q    Type
REMARK                         _______ _______ _______ _____ _____    ______ ____
ROOT
ATOM     11  C   UNL     1       0.202   0.855  23.660  0.00  0.00    +0.119 C 
ATOM     12  C   UNL     1      -0.502   1.150  23.346  0.00  0.00    +0.053 C 
ATOM     13  C   UNL     1      -0.810   1.698  23.881  0.00  0.00    +0.156 C 
ATOM     14  N   UNL     1      -0.296   1.742  24.526  0.00  0.00    -0.268 N 
ATOM     15  C   UNL     1       0.329   1.221  24.389  0.00  0.00    +0.116 C 
ATOM     16  C   UNL     1      -0.391   2.222  25.190  0.00  0.00    +0.249 C 
ATOM     17  O   UNL     1       0.172   2.206  25.793  0.00  0.00    -0.270 OA
ENDROOT
BRANCH  11  10
ATOM      7  N   UNL     1       1.998  -0.147  22.928  0.00  0.00    -0.161 NA
ATOM      8  C   UNL     1       1.508   0.415  23.281  0.00  0.00    +0.343 C 
ATOM      9  O   UNL     1       1.834   1.099  23.609  0.00  0.00    -0.249 OA
ATOM     10  N   UNL     1       0.692   0.293  23.307  0.00  0.00    -0.187 NA
BRANCH   7   6
ATOM      3  C   UNL     1       4.445   0.218  22.853  0.00  0.00    +0.139 A 
ATOM      4  C   UNL     1       3.942   0.692  22.401  0.00  0.00    +0.038 A 
ATOM      5  C   UNL     1       3.127   0.570  22.426  0.00  0.00    +0.020 A 
ATOM      6  C   UNL     1       2.814  -0.025  22.903  0.00  0.00    +0.075 A 
ATOM     39  C   UNL     1       3.316  -0.499  23.355  0.00  0.00    +0.020 A 
ATOM     40  C   UNL     1       4.132  -0.378  23.330  0.00  0.00    +0.038 A 
BRANCH   3   2
ATOM      1  C   UNL     1       5.733   0.101  23.461  0.00  0.00    +0.252 C 
ATOM      2  O   UNL     1       5.261   0.340  22.828  0.00  0.00    -0.471 OA
ENDBRANCH   3   2
ENDBRANCH   7   6
ENDBRANCH  11  10
BRANCH  16  18
ATOM     18  C   UNL     1      -1.047   2.717  25.250  0.00  0.00    +0.049 C 
ATOM     19  C   UNL     1      -1.136   3.205  25.910  0.00  0.00    -0.039 C 
ATOM     20  C   UNL     1      -0.568   3.197  26.508  0.00  0.00    +0.027 C 
ATOM     21  C   UNL     1      -1.794   3.701  25.970  0.00  0.00    +0.027 C 
ENDBRANCH  16  18
BRANCH  13  22
ATOM     22  C   UNL     1      -1.508   2.127  23.788  0.00  0.00    +0.260 C 
ATOM     23  O   UNL     1      -1.502   2.947  23.875  0.00  0.00    -0.272 OA
ATOM     24  N   UNL     1      -2.212   1.736  23.608  0.00  0.00    -0.196 NA
BRANCH  24  25
ATOM     25  C   UNL     1      -2.910   2.164  23.515  0.00  0.00    +0.179 C 
BRANCH  25  36
ATOM     36  C   UNL     1      -3.104   2.480  22.777  0.00  0.00    +0.281 C 
ATOM     37  N   UNL     1      -3.420   3.241  22.725  0.00  0.00    -0.086 NA
ATOM     38  O   UNL     1      -2.983   2.036  22.094  0.00  0.00    -0.270 OA
ENDBRANCH  25  36
BRANCH  25  26
ATOM     26  C   UNL     1      -3.414   2.278  24.158  0.00  0.00    +0.059 C 
BRANCH  26  27
ATOM     27  C   UNL     1      -3.952   1.691  24.370  0.00  0.00    +0.001 A 
ATOM     28  C   UNL     1      -3.925   0.900  24.135  0.00  0.00    +0.095 A 
ATOM     29  N   UNL     1      -4.569   0.511  24.473  0.00  0.00    -0.244 NA
ATOM     30  C   UNL     1      -4.994   1.061  24.917  0.00  0.00    +0.081 A 
ATOM     31  C   UNL     1      -4.613   1.790  24.853  0.00  0.00    +0.015 A 
ATOM     32  C   UNL     1      -4.918   2.450  25.244  0.00  0.00    +0.001 A 
ATOM     33  C   UNL     1      -5.603   2.381  25.697  0.00  0.00    +0.000 A 
ATOM     34  C   UNL     1      -5.984   1.652  25.761  0.00  0.00    +0.002 A 
ATOM     35  C   UNL     1      -5.680   0.992  25.371  0.00  0.00    +0.019 A 
ENDBRANCH  26  27
ENDBRANCH  25  26
ENDBRANCH  24  25
ENDBRANCH  13  22
TORSDOF 9
ENDMDL
MODEL 5
REMARK VINA RESULT:      -8.6      3.072      4.796
REMARK  Name = 
REMARK  9 active torsions:
REMARK  status: ('A' for Active; 'I' for Inactive)
REMARK    1  A    between atoms: O_2  and  C_3
REMARK    2  A    between atoms: C_6  and  N_7
REMARK    3  A    between atoms: N_10  and  C_11
REMARK    4  A    between atoms: C_13  and  C_22
REMARK    5  A    between atoms: C_16  and  C_18
REMARK    6  A    between atoms: N_24  and  C_25
REMARK    7  A    between atoms: C_25  and  C_26
REMARK    8  A    between atoms: C_25  and  C_36
REMARK    9  A    between atoms: C_26  and  C_27
REMARK                            x       y       z     vdW  Elec       q    Type
REMARK                         _______ _______ _______ _____ _____    ______ ____
ROOT
ATOM     11  C   UNL     1      -1.135   1.262  25.311  0.00  0.00    +0.119 C 
ATOM     12  C   UNL     1      -1.895   1.539  25.150  0.00  0.00    +0.053 C 
ATOM     13  C   UNL     1      -1.860   2.362  25.099  0.00  0.00    +0.156 C 
ATOM     14  N   UNL     1      -1.079   2.593  25.229  0.00  0.00    -0.268 N 
ATOM     15  C   UNL     1      -0.630   1.913  25.360  0.00  0.00    +0.116 C 
ATOM     16  C   UNL     1      -0.796   3.368  25.228  0.00  0.00    +0.249 C 
ATOM     17  O   UNL     1       0.005   3.514  25.368  0.00  0.00    -0.270 OA
ENDROOT
BRANCH  11  10
ATOM      7  N   UNL     1      -1.222  -0.920  25.285  0.00  0.00    -0.161 NA
ATOM      8  C   UNL     1      -1.440  -0.130  25.190  0.00  0.00    +0.343 C 
ATOM      9  O   UNL     1      -2.179   0.059  24.878  0.00  0.00    -0.249 OA
ATOM     10  N   UNL     1      -0.917   0.471  25.406  0.00  0.00    -0.187 NA
BRANCH   7   6
ATOM      3  C   UNL     1      -2.789  -2.722  24.636  0.00  0.00    +0.139 A 
ATOM      4  C   UNL     1      -2.083  -2.619  24.221  0.00  0.00    +0.038 A 
ATOM      5  C   UNL     1      -1.561  -2.018  24.437  0.00  0.00    +0.020 A 
ATOM      6  C   UNL     1      -1.744  -1.521  25.069  0.00  0.00    +0.075 A 
ATOM     39  C   UNL     1      -2.450  -1.623  25.484  0.00  0.00    +0.020 A 
ATOM     40  C   UNL     1      -2.973  -2.224  25.268  0.00  0.00    +0.038 A 
BRANCH   3   2
ATOM      1  C   UNL     1      -3.992  -3.142  23.989  0.00  0.00    +0.252 C 
ATOM      2  O   UNL     1      -3.312  -3.323  24.419  0.00  0.00    -0.471 OA
ENDBRANCH   3   2
ENDBRANCH   7   6
ENDBRANCH  11  10
BRANCH  16  18
ATOM     18  C   UNL     1      -1.312   3.995  25.088  0.00  0.00    +0.049 C 
ATOM     19  C   UNL     1      -1.017   4.763  25.013  0.00  0.00    -0.039 C 
ATOM     20  C   UNL     1      -0.207   4.901  25.078  0.00  0.00    +0.027 C 
ATOM     21  C   UNL     1      -1.535   5.391  24.873  0.00  0.00    +0.027 C 
ENDBRANCH  16  18
BRANCH  13  22
ATOM     22  C   UNL     1      -2.495   2.865  24.945  0.00  0.00    +0.260 C 
ATOM     23  O   UNL     1      -2.551   3.590  25.335  0.00  0.00    -0.272 OA
ATOM     24  N   UNL     1      -3.075   2.644  24.402  0.00  0.00    -0.196 NA
BRANCH  24  25
ATOM     25  C   UNL     1      -3.710   3.147  24.248  0.00  0.00    +0.179 C 
BRANCH  25  36
ATOM     36  C   UNL     1      -3.727   3.588  23.550  0.00  0.00    +0.281 C 
ATOM     37  N   UNL     1      -3.500   3.239  22.837  0.00  0.00    -0.086 NA
ATOM     38  O   UNL     1      -3.970   4.375  23.565  0.00  0.00    -0.270 OA
ENDBRANCH  25  36
BRANCH  25  26
ATOM     26  C   UNL     1      -4.328   3.210  24.791  0.00  0.00    +0.059 C 
BRANCH  26  27
ATOM     27  C   UNL     1      -4.910   2.626  24.824  0.00  0.00    +0.001 A 
ATOM     28  C   UNL     1      -5.085   2.081  24.229  0.00  0.00    +0.095 A 
ATOM     29  N   UNL     1      -5.702   1.603  24.494  0.00  0.00    -0.244 NA
ATOM     30  C   UNL     1      -5.909   1.852  25.253  0.00  0.00    +0.081 A 
ATOM     31  C   UNL     1      -5.419   2.484  25.456  0.00  0.00    +0.015 A 
ATOM     32  C   UNL     1      -5.501   2.848  26.192  0.00  0.00    +0.001 A 
ATOM     33  C   UNL     1      -6.072   2.581  26.724  0.00  0.00    +0.000 A 
ATOM     34  C   UNL     1      -6.561   1.949  26.520  0.00  0.00    +0.002 A 
ATOM     35  C   UNL     1      -6.480   1.584  25.785  0.00  0.00    +0.019 A 
ENDBRANCH  26  27
ENDBRANCH  25  26
ENDBRANCH  24  25
ENDBRANCH  13  22
TORSDOF 9
ENDMDL
MODEL 6
REMARK VINA RESULT:      -7.7      1.764      5.711
REMARK  Name = 
REMARK  9 active torsions:
REMARK  status: ('A' for Active; 'I' for Inactive)
REMARK    1  A    between atoms: O_2  and  C_3
REMARK    2  A    between atoms: C_6  and  N_7
REMARK    3  A    between atoms: N_10  and  C_11
REMARK    4  A    between atoms: C_13  and  C_22
REMARK    5  A    between atoms: C_16  and  C_18
REMARK    6  A    between atoms: N_24  and  C_25
REMARK    7  A    between atoms: C_25  and  C_26
REMARK    8  A    between atoms: C_25  and  C_36
REMARK    9  A    between atoms: C_26  and  C_27
REMARK                            x       y       z     vdW  Elec       q    Type
REMARK                         _______ _______ _______ _____ _____    ______ ____
ROOT
ATOM     11  C   UNL     1      -0.692   2.298  24.703  0.00  0.00    +0.119 C 
ATOM     12  C   UNL     1      -0.979   1.536  24.832  0.00  0.00    +0.053 C 
ATOM     13  C   UNL     1      -0.459   1.003  24.475  0.00  0.00    +0.156 C 
ATOM     14  N   UNL     1       0.150   1.438  24.125  0.00  0.00    -0.268 N 
ATOM     15  C   UNL     1       0.006   2.238  24.266  0.00  0.00    +0.116 C 
ATOM     16  C   UNL     1       0.789   1.126  23.708  0.00  0.00    +0.249 C 
ATOM     17  O   UNL     1       1.358   1.631  23.388  0.00  0.00    -0.270 OA
ENDROOT
BRANCH  11  10
ATOM      7  N   UNL     1      -2.211   3.755  25.284  0.00  0.00    -0.161 NA
ATOM      8  C   UNL     1      -1.862   3.054  25.022  0.00  0.00    +0.343 C 
ATOM      9  O   UNL     1      -2.335   2.410  24.816  0.00  0.00    -0.249 OA
ATOM     10  N   UNL     1      -1.041   2.998  24.965  0.00  0.00    -0.187 NA
BRANCH   7   6
ATOM      3  C   UNL     1      -4.675   3.922  25.452  0.00  0.00    +0.139 A 
ATOM      4  C   UNL     1      -4.218   3.838  26.135  0.00  0.00    +0.038 A 
ATOM      5  C   UNL     1      -3.397   3.782  26.079  0.00  0.00    +0.020 A 
ATOM      6  C   UNL     1      -3.032   3.810  25.340  0.00  0.00    +0.075 A 
ATOM     39  C   UNL     1      -3.487   3.895  24.657  0.00  0.00    +0.020 A 
ATOM     40  C   UNL     1      -4.309   3.951  24.712  0.00  0.00    +0.038 A 
BRANCH   3   2
ATOM      1  C   UNL     1      -5.948   3.298  25.626  0.00  0.00    +0.252 C 
ATOM      2  O   UNL     1      -5.496   3.978  25.508  0.00  0.00    -0.471 OA
ENDBRANCH   3   2
ENDBRANCH   7   6
ENDBRANCH  11  10
BRANCH  16  18
ATOM     18  C   UNL     1       0.861   0.310  23.610  0.00  0.00    +0.049 C 
ATOM     19  C   UNL     1       1.488   0.000  23.173  0.00  0.00    -0.039 C 
ATOM     20  C   UNL     1       2.043   0.507  22.833  0.00  0.00    +0.027 C 
ATOM     21  C   UNL     1       1.559  -0.816  23.076  0.00  0.00    +0.027 C 
ENDBRANCH  16  18
BRANCH  13  22
ATOM     22  C   UNL     1      -0.534   0.182  24.468  0.00  0.00    +0.260 C 
ATOM     23  O   UNL     1      -0.246  -0.253  23.829  0.00  0.00    -0.272 OA
ATOM     24  N   UNL     1      -0.898  -0.204  25.100  0.00  0.00    -0.196 NA
BRANCH  24  25
ATOM     25  C   UNL     1      -0.973  -1.025  25.094  0.00  0.00    +0.179 C 
BRANCH  25  36
ATOM     36  C   UNL     1      -0.472  -1.488  25.558  0.00  0.00    +0.281 C 
ATOM     37  N   UNL     1      -0.136  -2.174  25.243  0.00  0.00    -0.086 NA
ATOM     38  O   UNL     1      -0.307  -1.268  26.334  0.00  0.00    -0.270 OA
ENDBRANCH  25  36
BRANCH  25  26
ATOM     26  C   UNL     1      -1.549  -1.383  24.624  0.00  0.00    +0.059 C 
BRANCH  26  27
ATOM     27  C   UNL     1      -2.329  -1.429  24.888  0.00  0.00    +0.001 A 
ATOM     28  C   UNL     1      -2.628  -1.084  25.576  0.00  0.00    +0.095 A 
ATOM     29  N   UNL     1      -3.430  -1.269  25.625  0.00  0.00    -0.244 NA
ATOM     30  C   UNL     1      -3.627  -1.727  24.969  0.00  0.00    +0.081 A 
ATOM     31  C   UNL     1      -2.946  -1.826  24.513  0.00  0.00    +0.015 A 
ATOM     32  C   UNL     1      -2.977  -2.266  23.816  0.00  0.00    +0.001 A 
ATOM     33  C   UNL     1      -3.687  -2.606  23.573  0.00  0.00    +0.000 A 
ATOM     34  C   UNL     1      -4.368  -2.508  24.028  0.00  0.00    +0.002 A 
ATOM     35  C   UNL     1      -4.339  -2.068  24.726  0.00  0.00    +0.019 A 
ENDBRANCH  26  27
ENDBRANCH  25  26
ENDBRANCH  24  25
ENDBRANCH  13  22
TORSDOF 9
ENDMDL
MODEL 7
REMARK VINA RESULT:      -7.6      2.127      5.605
REMARK  Name = 
REMARK  9 active torsions:
REMARK  status: ('A' for Active; 'I' for Inactive)
REMARK    1  A    between atoms: O_2  and  C_3
REMARK    2  A    between atoms: C_6  and  N_7
REMARK    3  A    between atoms: N_10  and  C_11
REMARK    4  A    between atoms: C_13  and  C_22
REMARK    5  A    between atoms: C_16  and  C_18
REMARK    6  A    between atoms: N_24  and  C_25
REMARK    7  A    between atoms: C_25  and  C_26
REMARK    8  A    between atoms: C_25  and  C_36
REMARK    9  A    between atoms: C_26  and  C_27
REMARK                            x       y       z     vdW  Elec       q    Type
REMARK                         _______ _______ _______ _____ _____    ______ ____
ROOT
ATOM     11  C   UNL     1      -3.890   0.928  24.812  0.00  0.00    +0.119 C 
ATOM     12  C   UNL     1      -3.104   0.678  24.825  0.00  0.00    +0.053 C 
ATOM     13  C   UNL     1      -3.089  -0.125  24.635  0.00  0.00    +0.156 C 
ATOM     14  N   UNL     1      -3.865  -0.371  24.504  0.00  0.00    -0.268 N 
ATOM     15  C   UNL     1      -4.361   0.280  24.613  0.00  0.00    +0.116 C 
ATOM     16  C   UNL     1      -4.104  -1.134  24.300  0.00  0.00    +0.249 C 
ATOM     17  O   UNL     1      -4.905  -1.298  24.186  0.00  0.00    -0.270 OA
ENDROOT
BRANCH  11  10
ATOM      7  N   UNL     1      -3.891   3.082  25.169  0.00  0.00    -0.161 NA
ATOM      8  C   UNL     1      -3.622   2.317  25.011  0.00  0.00    +0.343 C 
ATOM      9  O   UNL     1      -2.817   2.179  24.896  0.00  0.00    -0.249 OA
ATOM     10  N   UNL     1      -4.159   1.692  24.969  0.00  0.00    -0.187 NA
BRANCH   7   6
ATOM      3  C   UNL     1      -2.281   4.958  25.295  0.00  0.00    +0.139 A 
ATOM      4  C   UNL     1      -2.505   4.558  25.982  0.00  0.00    +0.038 A 
ATOM      5  C   UNL     1      -3.042   3.933  25.940  0.00  0.00    +0.020 A 
ATOM      6  C   UNL     1      -3.354   3.707  25.211  0.00  0.00    +0.075 A 
ATOM     39  C   UNL     1      -3.131   4.106  24.524  0.00  0.00    +0.020 A 
ATOM     40  C   UNL     1      -2.594   4.731  24.566  0.00  0.00    +0.038 A 
BRANCH   3   2
ATOM      1  C   UNL     1      -1.014   5.526  24.957  0.00  0.00    +0.252 C 
ATOM      2  O   UNL     1      -1.745   5.583  25.337  0.00  0.00    -0.471 OA
ENDBRANCH   3   2
ENDBRANCH   7   6
ENDBRANCH  11  10
BRANCH  16  18
ATOM     18  C   UNL     1      -3.544  -1.731  24.209  0.00  0.00    +0.049 C 
ATOM     19  C   UNL     1      -3.783  -2.494  24.003  0.00  0.00    -0.039 C 
ATOM     20  C   UNL     1      -4.583  -2.657  23.887  0.00  0.00    +0.027 C 
ATOM     21  C   UNL     1      -3.221  -3.092  23.913  0.00  0.00    +0.027 C 
ENDBRANCH  16  18
BRANCH  13  22
ATOM     22  C   UNL     1      -2.415  -0.598  24.585  0.00  0.00    +0.260 C 
ATOM     23  O   UNL     1      -2.449  -1.324  24.194  0.00  0.00    -0.272 OA
ATOM     24  N   UNL     1      -1.707  -0.347  24.926  0.00  0.00    -0.196 NA
BRANCH  24  25
ATOM     25  C   UNL     1      -1.034  -0.820  24.876  0.00  0.00    +0.179 C 
BRANCH  25  36
ATOM     36  C   UNL     1      -0.831  -1.315  25.504  0.00  0.00    +0.281 C 
ATOM     37  N   UNL     1      -0.920  -1.052  26.281  0.00  0.00    -0.086 NA
ATOM     38  O   UNL     1      -0.540  -2.072  25.356  0.00  0.00    -0.270 OA
ENDBRANCH  25  36
BRANCH  25  26
ATOM     26  C   UNL     1      -0.563  -0.798  24.198  0.00  0.00    +0.059 C 
BRANCH  26  27
ATOM     27  C   UNL     1      -0.038  -0.174  24.080  0.00  0.00    +0.001 A 
ATOM     28  C   UNL     1      -0.008   0.524  24.520  0.00  0.00    +0.095 A 
ATOM     29  N   UNL     1       0.598   0.992  24.213  0.00  0.00    -0.244 NA
ATOM     30  C   UNL     1       0.941   0.585  23.584  0.00  0.00    +0.081 A 
ATOM     31  C   UNL     1       0.548  -0.136  23.502  0.00  0.00    +0.015 A 
ATOM     32  C   UNL     1       0.775  -0.664  22.910  0.00  0.00    +0.001 A 
ATOM     33  C   UNL     1       1.395  -0.472  22.401  0.00  0.00    +0.000 A 
ATOM     34  C   UNL     1       1.788   0.248  22.484  0.00  0.00    +0.002 A 
ATOM     35  C   UNL     1       1.562   0.777  23.075  0.00  0.00    +0.019 A 
ENDBRANCH  26  27
ENDBRANCH  25  26
ENDBRANCH  24  25
ENDBRANCH  13  22
TORSDOF 9
ENDMDL
