MODEL 1
REMARK VINA RESULT:     -11.1      0.000      0.000
REMARK  Name = 
REMARK  6 active torsions:
REMARK  status: ('A' for Active; 'I' for Inactive)
REMARK    1  A    between atoms: O_2  and  C_3
REMARK    2  A    between atoms: C_6  and  C_7
REMARK    3  A    between atoms: C_7  and  N_8
REMARK    4  A    between atoms: C_9  and  C_11
REMARK    5  A    between atoms: N_16  and  C_17
REMARK    6  A    between atoms: C_17  and  C_18
REMARK                            x       y       z     vdW  Elec       q    Type
REMARK                         _______ _______ _______ _____ _____    ______ ____
ROOT
ATOM     11  C   UNL     1      -3.880   1.888  24.395  0.00  0.00    +0.143 C 
ATOM     12  C   UNL     1      -4.417   2.436  24.697  0.00  0.00    +0.072 C 
ATOM     13  C   UNL     1      -5.152   2.183  24.975  0.00  0.00    +0.077 A 
ATOM     14  C   UNL     1      -5.349   1.382  24.950  0.00  0.00    +0.090 A 
ATOM     15  C   UNL     1      -4.811   0.834  24.647  0.00  0.00    +0.121 C 
ATOM     16  N   UNL     1      -4.077   1.087  24.370  0.00  0.00    -0.257 NA
ATOM     25  N   UNL     1      -6.108   1.297  25.260  0.00  0.00    -0.226 NA
ATOM     26  C   UNL     1      -6.381   2.044  25.477  0.00  0.00    +0.198 A 
ATOM     27  N   UNL     1      -5.789   2.591  25.300  0.00  0.00    -0.227 NA
ENDROOT
BRANCH  11   9
ATOM      8  N   UNL     1      -2.541   2.315  24.651  0.00  0.00    -0.199 NA
ATOM      9  C   UNL     1      -3.146   2.141  24.118  0.00  0.00    +0.257 C 
ATOM     10  O   UNL     1      -3.015   2.220  23.307  0.00  0.00    -0.272 OA
BRANCH   8   7
ATOM      7  C   UNL     1      -1.805   2.568  24.374  0.00  0.00    +0.142 C 
BRANCH   7   6
ATOM      3  C   UNL     1       0.147   2.602  25.895  0.00  0.00    +0.139 A 
ATOM      4  C   UNL     1       0.152   2.116  25.227  0.00  0.00    +0.037 A 
ATOM      5  C   UNL     1      -0.499   2.105  24.720  0.00  0.00    +0.001 A 
ATOM      6  C   UNL     1      -1.155   2.579  24.881  0.00  0.00    -0.000 A 
ATOM     28  C   UNL     1      -1.160   3.064  25.547  0.00  0.00    +0.001 A 
ATOM     29  C   UNL     1      -0.509   3.075  26.054  0.00  0.00    +0.037 A 
BRANCH   3   2
ATOM      1  C   UNL     1       0.685   2.563  27.217  0.00  0.00    +0.252 C 
ATOM      2  O   UNL     1       0.797   2.613  26.402  0.00  0.00    -0.471 OA
ENDBRANCH   3   2
ENDBRANCH   7   6
ENDBRANCH   8   7
ENDBRANCH  11   9
BRANCH  16  17
ATOM     17  C   UNL     1      -3.539   0.539  24.068  0.00  0.00    +0.100 C 
BRANCH  17  18
ATOM     18  C   UNL     1      -3.614  -0.260  24.258  0.00  0.00    -0.006 A 
ATOM     19  C   UNL     1      -4.016  -0.769  23.748  0.00  0.00    -0.002 A 
ATOM     20  C   UNL     1      -4.091  -1.568  23.938  0.00  0.00    +0.011 A 
ATOM     21  C   UNL     1      -3.764  -1.859  24.637  0.00  0.00    +0.058 A 
ATOM     22 CL   UNL     1      -3.839  -2.658  24.827  0.00  0.00    -0.082 Cl
ATOM     23  C   UNL     1      -3.361  -1.349  25.147  0.00  0.00    +0.011 A 
ATOM     24  C   UNL     1      -3.287  -0.550  24.957  0.00  0.00    -0.002 A 
ENDBRANCH  17  18
ENDBRANCH  16  17
TORSDOF 6
ENDMDL
MODEL 2
REMARK VINA RESULT:     -10.7      2.205      4.458
REMARK  Name = 
REMARK  6 active torsions:
REMARK  status: ('A' for Active; 'I' for Inactive)
REMARK    1  A    between atoms: O_2  and  C_3
REMARK    2  A    between atoms: C_6  and  C_7
REMARK    3  A    between atoms: C_7  and  N_8
REMARK    4  A    between atoms: C_9  and  C_11
REMARK    5  A    between atoms: N_16  and  C_17
REMARK    6  A    between atoms: C_17  and  C_18
REMARK                            x       y       z     vdW  Elec       q    Type
REMARK                         _______ _______ _______ _____ _____    ______ ____
ROOT
ATOM     11  C   UNL     1      -4.114   2.125  24.552  0.00  0.00    +0.143 C 
ATOM     12  C   UNL     1      -4.923   2.170  24.705  0.00  0.00    +0.072 C 
ATOM     13  C   UNL     1      -5.222   2.784  25.167  0.00  0.00    +0.077 A 
ATOM     14  C   UNL     1      -4.712   3.354  25.477  0.00  0.00    +0.090 A 
ATOM     15  C   UNL     1      -3.902   3.309  25.324  0.00  0.00    +0.121 C 
ATOM     16  N   UNL     1      -3.603   2.694  24.861  0.00  0.00    -0.257 NA
ATOM     25  N   UNL     1      -5.162   3.892  25.910  0.00  0.00    -0.226 NA
ATOM     26  C   UNL     1      -5.951   3.655  25.868  0.00  0.00    +0.198 A 
ATOM     27  N   UNL     1      -5.988   2.971  25.409  0.00  0.00    -0.227 NA
ENDROOT
BRANCH  11   9
ATOM      8  N   UNL     1      -3.783   0.744  24.394  0.00  0.00    -0.199 NA
ATOM      9  C   UNL     1      -3.815   1.511  24.090  0.00  0.00    +0.257 C 
ATOM     10  O   UNL     1      -3.547   1.662  23.325  0.00  0.00    -0.272 OA
BRANCH   8   7
ATOM      7  C   UNL     1      -3.484   0.129  23.932  0.00  0.00    +0.142 C 
BRANCH   7   6
ATOM      3  C   UNL     1      -3.565  -2.199  24.767  0.00  0.00    +0.139 A 
ATOM      4  C   UNL     1      -4.094  -1.951  24.183  0.00  0.00    +0.037 A 
ATOM      5  C   UNL     1      -4.067  -1.175  23.905  0.00  0.00    +0.001 A 
ATOM      6  C   UNL     1      -3.511  -0.647  24.210  0.00  0.00    -0.000 A 
ATOM     28  C   UNL     1      -2.983  -0.894  24.792  0.00  0.00    +0.001 A 
ATOM     29  C   UNL     1      -3.010  -1.671  25.071  0.00  0.00    +0.037 A 
BRANCH   3   2
ATOM      1  C   UNL     1      -3.221  -3.578  24.622  0.00  0.00    +0.252 C 
ATOM      2  O   UNL     1      -3.592  -2.975  25.045  0.00  0.00    -0.471 OA
ENDBRANCH   3   2
ENDBRANCH   7   6
ENDBRANCH   8   7
ENDBRANCH  11   9
BRANCH  16  17
ATOM     17  C   UNL     1      -2.794   2.650  24.709  0.00  0.00    +0.100 C 
BRANCH  17  18
ATOM     18  C   UNL     1      -2.312   3.306  24.842  0.00  0.00    -0.006 A 
ATOM     19  C   UNL     1      -2.290   3.919  24.291  0.00  0.00    -0.002 A 
ATOM     20  C   UNL     1      -1.808   4.576  24.424  0.00  0.00    +0.011 A 
ATOM     21  C   UNL     1      -1.348   4.619  25.107  0.00  0.00    +0.058 A 
ATOM     22 CL   UNL     1      -0.866   5.275  25.240  0.00  0.00    -0.082 Cl
ATOM     23  C   UNL     1      -1.370   4.004  25.658  0.00  0.00    +0.011 A 
ATOM     24  C   UNL     1      -1.852   3.348  25.526  0.00  0.00    -0.002 A 
ENDBRANCH  17  18
ENDBRANCH  16  17
TORSDOF 6
ENDMDL
MODEL 3
REMARK VINA RESULT:     -10.2      1.999      3.848
REMARK  Name = 
REMARK  6 active torsions:
REMARK  status: ('A' for Active; 'I' for Inactive)
REMARK    1  A    between atoms: O_2  and  C_3
REMARK    2  A    between atoms: C_6  and  C_7
REMARK    3  A    between atoms: C_7  and  N_8
REMARK    4  A    between atoms: C_9  and  C_11
REMARK    5  A    between atoms: N_16  and  C_17
REMARK    6  A    between atoms: C_17  and  C_18
REMARK                            x       y       z     vdW  Elec       q    Type
REMARK                         _______ _______ _______ _____ _____    ______ ____
ROOT
ATOM     11  C   UNL     1      -2.262   0.895  23.833  0.00  0.00    +0.143 C 
ATOM     12  C   UNL     1      -1.499   1.184  23.714  0.00  0.00    +0.072 C 
ATOM     13  C   UNL     1      -0.846   0.743  23.961  0.00  0.00    +0.077 A 
ATOM     14  C   UNL     1      -0.958   0.013  24.327  0.00  0.00    +0.090 A 
ATOM     15  C   UNL     1      -1.721  -0.277  24.447  0.00  0.00    +0.121 C 
ATOM     16  N   UNL     1      -2.373   0.164  24.199  0.00  0.00    -0.257 NA
ATOM     25  N   UNL     1      -0.215  -0.296  24.510  0.00  0.00    -0.226 NA
ATOM     26  C   UNL     1       0.355   0.243  24.257  0.00  0.00    +0.198 A 
ATOM     27  N   UNL     1      -0.036   0.885  23.918  0.00  0.00    -0.227 NA
ENDROOT
BRANCH  11   9
ATOM      8  N   UNL     1      -3.263   1.877  24.100  0.00  0.00    -0.199 NA
ATOM      9  C   UNL     1      -2.913   1.335  23.586  0.00  0.00    +0.257 C 
ATOM     10  O   UNL     1      -3.216   1.234  22.825  0.00  0.00    -0.272 OA
BRANCH   8   7
ATOM      7  C   UNL     1      -3.916   2.319  23.853  0.00  0.00    +0.142 C 
BRANCH   7   6
ATOM      3  C   UNL     1      -5.207   3.644  25.497  0.00  0.00    +0.139 A 
ATOM      4  C   UNL     1      -5.489   2.909  25.246  0.00  0.00    +0.037 A 
ATOM      5  C   UNL     1      -5.058   2.468  24.699  0.00  0.00    +0.001 A 
ATOM      6  C   UNL     1      -4.346   2.760  24.401  0.00  0.00    -0.000 A 
ATOM     28  C   UNL     1      -4.065   3.494  24.651  0.00  0.00    +0.001 A 
ATOM     29  C   UNL     1      -4.495   3.936  25.199  0.00  0.00    +0.037 A 
BRANCH   3   2
ATOM      1  C   UNL     1      -6.135   4.691  25.786  0.00  0.00    +0.252 C 
ATOM      2  O   UNL     1      -5.638   4.086  26.045  0.00  0.00    -0.471 OA
ENDBRANCH   3   2
ENDBRANCH   7   6
ENDBRANCH   8   7
ENDBRANCH  11   9
BRANCH  16  17
ATOM     17  C   UNL     1      -3.136  -0.126  24.319  0.00  0.00    +0.100 C 
BRANCH  17  18
ATOM     18  C   UNL     1      -3.248  -0.913  24.542  0.00  0.00    -0.006 A 
ATOM     19  C   UNL     1      -3.359  -1.492  23.966  0.00  0.00    -0.002 A 
ATOM     20  C   UNL     1      -3.471  -2.278  24.189  0.00  0.00    +0.011 A 
ATOM     21  C   UNL     1      -3.473  -2.485  24.987  0.00  0.00    +0.058 A 
ATOM     22 CL   UNL     1      -3.586  -3.272  25.210  0.00  0.00    -0.082 Cl
ATOM     23  C   UNL     1      -3.362  -1.905  25.564  0.00  0.00    +0.011 A 
ATOM     24  C   UNL     1      -3.250  -1.118  25.341  0.00  0.00    -0.002 A 
ENDBRANCH  17  18
ENDBRANCH  16  17
TORSDOF 6
ENDMDL
MODEL 4
REMARK VINA RESULT:      -9.8      1.955      4.011
REMARK  Name = 
REMARK  6 active torsions:
REMARK  status: ('A' for Active; 'I' for Inactive)
REMARK    1  A    between atoms: O_2  and  C_3
REMARK    2  A    between atoms: C_6  and  C_7
REMARK    3  A    between atoms: C_7  and  N_8
REMARK    4  A    between atoms: C_9  and  C_11
REMARK    5  A    between atoms: N_16  and  C_17
REMARK    6  A    between atoms: C_17  and  C_18
REMARK                            x       y       z     vdW  Elec       q    Type
REMARK                         _______ _______ _______ _____ _____    ______ ____
ROOT
ATOM     11  C   UNL     1      -0.655   1.218  24.831  0.00  0.00    +0.143 C 
ATOM     12  C   UNL     1      -0.032   1.344  24.306  0.00  0.00    +0.072 C 
ATOM     13  C   UNL     1       0.246   0.724  23.838  0.00  0.00    +0.077 A 
ATOM     14  C   UNL     1      -0.100  -0.022  23.895  0.00  0.00    +0.090 A 
ATOM     15  C   UNL     1      -0.725  -0.149  24.420  0.00  0.00    +0.121 C 
ATOM     16  N   UNL     1      -1.002   0.472  24.887  0.00  0.00    -0.257 NA
ATOM     25  N   UNL     1       0.287  -0.524  23.368  0.00  0.00    -0.226 NA
ATOM     26  C   UNL     1       0.873  -0.088  22.985  0.00  0.00    +0.198 A 
ATOM     27  N   UNL     1       0.848   0.683  23.276  0.00  0.00    -0.227 NA
ENDROOT
BRANCH  11   9
ATOM      8  N   UNL     1      -1.500   2.357  25.000  0.00  0.00    -0.199 NA
ATOM      9  C   UNL     1      -0.932   1.838  25.298  0.00  0.00    +0.257 C 
ATOM     10  O   UNL     1      -0.643   1.939  26.064  0.00  0.00    -0.272 OA
BRANCH   8   7
ATOM      7  C   UNL     1      -1.778   2.978  25.468  0.00  0.00    +0.142 C 
BRANCH   7   6
ATOM      3  C   UNL     1      -4.086   3.820  25.165  0.00  0.00    +0.139 A 
ATOM      4  C   UNL     1      -3.629   3.621  24.507  0.00  0.00    +0.037 A 
ATOM      5  C   UNL     1      -2.859   3.341  24.608  0.00  0.00    +0.001 A 
ATOM      6  C   UNL     1      -2.547   3.259  25.367  0.00  0.00    -0.000 A 
ATOM     28  C   UNL     1      -3.003   3.457  26.025  0.00  0.00    +0.001 A 
ATOM     29  C   UNL     1      -3.772   3.738  25.924  0.00  0.00    +0.037 A 
BRANCH   3   2
ATOM      1  C   UNL     1      -5.484   3.720  25.436  0.00  0.00    +0.252 C 
ATOM      2  O   UNL     1      -4.855   4.100  25.064  0.00  0.00    -0.471 OA
ENDBRANCH   3   2
ENDBRANCH   7   6
ENDBRANCH   8   7
ENDBRANCH  11   9
BRANCH  16  17
ATOM     17  C   UNL     1      -1.626   0.345  25.412  0.00  0.00    +0.100 C 
BRANCH  17  18
ATOM     18  C   UNL     1      -2.107  -0.320  25.328  0.00  0.00    -0.006 A 
ATOM     19  C   UNL     1      -2.746  -0.303  24.808  0.00  0.00    -0.002 A 
ATOM     20  C   UNL     1      -3.228  -0.968  24.725  0.00  0.00    +0.011 A 
ATOM     21  C   UNL     1      -3.069  -1.650  25.161  0.00  0.00    +0.058 A 
ATOM     22 CL   UNL     1      -3.551  -2.315  25.077  0.00  0.00    -0.082 Cl
ATOM     23  C   UNL     1      -2.429  -1.666  25.682  0.00  0.00    +0.011 A 
ATOM     24  C   UNL     1      -1.948  -1.001  25.765  0.00  0.00    -0.002 A 
ENDBRANCH  17  18
ENDBRANCH  16  17
TORSDOF 6
ENDMDL
MODEL 5
REMARK VINA RESULT:      -9.7      2.700      5.646
REMARK  Name = 
REMARK  6 active torsions:
REMARK  status: ('A' for Active; 'I' for Inactive)
REMARK    1  A    between atoms: O_2  and  C_3
REMARK    2  A    between atoms: C_6  and  C_7
REMARK    3  A    between atoms: C_7  and  N_8
REMARK    4  A    between atoms: C_9  and  C_11
REMARK    5  A    between atoms: N_16  and  C_17
REMARK    6  A    between atoms: C_17  and  C_18
REMARK                            x       y       z     vdW  Elec       q    Type
REMARK                         _______ _______ _______ _____ _____    ______ ____
ROOT
ATOM     11  C   UNL     1      -0.731   0.428  24.860  0.00  0.00    +0.143 C 
ATOM     12  C   UNL     1      -0.234   0.004  24.357  0.00  0.00    +0.072 C 
ATOM     13  C   UNL     1       0.357   0.396  23.934  0.00  0.00    +0.077 A 
ATOM     14  C   UNL     1       0.449   1.212  24.014  0.00  0.00    +0.090 A 
ATOM     15  C   UNL     1      -0.049   1.636  24.518  0.00  0.00    +0.121 C 
ATOM     16  N   UNL     1      -0.639   1.244  24.941  0.00  0.00    -0.257 NA
ATOM     25  N   UNL     1       1.074   1.447  23.530  0.00  0.00    -0.226 NA
ATOM     26  C   UNL     1       1.368   0.776  23.151  0.00  0.00    +0.198 A 
ATOM     27  N   UNL     1       0.925   0.127  23.401  0.00  0.00    -0.227 NA
ENDROOT
BRANCH  11   9
ATOM      8  N   UNL     1      -1.962  -0.296  24.885  0.00  0.00    -0.199 NA
ATOM      9  C   UNL     1      -1.320   0.036  25.283  0.00  0.00    +0.257 C 
ATOM     10  O   UNL     1      -1.269  -0.024  26.105  0.00  0.00    -0.272 OA
BRANCH   8   7
ATOM      7  C   UNL     1      -2.552  -0.689  25.308  0.00  0.00    +0.142 C 
BRANCH   7   6
ATOM      3  C   UNL     1      -4.204  -2.094  24.116  0.00  0.00    +0.139 A 
ATOM      4  C   UNL     1      -3.601  -2.448  24.556  0.00  0.00    +0.037 A 
ATOM      5  C   UNL     1      -3.051  -1.980  24.953  0.00  0.00    +0.001 A 
ATOM      6  C   UNL     1      -3.103  -1.157  24.911  0.00  0.00    -0.000 A 
ATOM     28  C   UNL     1      -3.705  -0.804  24.472  0.00  0.00    +0.001 A 
ATOM     29  C   UNL     1      -4.255  -1.272  24.075  0.00  0.00    +0.037 A 
BRANCH   3   2
ATOM      1  C   UNL     1      -4.515  -3.263  23.357  0.00  0.00    +0.252 C 
ATOM      2  O   UNL     1      -4.755  -2.563  23.719  0.00  0.00    -0.471 OA
ENDBRANCH   3   2
ENDBRANCH   7   6
ENDBRANCH   8   7
ENDBRANCH  11   9
BRANCH  16  17
ATOM     17  C   UNL     1      -1.136   1.668  25.444  0.00  0.00    +0.100 C 
BRANCH  17  18
ATOM     18  C   UNL     1      -1.199   2.487  25.368  0.00  0.00    -0.006 A 
ATOM     19  C   UNL     1      -0.686   2.980  25.784  0.00  0.00    -0.002 A 
ATOM     20  C   UNL     1      -0.749   3.799  25.708  0.00  0.00    +0.011 A 
ATOM     21  C   UNL     1      -1.326   4.125  25.216  0.00  0.00    +0.058 A 
ATOM     22 CL   UNL     1      -1.389   4.944  25.140  0.00  0.00    -0.082 Cl
ATOM     23  C   UNL     1      -1.839   3.631  24.799  0.00  0.00    +0.011 A 
ATOM     24  C   UNL     1      -1.776   2.812  24.875  0.00  0.00    -0.002 A 
ENDBRANCH  17  18
ENDBRANCH  16  17
TORSDOF 6
ENDMDL
MODEL 6
REMARK VINA RESULT:      -9.6      2.162      4.591
REMARK  Name = 
REMARK  6 active torsions:
REMARK  status: ('A' for Active; 'I' for Inactive)
REMARK    1  A    between atoms: O_2  and  C_3
REMARK    2  A    between atoms: C_6  and  C_7
REMARK    3  A    between atoms: C_7  and  N_8
REMARK    4  A    between atoms: C_9  and  C_11
REMARK    5  A    between atoms: N_16  and  C_17
REMARK    6  A    between atoms: C_17  and  C_18
REMARK                            x       y       z     vdW  Elec       q    Type
REMARK                         _______ _______ _______ _____ _____    ______ ____
ROOT
ATOM     11  C   UNL     1      -2.261   2.200  24.090  0.00  0.00    +0.143 C 
ATOM     12  C   UNL     1      -1.465   2.339  24.252  0.00  0.00    +0.072 C 
ATOM     13  C   UNL     1      -1.240   3.012  24.674  0.00  0.00    +0.077 A 
ATOM     14  C   UNL     1      -1.814   3.545  24.934  0.00  0.00    +0.090 A 
ATOM     15  C   UNL     1      -2.611   3.406  24.772  0.00  0.00    +0.121 C 
ATOM     16  N   UNL     1      -2.834   2.733  24.350  0.00  0.00    -0.257 NA
ATOM     25  N   UNL     1      -1.431   4.156  25.335  0.00  0.00    -0.226 NA
ATOM     26  C   UNL     1      -0.621   4.000  25.323  0.00  0.00    +0.198 A 
ATOM     27  N   UNL     1      -0.504   3.293  24.915  0.00  0.00    -0.227 NA
ENDROOT
BRANCH  11   9
ATOM      8  N   UNL     1      -2.580   0.808  24.060  0.00  0.00    -0.199 NA
ATOM      9  C   UNL     1      -2.485   1.528  23.669  0.00  0.00    +0.257 C 
ATOM     10  O   UNL     1      -2.614   1.574  22.855  0.00  0.00    -0.272 OA
BRANCH   8   7
ATOM      7  C   UNL     1      -2.804   0.134  23.638  0.00  0.00    +0.142 C 
BRANCH   7   6
ATOM      3  C   UNL     1      -3.384  -1.947  24.846  0.00  0.00    +0.139 A 
ATOM      4  C   UNL     1      -2.609  -1.661  24.864  0.00  0.00    +0.037 A 
ATOM      5  C   UNL     1      -2.416  -0.967  24.461  0.00  0.00    +0.001 A 
ATOM      6  C   UNL     1      -2.997  -0.559  24.041  0.00  0.00    -0.000 A 
ATOM     28  C   UNL     1      -3.770  -0.845  24.023  0.00  0.00    +0.001 A 
ATOM     29  C   UNL     1      -3.964  -1.538  24.425  0.00  0.00    +0.037 A 
BRANCH   3   2
ATOM      1  C   UNL     1      -3.543  -3.366  24.858  0.00  0.00    +0.252 C 
ATOM      2  O   UNL     1      -3.577  -2.641  25.248  0.00  0.00    -0.471 OA
ENDBRANCH   3   2
ENDBRANCH   7   6
ENDBRANCH   8   7
ENDBRANCH  11   9
BRANCH  16  17
ATOM     17  C   UNL     1      -3.631   2.595  24.188  0.00  0.00    +0.100 C 
BRANCH  17  18
ATOM     18  C   UNL     1      -4.214   2.991  24.616  0.00  0.00    -0.006 A 
ATOM     19  C   UNL     1      -4.460   3.742  24.381  0.00  0.00    -0.002 A 
ATOM     20  C   UNL     1      -5.043   4.138  24.810  0.00  0.00    +0.011 A 
ATOM     21  C   UNL     1      -5.381   3.783  25.473  0.00  0.00    +0.058 A 
ATOM     22 CL   UNL     1      -5.965   4.180  25.901  0.00  0.00    -0.082 Cl
ATOM     23  C   UNL     1      -5.135   3.031  25.708  0.00  0.00    +0.011 A 
ATOM     24  C   UNL     1      -4.552   2.635  25.280  0.00  0.00    -0.002 A 
ENDBRANCH  17  18
ENDBRANCH  16  17
TORSDOF 6
ENDMDL
MODEL 7
REMARK VINA RESULT:      -9.4      1.832      4.331
REMARK  Name = 
REMARK  6 active torsions:
REMARK  status: ('A' for Active; 'I' for Inactive)
REMARK    1  A    between atoms: O_2  and  C_3
REMARK    2  A    between atoms: C_6  and  C_7
REMARK    3  A    between atoms: C_7  and  N_8
REMARK    4  A    between atoms: C_9  and  C_11
REMARK    5  A    between atoms: N_16  and  C_17
REMARK    6  A    between atoms: C_17  and  C_18
REMARK                            x       y       z     vdW  Elec       q    Type
REMARK                         _______ _______ _______ _____ _____    ______ ____
ROOT
ATOM     11  C   UNL     1      -1.588   2.168  24.656  0.00  0.00    +0.143 C 
ATOM     12  C   UNL     1      -1.305   2.850  25.022  0.00  0.00    +0.072 C 
ATOM     13  C   UNL     1      -0.605   2.825  25.459  0.00  0.00    +0.077 A 
ATOM     14  C   UNL     1      -0.189   2.117  25.530  0.00  0.00    +0.090 A 
ATOM     15  C   UNL     1      -0.472   1.433  25.164  0.00  0.00    +0.121 C 
ATOM     16  N   UNL     1      -1.171   1.459  24.727  0.00  0.00    -0.257 NA
ATOM     25  N   UNL     1       0.479   2.258  25.992  0.00  0.00    -0.226 NA
ATOM     26  C   UNL     1       0.476   3.055  26.208  0.00  0.00    +0.198 A 
ATOM     27  N   UNL     1      -0.195   3.404  25.878  0.00  0.00    -0.227 NA
ENDROOT
BRANCH  11   9
ATOM      8  N   UNL     1      -3.014   2.224  24.608  0.00  0.00    -0.199 NA
ATOM      9  C   UNL     1      -2.286   2.193  24.220  0.00  0.00    +0.257 C 
ATOM     10  O   UNL     1      -2.259   2.188  23.395  0.00  0.00    -0.272 OA
BRANCH   8   7
ATOM      7  C   UNL     1      -3.714   2.249  24.171  0.00  0.00    +0.142 C 
BRANCH   7   6
ATOM      3  C   UNL     1      -5.897   2.031  25.317  0.00  0.00    +0.139 A 
ATOM      4  C   UNL     1      -5.528   1.363  25.002  0.00  0.00    +0.037 A 
ATOM      5  C   UNL     1      -4.800   1.436  24.620  0.00  0.00    +0.001 A 
ATOM      6  C   UNL     1      -4.442   2.176  24.553  0.00  0.00    -0.000 A 
ATOM     28  C   UNL     1      -4.810   2.843  24.868  0.00  0.00    +0.001 A 
ATOM     29  C   UNL     1      -5.538   2.771  25.250  0.00  0.00    +0.037 A 
BRANCH   3   2
ATOM      1  C   UNL     1      -6.652   1.859  26.517  0.00  0.00    +0.252 C 
ATOM      2  O   UNL     1      -6.624   1.959  25.699  0.00  0.00    -0.471 OA
ENDBRANCH   3   2
ENDBRANCH   7   6
ENDBRANCH   8   7
ENDBRANCH  11   9
BRANCH  16  17
ATOM     17  C   UNL     1      -1.453   0.776  24.361  0.00  0.00    +0.100 C 
BRANCH  17  18
ATOM     18  C   UNL     1      -1.191   0.035  24.612  0.00  0.00    -0.006 A 
ATOM     19  C   UNL     1      -1.547  -0.331  25.259  0.00  0.00    -0.002 A 
ATOM     20  C   UNL     1      -1.285  -1.072  25.510  0.00  0.00    +0.011 A 
ATOM     21  C   UNL     1      -0.667  -1.447  25.113  0.00  0.00    +0.058 A 
ATOM     22 CL   UNL     1      -0.405  -2.188  25.364  0.00  0.00    -0.082 Cl
ATOM     23  C   UNL     1      -0.311  -1.081  24.464  0.00  0.00    +0.011 A 
ATOM     24  C   UNL     1      -0.573  -0.340  24.214  0.00  0.00    -0.002 A 
ENDBRANCH  17  18
ENDBRANCH  16  17
TORSDOF 6
ENDMDL
MODEL 8
REMARK VINA RESULT:      -9.4      2.170      4.661
REMARK  Name = 
REMARK  6 active torsions:
REMARK  status: ('A' for Active; 'I' for Inactive)
REMARK    1  A    between atoms: O_2  and  C_3
REMARK    2  A    between atoms: C_6  and  C_7
REMARK    3  A    between atoms: C_7  and  N_8
REMARK    4  A    between atoms: C_9  and  C_11
REMARK    5  A    between atoms: N_16  and  C_17
REMARK    6  A    between atoms: C_17  and  C_18
REMARK                            x       y       z     vdW  Elec       q    Type
REMARK                         _______ _______ _______ _____ _____    ______ ____
ROOT
ATOM     11  C   UNL     1      -2.397   0.275  24.257  0.00  0.00    +0.143 C 
ATOM     12  C   UNL     1      -2.576  -0.526  24.336  0.00  0.00    +0.072 C 
ATOM     13  C   UNL     1      -2.027  -1.041  24.675  0.00  0.00    +0.077 A 
ATOM     14  C   UNL     1      -1.298  -0.754  24.933  0.00  0.00    +0.090 A 
ATOM     15  C   UNL     1      -1.118   0.048  24.854  0.00  0.00    +0.121 C 
ATOM     16  N   UNL     1      -1.668   0.562  24.515  0.00  0.00    -0.257 NA
ATOM     25  N   UNL     1      -0.870  -1.387  25.242  0.00  0.00    -0.226 NA
ATOM     26  C   UNL     1      -1.334  -2.065  25.175  0.00  0.00    +0.198 A 
ATOM     27  N   UNL     1      -2.049  -1.851  24.824  0.00  0.00    -0.227 NA
ENDROOT
BRANCH  11   9
ATOM      8  N   UNL     1      -3.567   1.085  24.373  0.00  0.00    -0.199 NA
ATOM      9  C   UNL     1      -2.945   0.789  23.919  0.00  0.00    +0.257 C 
ATOM     10  O   UNL     1      -2.873   1.008  23.126  0.00  0.00    -0.272 OA
BRANCH   8   7
ATOM      7  C   UNL     1      -4.117   1.600  24.034  0.00  0.00    +0.142 C 
BRANCH   7   6
ATOM      3  C   UNL     1      -5.494   3.063  25.479  0.00  0.00    +0.139 A 
ATOM      4  C   UNL     1      -5.652   2.254  25.442  0.00  0.00    +0.037 A 
ATOM      5  C   UNL     1      -5.193   1.766  24.960  0.00  0.00    +0.001 A 
ATOM      6  C   UNL     1      -4.576   2.088  24.516  0.00  0.00    -0.000 A 
ATOM     28  C   UNL     1      -4.419   2.896  24.553  0.00  0.00    +0.001 A 
ATOM     29  C   UNL     1      -4.878   3.384  25.035  0.00  0.00    +0.037 A 
BRANCH   3   2
ATOM      1  C   UNL     1      -6.084   4.336  25.746  0.00  0.00    +0.252 C 
ATOM      2  O   UNL     1      -5.953   3.551  25.961  0.00  0.00    -0.471 OA
ENDBRANCH   3   2
ENDBRANCH   7   6
ENDBRANCH   8   7
ENDBRANCH  11   9
BRANCH  16  17
ATOM     17  C   UNL     1      -1.487   1.363  24.436  0.00  0.00    +0.100 C 
BRANCH  17  18
ATOM     18  C   UNL     1      -0.947   1.717  24.949  0.00  0.00    -0.006 A 
ATOM     19  C   UNL     1      -1.188   1.956  25.700  0.00  0.00    -0.002 A 
ATOM     20  C   UNL     1      -0.648   2.311  26.213  0.00  0.00    +0.011 A 
ATOM     21  C   UNL     1       0.133   2.427  25.975  0.00  0.00    +0.058 A 
ATOM     22 CL   UNL     1       0.674   2.781  26.488  0.00  0.00    -0.082 Cl
ATOM     23  C   UNL     1       0.374   2.187  25.222  0.00  0.00    +0.011 A 
ATOM     24  C   UNL     1      -0.166   1.833  24.709  0.00  0.00    -0.002 A 
ENDBRANCH  17  18
ENDBRANCH  16  17
TORSDOF 6
ENDMDL
MODEL 9
REMARK VINA RESULT:      -7.6     15.917     18.428
REMARK  Name = 
REMARK  6 active torsions:
REMARK  status: ('A' for Active; 'I' for Inactive)
REMARK    1  A    between atoms: O_2  and  C_3
REMARK    2  A    between atoms: C_6  and  C_7
REMARK    3  A    between atoms: C_7  and  N_8
REMARK    4  A    between atoms: C_9  and  C_11
REMARK    5  A    between atoms: N_16  and  C_17
REMARK    6  A    between atoms: C_17  and  C_18
REMARK                            x       y       z     vdW  Elec       q    Type
REMARK                         _______ _______ _______ _____ _____    ______ ____
ROOT
ATOM     11  C   UNL     1      13.005   8.416  19.421  0.00  0.00    +0.143 C 
ATOM     12  C   UNL     1      12.947   8.559  18.611  0.00  0.00    +0.072 C 
ATOM     13  C   UNL     1      12.212   8.523  18.237  0.00  0.00    +0.077 A 
ATOM     14  C   UNL     1      11.536   8.343  18.673  0.00  0.00    +0.090 A 
ATOM     15  C   UNL     1      11.593   8.200  19.484  0.00  0.00    +0.121 C 
ATOM     16  N   UNL     1      12.328   8.236  19.857  0.00  0.00    -0.257 NA
ATOM     25  N   UNL     1      10.892   8.346  18.158  0.00  0.00    -0.226 NA
ATOM     26  C   UNL     1      11.170   8.527  17.403  0.00  0.00    +0.198 A 
ATOM     27  N   UNL     1      11.986   8.637  17.452  0.00  0.00    -0.227 NA
ENDROOT
BRANCH  11   9
ATOM      8  N   UNL     1      14.291   7.852  19.678  0.00  0.00    -0.199 NA
ATOM      9  C   UNL     1      13.738   8.453  19.795  0.00  0.00    +0.257 C 
ATOM     10  O   UNL     1      13.920   9.090  20.287  0.00  0.00    -0.272 OA
BRANCH   8   7
ATOM      7  C   UNL     1      15.026   7.888  20.052  0.00  0.00    +0.142 C 
BRANCH   7   6
ATOM      3  C   UNL     1      16.789   6.247  19.480  0.00  0.00    +0.139 A 
ATOM      4  C   UNL     1      16.664   6.462  20.268  0.00  0.00    +0.037 A 
ATOM      5  C   UNL     1      16.076   7.008  20.458  0.00  0.00    +0.001 A 
ATOM      6  C   UNL     1      15.614   7.341  19.861  0.00  0.00    -0.000 A 
ATOM     28  C   UNL     1      15.739   7.128  19.075  0.00  0.00    +0.001 A 
ATOM     29  C   UNL     1      16.326   6.581  18.885  0.00  0.00    +0.037 A 
BRANCH   3   2
ATOM      1  C   UNL     1      17.360   5.315  18.562  0.00  0.00    +0.252 C 
ATOM      2  O   UNL     1      17.377   5.700  19.290  0.00  0.00    -0.471 OA
ENDBRANCH   3   2
ENDBRANCH   7   6
ENDBRANCH   8   7
ENDBRANCH  11   9
BRANCH  16  17
ATOM     17  C   UNL     1      12.385   8.093  20.668  0.00  0.00    +0.100 C 
BRANCH  17  18
ATOM     18  C   UNL     1      11.730   7.814  21.085  0.00  0.00    -0.006 A 
ATOM     19  C   UNL     1      11.602   7.003  21.156  0.00  0.00    -0.002 A 
ATOM     20  C   UNL     1      10.947   6.724  21.574  0.00  0.00    +0.011 A 
ATOM     21  C   UNL     1      10.421   7.257  21.920  0.00  0.00    +0.058 A 
ATOM     22 CL   UNL     1       9.766   6.978  22.337  0.00  0.00    -0.082 Cl
ATOM     23  C   UNL     1      10.550   8.069  21.848  0.00  0.00    +0.011 A 
ATOM     24  C   UNL     1      11.204   8.348  21.431  0.00  0.00    -0.002 A 
ENDBRANCH  17  18
ENDBRANCH  16  17
TORSDOF 6
ENDMDL
MODEL 10
REMARK VINA RESULT:      -7.3     16.155     18.897
REMARK  Name = 
REMARK  6 active torsions:
REMARK  status: ('A' for Active; 'I' for Inactive)
REMARK    1  A    between atoms: O_2  and  C_3
REMARK    2  A    between atoms: C_6  and  C_7
REMARK    3  A    between atoms: C_7  and  N_8
REMARK    4  A    between atoms: C_9  and  C_11
REMARK    5  A    between atoms: N_16  and  C_17
REMARK    6  A    between atoms: C_17  and  C_18
REMARK                            x       y       z     vdW  Elec       q    Type
REMARK                         _______ _______ _______ _____ _____    ______ ____
ROOT
ATOM     11  C   UNL     1      13.422   8.362  19.051  0.00  0.00    +0.143 C 
ATOM     12  C   UNL     1      13.014   8.506  18.350  0.00  0.00    +0.072 C 
ATOM     13  C   UNL     1      13.398   8.427  17.624  0.00  0.00    +0.077 A 
ATOM     14  C   UNL     1      14.192   8.204  17.600  0.00  0.00    +0.090 A 
ATOM     15  C   UNL     1      14.602   8.059  18.302  0.00  0.00    +0.121 C 
ATOM     16  N   UNL     1      14.216   8.138  19.027  0.00  0.00    -0.257 NA
ATOM     25  N   UNL     1      14.424   8.170  16.810  0.00  0.00    -0.226 NA
ATOM     26  C   UNL     1      13.774   8.373  16.344  0.00  0.00    +0.198 A 
ATOM     27  N   UNL     1      13.141   8.532  16.848  0.00  0.00    -0.227 NA
ENDROOT
BRANCH  11   9
ATOM      8  N   UNL     1      12.499   7.867  20.021  0.00  0.00    -0.199 NA
ATOM      9  C   UNL     1      13.038   8.441  19.776  0.00  0.00    +0.257 C 
ATOM     10  O   UNL     1      13.192   9.094  20.257  0.00  0.00    -0.272 OA
BRANCH   8   7
ATOM      7  C   UNL     1      12.113   7.946  20.747  0.00  0.00    +0.142 C 
BRANCH   7   6
ATOM      3  C   UNL     1      10.828   6.047  21.679  0.00  0.00    +0.139 A 
ATOM      4  C   UNL     1      11.511   5.906  21.238  0.00  0.00    +0.037 A 
ATOM      5  C   UNL     1      11.940   6.539  20.927  0.00  0.00    +0.001 A 
ATOM      6  C   UNL     1      11.685   7.313  21.058  0.00  0.00    -0.000 A 
ATOM     28  C   UNL     1      11.003   7.454  21.499  0.00  0.00    +0.001 A 
ATOM     29  C   UNL     1      10.574   6.821  21.810  0.00  0.00    +0.037 A 
BRANCH   3   2
ATOM      1  C   UNL     1      10.598   4.642  21.784  0.00  0.00    +0.252 C 
ATOM      2  O   UNL     1      10.400   5.414  21.990  0.00  0.00    -0.471 OA
ENDBRANCH   3   2
ENDBRANCH   7   6
ENDBRANCH   8   7
ENDBRANCH  11   9
BRANCH  16  17
ATOM     17  C   UNL     1      14.626   7.994  19.729  0.00  0.00    +0.100 C 
BRANCH  17  18
ATOM     18  C   UNL     1      15.318   7.545  19.718  0.00  0.00    -0.006 A 
ATOM     19  C   UNL     1      16.051   7.918  19.779  0.00  0.00    -0.002 A 
ATOM     20  C   UNL     1      16.743   7.469  19.768  0.00  0.00    +0.011 A 
ATOM     21  C   UNL     1      16.703   6.649  19.696  0.00  0.00    +0.058 A 
ATOM     22 CL   UNL     1      17.395   6.200  19.685  0.00  0.00    -0.082 Cl
ATOM     23  C   UNL     1      15.968   6.276  19.635  0.00  0.00    +0.011 A 
ATOM     24  C   UNL     1      15.276   6.724  19.646  0.00  0.00    -0.002 A 
ENDBRANCH  17  18
ENDBRANCH  16  17
TORSDOF 6
ENDMDL
