MODEL 1
REMARK VINA RESULT:     -11.8      0.000      0.000
REMARK  Name = 
REMARK  5 active torsions:
REMARK  status: ('A' for Active; 'I' for Inactive)
REMARK    1  A    between atoms: O_2  and  C_3
REMARK    2  A    between atoms: C_6  and  C_9
REMARK    3  A    between atoms: C_12  and  C_14
REMARK    4  A    between atoms: N_18  and  C_19
REMARK    5  A    between atoms: C_19  and  C_20
REMARK                            x       y       z     vdW  Elec       q    Type
REMARK                         _______ _______ _______ _____ _____    ______ ____
ROOT
ATOM     14  C   UNL     1      -4.060   2.408  24.257  0.00  0.00    +0.138 C 
ATOM     15  C   UNL     1      -4.502   2.710  23.629  0.00  0.00    +0.027 C 
ATOM     16  C   UNL     1      -4.184   3.441  23.420  0.00  0.00    +0.019 C 
ATOM     17  C   UNL     1      -3.544   3.593  23.919  0.00  0.00    +0.073 C 
ATOM     18  N   UNL     1      -3.467   2.954  24.436  0.00  0.00    -0.263 NA
ENDROOT
BRANCH  14  12
ATOM      9  C   UNL     1      -4.149   0.389  24.943  0.00  0.00    +0.205 A 
ATOM     10  N   UNL     1      -4.616   0.769  25.507  0.00  0.00    -0.056 NA
ATOM     11  O   UNL     1      -4.639   1.573  25.318  0.00  0.00    -0.336 OA
ATOM     12  C   UNL     1      -4.187   1.688  24.638  0.00  0.00    +0.251 A 
ATOM     13  N   UNL     1      -3.884   0.956  24.406  0.00  0.00    -0.190 NA
BRANCH   9   6
ATOM      3  C   UNL     1      -3.634  -2.031  24.874  0.00  0.00    +0.225 A 
ATOM      4  N   UNL     1      -3.433  -1.585  25.538  0.00  0.00    -0.210 NA
ATOM      5  C   UNL     1      -3.605  -0.778  25.561  0.00  0.00    +0.105 A 
ATOM      6  C   UNL     1      -3.977  -0.418  24.920  0.00  0.00    +0.058 A 
ATOM      7  C   UNL     1      -4.179  -0.863  24.255  0.00  0.00    +0.010 A 
ATOM      8  C   UNL     1      -4.007  -1.670  24.232  0.00  0.00    +0.058 A 
BRANCH   3   2
ATOM      1  C   UNL     1      -2.775  -3.102  24.479  0.00  0.00    +0.254 C 
ATOM      2  O   UNL     1      -3.463  -2.838  24.851  0.00  0.00    -0.456 OA
ENDBRANCH   3   2
ENDBRANCH   9   6
ENDBRANCH  14  12
BRANCH  18  19
ATOM     19  C   UNL     1      -2.898   2.876  25.028  0.00  0.00    +0.100 C 
BRANCH  19  20
ATOM     20  C   UNL     1      -2.249   3.383  25.046  0.00  0.00    -0.004 A 
ATOM     21  C   UNL     1      -2.329   4.145  25.350  0.00  0.00    +0.029 A 
ATOM     22  C   UNL     1      -1.678   4.653  25.368  0.00  0.00    +0.167 A 
ATOM     23  F   UNL     1      -1.759   5.416  25.673  0.00  0.00    -0.202 F 
ATOM     24  C   UNL     1      -0.948   4.398  25.081  0.00  0.00    +0.167 A 
ATOM     25  F   UNL     1      -0.298   4.906  25.099  0.00  0.00    -0.202 F 
ATOM     26  C   UNL     1      -0.868   3.636  24.776  0.00  0.00    +0.032 A 
ATOM     27  C   UNL     1      -1.518   3.128  24.759  0.00  0.00    -0.000 A 
ENDBRANCH  19  20
ENDBRANCH  18  19
TORSDOF 5
ENDMDL
MODEL 2
REMARK VINA RESULT:     -11.4      2.719      5.364
REMARK  Name = 
REMARK  5 active torsions:
REMARK  status: ('A' for Active; 'I' for Inactive)
REMARK    1  A    between atoms: O_2  and  C_3
REMARK    2  A    between atoms: C_6  and  C_9
REMARK    3  A    between atoms: C_12  and  C_14
REMARK    4  A    between atoms: N_18  and  C_19
REMARK    5  A    between atoms: C_19  and  C_20
REMARK                            x       y       z     vdW  Elec       q    Type
REMARK                         _______ _______ _______ _____ _____    ______ ____
ROOT
ATOM     14  C   UNL     1      -4.525   1.387  24.805  0.00  0.00    +0.138 C 
ATOM     15  C   UNL     1      -5.251   1.571  25.152  0.00  0.00    +0.027 C 
ATOM     16  C   UNL     1      -5.609   0.865  25.386  0.00  0.00    +0.019 C 
ATOM     17  C   UNL     1      -5.104   0.245  25.184  0.00  0.00    +0.073 C 
ATOM     18  N   UNL     1      -4.434   0.567  24.824  0.00  0.00    -0.263 NA
ENDROOT
BRANCH  14  12
ATOM      9  C   UNL     1      -3.006   2.829  24.393  0.00  0.00    +0.205 A 
ATOM     10  N   UNL     1      -3.305   2.691  23.635  0.00  0.00    -0.056 NA
ATOM     11  O   UNL     1      -3.911   2.134  23.698  0.00  0.00    -0.336 OA
ATOM     12  C   UNL     1      -3.986   1.927  24.493  0.00  0.00    +0.251 A 
ATOM     13  N   UNL     1      -3.427   2.357  24.922  0.00  0.00    -0.190 NA
BRANCH   9   6
ATOM      3  C   UNL     1      -1.170   4.385  24.971  0.00  0.00    +0.225 A 
ATOM      4  N   UNL     1      -1.004   3.675  24.585  0.00  0.00    -0.210 NA
ATOM      5  C   UNL     1      -1.616   3.156  24.392  0.00  0.00    +0.105 A 
ATOM      6  C   UNL     1      -2.394   3.347  24.585  0.00  0.00    +0.058 A 
ATOM      7  C   UNL     1      -2.562   4.057  24.971  0.00  0.00    +0.010 A 
ATOM      8  C   UNL     1      -1.950   4.576  25.164  0.00  0.00    +0.058 A 
BRANCH   3   2
ATOM      1  C   UNL     1      -0.535   5.656  24.826  0.00  0.00    +0.254 C 
ATOM      2  O   UNL     1      -0.558   4.903  25.163  0.00  0.00    -0.456 OA
ENDBRANCH   3   2
ENDBRANCH   9   6
ENDBRANCH  14  12
BRANCH  18  19
ATOM     19  C   UNL     1      -3.788   0.144  24.536  0.00  0.00    +0.100 C 
BRANCH  19  20
ATOM     20  C   UNL     1      -3.771  -0.678  24.598  0.00  0.00    -0.004 A 
ATOM     21  C   UNL     1      -4.101  -1.143  24.002  0.00  0.00    +0.029 A 
ATOM     22  C   UNL     1      -4.085  -1.966  24.064  0.00  0.00    +0.167 A 
ATOM     23  F   UNL     1      -4.415  -2.432  23.468  0.00  0.00    -0.202 F 
ATOM     24  C   UNL     1      -3.739  -2.323  24.723  0.00  0.00    +0.167 A 
ATOM     25  F   UNL     1      -3.723  -3.146  24.785  0.00  0.00    -0.202 F 
ATOM     26  C   UNL     1      -3.409  -1.858  25.318  0.00  0.00    +0.032 A 
ATOM     27  C   UNL     1      -3.425  -1.036  25.257  0.00  0.00    -0.000 A 
ENDBRANCH  19  20
ENDBRANCH  18  19
TORSDOF 5
ENDMDL
MODEL 3
REMARK VINA RESULT:     -11.1      3.165      5.775
REMARK  Name = 
REMARK  5 active torsions:
REMARK  status: ('A' for Active; 'I' for Inactive)
REMARK    1  A    between atoms: O_2  and  C_3
REMARK    2  A    between atoms: C_6  and  C_9
REMARK    3  A    between atoms: C_12  and  C_14
REMARK    4  A    between atoms: N_18  and  C_19
REMARK    5  A    between atoms: C_19  and  C_20
REMARK                            x       y       z     vdW  Elec       q    Type
REMARK                         _______ _______ _______ _____ _____    ______ ____
ROOT
ATOM     14  C   UNL     1      -0.892  -0.164  24.762  0.00  0.00    +0.138 C 
ATOM     15  C   UNL     1      -0.238  -0.439  24.340  0.00  0.00    +0.027 C 
ATOM     16  C   UNL     1      -0.433  -1.172  24.017  0.00  0.00    +0.019 C 
ATOM     17  C   UNL     1      -1.208  -1.351  24.238  0.00  0.00    +0.073 C 
ATOM     18  N   UNL     1      -1.492  -0.727  24.699  0.00  0.00    -0.263 NA
ENDROOT
BRANCH  14  12
ATOM      9  C   UNL     1      -1.113   1.841  25.460  0.00  0.00    +0.205 A 
ATOM     10  N   UNL     1      -0.904   1.452  26.158  0.00  0.00    -0.056 NA
ATOM     11  O   UNL     1      -0.796   0.653  25.981  0.00  0.00    -0.336 OA
ATOM     12  C   UNL     1      -0.938   0.549  25.175  0.00  0.00    +0.251 A 
ATOM     13  N   UNL     1      -1.133   1.283  24.853  0.00  0.00    -0.190 NA
BRANCH   9   6
ATOM      3  C   UNL     1      -1.591   4.259  25.232  0.00  0.00    +0.225 A 
ATOM      4  N   UNL     1      -2.211   3.722  25.322  0.00  0.00    -0.210 NA
ATOM      5  C   UNL     1      -2.051   2.916  25.398  0.00  0.00    +0.105 A 
ATOM      6  C   UNL     1      -1.272   2.647  25.384  0.00  0.00    +0.058 A 
ATOM      7  C   UNL     1      -0.651   3.183  25.294  0.00  0.00    +0.010 A 
ATOM      8  C   UNL     1      -0.811   3.989  25.218  0.00  0.00    +0.058 A 
BRANCH   3   2
ATOM      1  C   UNL     1      -1.160   5.578  24.894  0.00  0.00    +0.254 C 
ATOM      2  O   UNL     1      -1.751   5.064  25.156  0.00  0.00    -0.456 OA
ENDBRANCH   3   2
ENDBRANCH   9   6
ENDBRANCH  14  12
BRANCH  18  19
ATOM     19  C   UNL     1      -2.242  -0.677  25.037  0.00  0.00    +0.100 C 
BRANCH  19  20
ATOM     20  C   UNL     1      -2.856  -1.147  24.751  0.00  0.00    -0.004 A 
ATOM     21  C   UNL     1      -2.956  -1.914  25.036  0.00  0.00    +0.029 A 
ATOM     22  C   UNL     1      -3.570  -2.385  24.749  0.00  0.00    +0.167 A 
ATOM     23  F   UNL     1      -3.669  -3.153  25.035  0.00  0.00    -0.202 F 
ATOM     24  C   UNL     1      -4.085  -2.087  24.178  0.00  0.00    +0.167 A 
ATOM     25  F   UNL     1      -4.700  -2.557  23.891  0.00  0.00    -0.202 F 
ATOM     26  C   UNL     1      -3.986  -1.319  23.893  0.00  0.00    +0.032 A 
ATOM     27  C   UNL     1      -3.372  -0.849  24.179  0.00  0.00    -0.000 A 
ENDBRANCH  19  20
ENDBRANCH  18  19
TORSDOF 5
ENDMDL
MODEL 4
REMARK VINA RESULT:     -10.8      1.855      2.619
REMARK  Name = 
REMARK  5 active torsions:
REMARK  status: ('A' for Active; 'I' for Inactive)
REMARK    1  A    between atoms: O_2  and  C_3
REMARK    2  A    between atoms: C_6  and  C_9
REMARK    3  A    between atoms: C_12  and  C_14
REMARK    4  A    between atoms: N_18  and  C_19
REMARK    5  A    between atoms: C_19  and  C_20
REMARK                            x       y       z     vdW  Elec       q    Type
REMARK                         _______ _______ _______ _____ _____    ______ ____
ROOT
ATOM     14  C   UNL     1      -0.628   1.657  25.642  0.00  0.00    +0.138 C 
ATOM     15  C   UNL     1      -0.108   1.525  26.269  0.00  0.00    +0.027 C 
ATOM     16  C   UNL     1       0.073   2.254  26.609  0.00  0.00    +0.019 C 
ATOM     17  C   UNL     1      -0.334   2.838  26.191  0.00  0.00    +0.073 C 
ATOM     18  N   UNL     1      -0.768   2.468  25.594  0.00  0.00    -0.263 NA
ENDROOT
BRANCH  14  12
ATOM      9  C   UNL     1      -1.703   0.073  24.697  0.00  0.00    +0.205 A 
ATOM     10  N   UNL     1      -1.193   0.304  24.090  0.00  0.00    -0.056 NA
ATOM     11  O   UNL     1      -0.728   0.926  24.370  0.00  0.00    -0.336 OA
ATOM     12  C   UNL     1      -0.950   1.079  25.150  0.00  0.00    +0.251 A 
ATOM     13  N   UNL     1      -1.553   0.552  25.351  0.00  0.00    -0.190 NA
BRANCH   9   6
ATOM      3  C   UNL     1      -3.385  -1.737  24.572  0.00  0.00    +0.225 A 
ATOM      4  N   UNL     1      -2.589  -1.921  24.685  0.00  0.00    -0.210 NA
ATOM      5  C   UNL     1      -2.028  -1.317  24.727  0.00  0.00    +0.105 A 
ATOM      6  C   UNL     1      -2.264  -0.530  24.655  0.00  0.00    +0.058 A 
ATOM      7  C   UNL     1      -3.060  -0.346  24.542  0.00  0.00    +0.010 A 
ATOM      8  C   UNL     1      -3.621  -0.949  24.500  0.00  0.00    +0.058 A 
BRANCH   3   2
ATOM      1  C   UNL     1      -4.287  -2.538  23.805  0.00  0.00    +0.254 C 
ATOM      2  O   UNL     1      -3.946  -2.341  24.530  0.00  0.00    -0.456 OA
ENDBRANCH   3   2
ENDBRANCH   9   6
ENDBRANCH  14  12
BRANCH  18  19
ATOM     19  C   UNL     1      -1.255   2.845  25.045  0.00  0.00    +0.100 C 
BRANCH  19  20
ATOM     20  C   UNL     1      -1.377   3.659  25.092  0.00  0.00    -0.004 A 
ATOM     21  C   UNL     1      -0.815   4.179  24.787  0.00  0.00    +0.029 A 
ATOM     22  C   UNL     1      -0.937   4.994  24.834  0.00  0.00    +0.167 A 
ATOM     23  F   UNL     1      -0.374   5.514  24.528  0.00  0.00    -0.202 F 
ATOM     24  C   UNL     1      -1.623   5.288  25.186  0.00  0.00    +0.167 A 
ATOM     25  F   UNL     1      -1.746   6.103  25.233  0.00  0.00    -0.202 F 
ATOM     26  C   UNL     1      -2.186   4.768  25.491  0.00  0.00    +0.032 A 
ATOM     27  C   UNL     1      -2.063   3.954  25.444  0.00  0.00    -0.000 A 
ENDBRANCH  19  20
ENDBRANCH  18  19
TORSDOF 5
ENDMDL
MODEL 5
REMARK VINA RESULT:     -10.6      2.981      5.383
REMARK  Name = 
REMARK  5 active torsions:
REMARK  status: ('A' for Active; 'I' for Inactive)
REMARK    1  A    between atoms: O_2  and  C_3
REMARK    2  A    between atoms: C_6  and  C_9
REMARK    3  A    between atoms: C_12  and  C_14
REMARK    4  A    between atoms: N_18  and  C_19
REMARK    5  A    between atoms: C_19  and  C_20
REMARK                            x       y       z     vdW  Elec       q    Type
REMARK                         _______ _______ _______ _____ _____    ______ ____
ROOT
ATOM     14  C   UNL     1      -2.225   0.579  24.369  0.00  0.00    +0.138 C 
ATOM     15  C   UNL     1      -1.405   0.600  24.275  0.00  0.00    +0.027 C 
ATOM     16  C   UNL     1      -1.107  -0.147  24.459  0.00  0.00    +0.019 C 
ATOM     17  C   UNL     1      -1.743  -0.631  24.667  0.00  0.00    +0.073 C 
ATOM     18  N   UNL     1      -2.434  -0.182  24.611  0.00  0.00    -0.263 NA
ENDROOT
BRANCH  14  12
ATOM      9  C   UNL     1      -3.640   2.175  24.451  0.00  0.00    +0.205 A 
ATOM     10  N   UNL     1      -3.444   2.176  23.649  0.00  0.00    -0.056 NA
ATOM     11  O   UNL     1      -2.890   1.578  23.521  0.00  0.00    -0.336 OA
ATOM     12  C   UNL     1      -2.743   1.207  24.243  0.00  0.00    +0.251 A 
ATOM     13  N   UNL     1      -3.207   1.576  24.818  0.00  0.00    -0.190 NA
BRANCH   9   6
ATOM      3  C   UNL     1      -5.245   3.699  25.559  0.00  0.00    +0.225 A 
ATOM      4  N   UNL     1      -4.465   3.939  25.435  0.00  0.00    -0.210 NA
ATOM      5  C   UNL     1      -3.930   3.431  25.066  0.00  0.00    +0.105 A 
ATOM      6  C   UNL     1      -4.175   2.683  24.820  0.00  0.00    +0.058 A 
ATOM      7  C   UNL     1      -4.954   2.442  24.943  0.00  0.00    +0.010 A 
ATOM      8  C   UNL     1      -5.489   2.950  25.312  0.00  0.00    +0.058 A 
BRANCH   3   2
ATOM      1  C   UNL     1      -6.111   4.833  25.506  0.00  0.00    +0.254 C 
ATOM      2  O   UNL     1      -5.780   4.207  25.928  0.00  0.00    -0.456 OA
ENDBRANCH   3   2
ENDBRANCH   9   6
ENDBRANCH  14  12
BRANCH  18  19
ATOM     19  C   UNL     1      -3.198  -0.447  24.770  0.00  0.00    +0.100 C 
BRANCH  19  20
ATOM     20  C   UNL     1      -3.385  -1.246  24.682  0.00  0.00    -0.004 A 
ATOM     21  C   UNL     1      -3.806  -1.501  24.020  0.00  0.00    +0.029 A 
ATOM     22  C   UNL     1      -3.993  -2.300  23.932  0.00  0.00    +0.167 A 
ATOM     23  F   UNL     1      -4.414  -2.555  23.270  0.00  0.00    -0.202 F 
ATOM     24  C   UNL     1      -3.757  -2.844  24.507  0.00  0.00    +0.167 A 
ATOM     25  F   UNL     1      -3.943  -3.643  24.418  0.00  0.00    -0.202 F 
ATOM     26  C   UNL     1      -3.335  -2.588  25.168  0.00  0.00    +0.032 A 
ATOM     27  C   UNL     1      -3.149  -1.790  25.256  0.00  0.00    -0.000 A 
ENDBRANCH  19  20
ENDBRANCH  18  19
TORSDOF 5
ENDMDL
MODEL 6
REMARK VINA RESULT:     -10.5      1.830      2.587
REMARK  Name = 
REMARK  5 active torsions:
REMARK  status: ('A' for Active; 'I' for Inactive)
REMARK    1  A    between atoms: O_2  and  C_3
REMARK    2  A    between atoms: C_6  and  C_9
REMARK    3  A    between atoms: C_12  and  C_14
REMARK    4  A    between atoms: N_18  and  C_19
REMARK    5  A    between atoms: C_19  and  C_20
REMARK                            x       y       z     vdW  Elec       q    Type
REMARK                         _______ _______ _______ _____ _____    ______ ____
ROOT
ATOM     14  C   UNL     1      -0.454   1.102  24.739  0.00  0.00    +0.138 C 
ATOM     15  C   UNL     1       0.203   1.076  24.239  0.00  0.00    +0.027 C 
ATOM     16  C   UNL     1       0.419   1.851  24.060  0.00  0.00    +0.019 C 
ATOM     17  C   UNL     1      -0.104   2.358  24.449  0.00  0.00    +0.073 C 
ATOM     18  N   UNL     1      -0.643   1.895  24.869  0.00  0.00    -0.263 NA
ENDROOT
BRANCH  14  12
ATOM      9  C   UNL     1      -1.658  -0.604  25.178  0.00  0.00    +0.205 A 
ATOM     10  N   UNL     1      -1.263  -0.500  25.895  0.00  0.00    -0.056 NA
ATOM     11  O   UNL     1      -0.763   0.153  25.818  0.00  0.00    -0.336 OA
ATOM     12  C   UNL     1      -0.850   0.451  25.053  0.00  0.00    +0.251 A 
ATOM     13  N   UNL     1      -1.403  -0.017  24.658  0.00  0.00    -0.190 NA
BRANCH   9   6
ATOM      3  C   UNL     1      -3.318  -2.371  24.677  0.00  0.00    +0.225 A 
ATOM      4  N   UNL     1      -2.524  -2.483  24.483  0.00  0.00    -0.210 NA
ATOM      5  C   UNL     1      -1.971  -1.894  24.650  0.00  0.00    +0.105 A 
ATOM      6  C   UNL     1      -2.211  -1.193  25.011  0.00  0.00    +0.058 A 
ATOM      7  C   UNL     1      -3.005  -1.080  25.205  0.00  0.00    +0.010 A 
ATOM      8  C   UNL     1      -3.558  -1.669  25.038  0.00  0.00    +0.058 A 
BRANCH   3   2
ATOM      1  C   UNL     1      -4.299  -2.935  23.805  0.00  0.00    +0.254 C 
ATOM      2  O   UNL     1      -3.871  -2.960  24.510  0.00  0.00    -0.456 OA
ENDBRANCH   3   2
ENDBRANCH   9   6
ENDBRANCH  14  12
BRANCH  18  19
ATOM     19  C   UNL     1      -1.262   2.175  25.336  0.00  0.00    +0.100 C 
BRANCH  19  20
ATOM     20  C   UNL     1      -1.479   2.970  25.300  0.00  0.00    -0.004 A 
ATOM     21  C   UNL     1      -2.165   3.193  24.900  0.00  0.00    +0.029 A 
ATOM     22  C   UNL     1      -2.382   3.988  24.864  0.00  0.00    +0.167 A 
ATOM     23  F   UNL     1      -3.069   4.211  24.464  0.00  0.00    -0.202 F 
ATOM     24  C   UNL     1      -1.912   4.560  25.229  0.00  0.00    +0.167 A 
ATOM     25  F   UNL     1      -2.130   5.356  25.193  0.00  0.00    -0.202 F 
ATOM     26  C   UNL     1      -1.226   4.337  25.628  0.00  0.00    +0.032 A 
ATOM     27  C   UNL     1      -1.009   3.542  25.664  0.00  0.00    -0.000 A 
ENDBRANCH  19  20
ENDBRANCH  18  19
TORSDOF 5
ENDMDL
