MODEL 1
REMARK VINA RESULT:     -11.9      0.000      0.000
REMARK  Name = 
REMARK  6 active torsions:
REMARK  status: ('A' for Active; 'I' for Inactive)
REMARK    1  A    between atoms: C_2  and  N_4
REMARK    2  A    between atoms: N_4  and  C_5
REMARK    3  A    between atoms: C_5  and  C_6
REMARK    4  A    between atoms: C_8  and  C_9
REMARK    5  A    between atoms: C_9  and  C_10
REMARK    6  A    between atoms: C_13  and  C_15
REMARK                            x       y       z     vdW  Elec       q    Type
REMARK                         _______ _______ _______ _____ _____    ______ ____
ROOT
ATOM      9  C   UNL     1      -4.122   2.039  24.266  0.00  0.00    +0.079 C 
ENDROOT
BRANCH   9   8
ATOM      6  C   UNL     1      -2.669   3.240  25.366  0.00  0.00    +0.163 C 
ATOM      7  O   UNL     1      -2.989   2.657  24.877  0.00  0.00    -0.354 OA
ATOM      8  C   UNL     1      -3.803   2.621  24.755  0.00  0.00    +0.121 C 
ATOM     22  C   UNL     1      -4.299   3.169  25.122  0.00  0.00    +0.033 C 
ATOM     23  C   UNL     1      -3.981   3.752  25.611  0.00  0.00    +0.038 C 
ATOM     24  C   UNL     1      -3.165   3.787  25.733  0.00  0.00    +0.180 C 
ATOM     25  O   UNL     1      -2.847   4.370  26.222  0.00  0.00    -0.220 OA
BRANCH   6   5
ATOM      5  C   UNL     1      -1.855   3.276  25.488  0.00  0.00    +0.121 C 
BRANCH   5   4
ATOM      4  N   UNL     1      -1.401   2.587  25.458  0.00  0.00    -0.217 NA
BRANCH   4   2
ATOM      1  C   UNL     1      -0.125   2.837  24.866  0.00  0.00    +0.019 C 
ATOM      2  C   UNL     1      -0.581   2.630  25.522  0.00  0.00    +0.073 C 
ATOM      3  C   UNL     1      -0.214   2.465  26.243  0.00  0.00    +0.019 C 
ENDBRANCH   4   2
ENDBRANCH   5   4
ENDBRANCH   6   5
ENDBRANCH   9   8
BRANCH   9  10
ATOM     10  C   UNL     1      -4.271   1.284  24.566  0.00  0.00    +0.103 A 
ATOM     11  N   UNL     1      -4.792   1.101  25.178  0.00  0.00    -0.081 NA
ATOM     12  O   UNL     1      -4.767   0.284  25.297  0.00  0.00    -0.354 OA
ATOM     13  C   UNL     1      -4.231  -0.036  24.758  0.00  0.00    +0.177 A 
ATOM     14  C   UNL     1      -3.923   0.583  24.306  0.00  0.00    +0.058 A 
BRANCH  13  15
ATOM     15  C   UNL     1      -4.035  -0.835  24.684  0.00  0.00    +0.037 A 
ATOM     16  C   UNL     1      -4.281  -1.259  24.022  0.00  0.00    +0.005 A 
ATOM     17  C   UNL     1      -4.086  -2.058  23.948  0.00  0.00    +0.030 A 
ATOM     18  C   UNL     1      -3.645  -2.431  24.538  0.00  0.00    +0.140 A 
ATOM     19  F   UNL     1      -3.450  -3.229  24.464  0.00  0.00    -0.204 F 
ATOM     20  C   UNL     1      -3.400  -2.005  25.200  0.00  0.00    +0.030 A 
ATOM     21  C   UNL     1      -3.595  -1.207  25.274  0.00  0.00    +0.005 A 
ENDBRANCH  13  15
ENDBRANCH   9  10
TORSDOF 6
ENDMDL
MODEL 2
REMARK VINA RESULT:     -10.7      1.303      1.954
REMARK  Name = 
REMARK  6 active torsions:
REMARK  status: ('A' for Active; 'I' for Inactive)
REMARK    1  A    between atoms: C_2  and  N_4
REMARK    2  A    between atoms: N_4  and  C_5
REMARK    3  A    between atoms: C_5  and  C_6
REMARK    4  A    between atoms: C_8  and  C_9
REMARK    5  A    between atoms: C_9  and  C_10
REMARK    6  A    between atoms: C_13  and  C_15
REMARK                            x       y       z     vdW  Elec       q    Type
REMARK                         _______ _______ _______ _____ _____    ______ ____
ROOT
ATOM      9  C   UNL     1      -3.180   1.505  23.437  0.00  0.00    +0.079 C 
ENDROOT
BRANCH   9   8
ATOM      6  C   UNL     1      -1.626   2.741  24.342  0.00  0.00    +0.163 C 
ATOM      7  O   UNL     1      -2.371   2.450  24.138  0.00  0.00    -0.354 OA
ATOM      8  C   UNL     1      -2.436   1.796  23.640  0.00  0.00    +0.121 C 
ATOM     22  C   UNL     1      -1.757   1.433  23.345  0.00  0.00    +0.033 C 
ATOM     23  C   UNL     1      -1.012   1.724  23.548  0.00  0.00    +0.038 C 
ATOM     24  C   UNL     1      -0.947   2.378  24.047  0.00  0.00    +0.180 C 
ATOM     25  O   UNL     1      -0.202   2.669  24.250  0.00  0.00    -0.220 OA
BRANCH   6   5
ATOM      5  C   UNL     1      -1.561   3.395  24.840  0.00  0.00    +0.121 C 
BRANCH   5   4
ATOM      4  N   UNL     1      -2.177   3.942  24.888  0.00  0.00    -0.217 NA
BRANCH   4   2
ATOM      1  C   UNL     1      -1.701   5.230  25.283  0.00  0.00    +0.019 C 
ATOM      2  C   UNL     1      -2.145   4.552  25.440  0.00  0.00    +0.073 C 
ATOM      3  C   UNL     1      -2.558   4.487  26.153  0.00  0.00    +0.019 C 
ENDBRANCH   4   2
ENDBRANCH   5   4
ENDBRANCH   6   5
ENDBRANCH   9   8
BRANCH   9  10
ATOM     10  C   UNL     1      -3.510   0.880  23.864  0.00  0.00    +0.103 A 
ATOM     11  N   UNL     1      -4.069   0.947  24.466  0.00  0.00    -0.081 NA
ATOM     12  O   UNL     1      -4.243   0.187  24.738  0.00  0.00    -0.354 OA
ATOM     13  C   UNL     1      -3.790  -0.349  24.303  0.00  0.00    +0.177 A 
ATOM     14  C   UNL     1      -3.336   0.080  23.763  0.00  0.00    +0.058 A 
BRANCH  13  15
ATOM     15  C   UNL     1      -3.790  -1.169  24.394  0.00  0.00    +0.037 A 
ATOM     16  C   UNL     1      -4.177  -1.644  23.842  0.00  0.00    +0.005 A 
ATOM     17  C   UNL     1      -4.178  -2.465  23.933  0.00  0.00    +0.030 A 
ATOM     18  C   UNL     1      -3.790  -2.809  24.576  0.00  0.00    +0.140 A 
ATOM     19  F   UNL     1      -3.791  -3.629  24.666  0.00  0.00    -0.204 F 
ATOM     20  C   UNL     1      -3.404  -2.333  25.127  0.00  0.00    +0.030 A 
ATOM     21  C   UNL     1      -3.403  -1.513  25.036  0.00  0.00    +0.005 A 
ENDBRANCH  13  15
ENDBRANCH   9  10
TORSDOF 6
ENDMDL
MODEL 3
REMARK VINA RESULT:     -10.7      1.338      2.590
REMARK  Name = 
REMARK  6 active torsions:
REMARK  status: ('A' for Active; 'I' for Inactive)
REMARK    1  A    between atoms: C_2  and  N_4
REMARK    2  A    between atoms: N_4  and  C_5
REMARK    3  A    between atoms: C_5  and  C_6
REMARK    4  A    between atoms: C_8  and  C_9
REMARK    5  A    between atoms: C_9  and  C_10
REMARK    6  A    between atoms: C_13  and  C_15
REMARK                            x       y       z     vdW  Elec       q    Type
REMARK                         _______ _______ _______ _____ _____    ______ ____
ROOT
ATOM      9  C   UNL     1      -1.780   1.792  24.394  0.00  0.00    +0.079 C 
ENDROOT
BRANCH   9   8
ATOM      6  C   UNL     1      -2.986   3.289  25.426  0.00  0.00    +0.163 C 
ATOM      7  O   UNL     1      -2.780   2.623  24.986  0.00  0.00    -0.354 OA
ATOM      8  C   UNL     1      -1.986   2.458  24.834  0.00  0.00    +0.121 C 
ATOM     22  C   UNL     1      -1.398   2.960  25.121  0.00  0.00    +0.033 C 
ATOM     23  C   UNL     1      -1.604   3.627  25.561  0.00  0.00    +0.038 C 
ATOM     24  C   UNL     1      -2.398   3.792  25.713  0.00  0.00    +0.180 C 
ATOM     25  O   UNL     1      -2.604   4.459  26.153  0.00  0.00    -0.220 OA
BRANCH   6   5
ATOM      5  C   UNL     1      -3.780   3.454  25.578  0.00  0.00    +0.121 C 
BRANCH   5   4
ATOM      4  N   UNL     1      -4.372   3.030  25.190  0.00  0.00    -0.217 NA
BRANCH   4   2
ATOM      1  C   UNL     1      -5.532   2.396  25.731  0.00  0.00    +0.019 C 
ATOM      2  C   UNL     1      -5.151   3.073  25.454  0.00  0.00    +0.073 C 
ATOM      3  C   UNL     1      -5.552   3.796  25.442  0.00  0.00    +0.019 C 
ENDBRANCH   4   2
ENDBRANCH   5   4
ENDBRANCH   6   5
ENDBRANCH   9   8
BRANCH   9  10
ATOM     10  C   UNL     1      -1.798   1.044  24.745  0.00  0.00    +0.103 A 
ATOM     11  N   UNL     1      -1.299   0.780  25.345  0.00  0.00    -0.081 NA
ATOM     12  O   UNL     1      -1.510   0.003  25.528  0.00  0.00    -0.354 OA
ATOM     13  C   UNL     1      -2.139  -0.212  25.040  0.00  0.00    +0.177 A 
ATOM     14  C   UNL     1      -2.318   0.432  24.556  0.00  0.00    +0.058 A 
BRANCH  13  15
ATOM     15  C   UNL     1      -2.523  -0.942  25.037  0.00  0.00    +0.037 A 
ATOM     16  C   UNL     1      -3.244  -1.030  25.427  0.00  0.00    +0.005 A 
ATOM     17  C   UNL     1      -3.628  -1.761  25.424  0.00  0.00    +0.030 A 
ATOM     18  C   UNL     1      -3.290  -2.403  25.030  0.00  0.00    +0.140 A 
ATOM     19  F   UNL     1      -3.674  -3.134  25.027  0.00  0.00    -0.204 F 
ATOM     20  C   UNL     1      -2.569  -2.314  24.640  0.00  0.00    +0.030 A 
ATOM     21  C   UNL     1      -2.185  -1.583  24.643  0.00  0.00    +0.005 A 
ENDBRANCH  13  15
ENDBRANCH   9  10
TORSDOF 6
ENDMDL
MODEL 4
REMARK VINA RESULT:     -10.6      2.748      5.515
REMARK  Name = 
REMARK  6 active torsions:
REMARK  status: ('A' for Active; 'I' for Inactive)
REMARK    1  A    between atoms: C_2  and  N_4
REMARK    2  A    between atoms: N_4  and  C_5
REMARK    3  A    between atoms: C_5  and  C_6
REMARK    4  A    between atoms: C_8  and  C_9
REMARK    5  A    between atoms: C_9  and  C_10
REMARK    6  A    between atoms: C_13  and  C_15
REMARK                            x       y       z     vdW  Elec       q    Type
REMARK                         _______ _______ _______ _____ _____    ______ ____
ROOT
ATOM      9  C   UNL     1      -0.484   0.868  23.853  0.00  0.00    +0.079 C 
ENDROOT
BRANCH   9   8
ATOM      6  C   UNL     1      -1.755  -0.720  24.643  0.00  0.00    +0.163 C 
ATOM      7  O   UNL     1      -1.519  -0.005  24.307  0.00  0.00    -0.354 OA
ATOM      8  C   UNL     1      -0.719   0.153  24.189  0.00  0.00    +0.121 C 
ATOM     22  C   UNL     1      -0.152  -0.406  24.407  0.00  0.00    +0.033 C 
ATOM     23  C   UNL     1      -0.387  -1.122  24.743  0.00  0.00    +0.038 C 
ATOM     24  C   UNL     1      -1.189  -1.279  24.861  0.00  0.00    +0.180 C 
ATOM     25  O   UNL     1      -1.423  -1.995  25.197  0.00  0.00    -0.220 OA
BRANCH   6   5
ATOM      5  C   UNL     1      -2.556  -0.878  24.760  0.00  0.00    +0.121 C 
BRANCH   5   4
ATOM      4  N   UNL     1      -3.124  -0.500  24.297  0.00  0.00    -0.217 NA
BRANCH   4   2
ATOM      1  C   UNL     1      -4.317  -1.254  24.077  0.00  0.00    +0.019 C 
ATOM      2  C   UNL     1      -3.925  -0.626  24.441  0.00  0.00    +0.073 C 
ATOM      3  C   UNL     1      -4.337  -0.123  24.951  0.00  0.00    +0.019 C 
ENDBRANCH   4   2
ENDBRANCH   5   4
ENDBRANCH   6   5
ENDBRANCH   9   8
BRANCH   9  10
ATOM     10  C   UNL     1      -0.413   1.542  24.326  0.00  0.00    +0.103 A 
ATOM     11  N   UNL     1       0.140   1.655  24.927  0.00  0.00    -0.081 NA
ATOM     12  O   UNL     1       0.012   2.403  25.252  0.00  0.00    -0.354 OA
ATOM     13  C   UNL     1      -0.619   2.751  24.850  0.00  0.00    +0.177 A 
ATOM     14  C   UNL     1      -0.882   2.219  24.277  0.00  0.00    +0.058 A 
BRANCH  13  15
ATOM     15  C   UNL     1      -0.932   3.501  24.996  0.00  0.00    +0.037 A 
ATOM     16  C   UNL     1      -1.632   3.578  25.426  0.00  0.00    +0.005 A 
ATOM     17  C   UNL     1      -1.946   4.328  25.572  0.00  0.00    +0.030 A 
ATOM     18  C   UNL     1      -1.558   4.999  25.288  0.00  0.00    +0.140 A 
ATOM     19  F   UNL     1      -1.871   5.749  25.434  0.00  0.00    -0.204 F 
ATOM     20  C   UNL     1      -0.858   4.921  24.859  0.00  0.00    +0.030 A 
ATOM     21  C   UNL     1      -0.545   4.171  24.713  0.00  0.00    +0.005 A 
ENDBRANCH  13  15
ENDBRANCH   9  10
TORSDOF 6
ENDMDL
MODEL 5
REMARK VINA RESULT:     -10.4      2.480      4.701
REMARK  Name = 
REMARK  6 active torsions:
REMARK  status: ('A' for Active; 'I' for Inactive)
REMARK    1  A    between atoms: C_2  and  N_4
REMARK    2  A    between atoms: N_4  and  C_5
REMARK    3  A    between atoms: C_5  and  C_6
REMARK    4  A    between atoms: C_8  and  C_9
REMARK    5  A    between atoms: C_9  and  C_10
REMARK    6  A    between atoms: C_13  and  C_15
REMARK                            x       y       z     vdW  Elec       q    Type
REMARK                         _______ _______ _______ _____ _____    ______ ____
ROOT
ATOM      9  C   UNL     1      -3.761   1.474  24.216  0.00  0.00    +0.079 C 
ENDROOT
BRANCH   9   8
ATOM      6  C   UNL     1      -2.955  -0.448  24.863  0.00  0.00    +0.163 C 
ATOM      7  O   UNL     1      -3.002   0.306  24.531  0.00  0.00    -0.354 OA
ATOM      8  C   UNL     1      -3.715   0.721  24.548  0.00  0.00    +0.121 C 
ATOM     22  C   UNL     1      -4.381   0.381  24.897  0.00  0.00    +0.033 C 
ATOM     23  C   UNL     1      -4.335  -0.372  25.229  0.00  0.00    +0.038 C 
ATOM     24  C   UNL     1      -3.621  -0.787  25.212  0.00  0.00    +0.180 C 
ATOM     25  O   UNL     1      -3.575  -1.541  25.544  0.00  0.00    -0.220 OA
BRANCH   6   5
ATOM      5  C   UNL     1      -2.242  -0.862  24.846  0.00  0.00    +0.121 C 
BRANCH   5   4
ATOM      4  N   UNL     1      -1.528  -0.460  24.939  0.00  0.00    -0.217 NA
BRANCH   4   2
ATOM      1  C   UNL     1      -0.584  -1.441  25.373  0.00  0.00    +0.019 C 
ATOM      2  C   UNL     1      -0.813  -0.858  24.836  0.00  0.00    +0.073 C 
ATOM      3  C   UNL     1      -0.327  -0.674  24.195  0.00  0.00    +0.019 C 
ENDBRANCH   4   2
ENDBRANCH   5   4
ENDBRANCH   6   5
ENDBRANCH   9   8
BRANCH   9  10
ATOM     10  C   UNL     1      -3.471   2.126  24.631  0.00  0.00    +0.103 A 
ATOM     11  N   UNL     1      -3.793   2.445  25.320  0.00  0.00    -0.081 NA
ATOM     12  O   UNL     1      -3.329   3.089  25.544  0.00  0.00    -0.354 OA
ATOM     13  C   UNL     1      -2.720   3.169  24.993  0.00  0.00    +0.177 A 
ATOM     14  C   UNL     1      -2.808   2.573  24.428  0.00  0.00    +0.058 A 
BRANCH  13  15
ATOM     15  C   UNL     1      -2.127   3.743  25.004  0.00  0.00    +0.037 A 
ATOM     16  C   UNL     1      -1.340   3.525  24.888  0.00  0.00    +0.005 A 
ATOM     17  C   UNL     1      -0.748   4.100  24.900  0.00  0.00    +0.030 A 
ATOM     18  C   UNL     1      -0.944   4.891  25.028  0.00  0.00    +0.140 A 
ATOM     19  F   UNL     1      -0.351   5.466  25.039  0.00  0.00    -0.204 F 
ATOM     20  C   UNL     1      -1.730   5.108  25.144  0.00  0.00    +0.030 A 
ATOM     21  C   UNL     1      -2.323   4.534  25.132  0.00  0.00    +0.005 A 
ENDBRANCH  13  15
ENDBRANCH   9  10
TORSDOF 6
ENDMDL
