REMARK  Name = 
REMARK  5 active torsions:
REMARK  status: ('A' for Active; 'I' for Inactive)
REMARK    1  A    between atoms: C_1  and  N_2
REMARK    2  A    between atoms: C_1  and  C_23
REMARK    3  A    between atoms: C_6  and  C_7
REMARK    4  A    between atoms: C_9  and  C_12
REMARK    5  A    between atoms: C_15  and  N_18
REMARK                            x       y       z     vdW  Elec       q    Type
REMARK                         _______ _______ _______ _____ _____    ______ ____
ROOT
ATOM      7  C   UNL     1      -2.047  -3.270   0.000  0.00  0.00    +0.251 A 
ATOM      8  N   UNL     1      -2.715  -3.755   0.000  0.00  0.00    -0.190 NA
ATOM      9  C   UNL     1      -3.382  -3.270   0.000  0.00  0.00    +0.205 A 
ATOM     10  N   UNL     1      -3.127  -2.486   0.000  0.00  0.00    -0.056 NA
ATOM     11  O   UNL     1      -2.303  -2.486   0.000  0.00  0.00    -0.336 OA
ENDROOT
BRANCH   9  12
ATOM     12  C   UNL     1      -4.167  -3.525   0.000  0.00  0.00    +0.058 A 
ATOM     13  C   UNL     1      -4.338  -4.332   0.000  0.00  0.00    +0.008 A 
ATOM     14  C   UNL     1      -5.123  -4.587   0.000  0.00  0.00    +0.038 A 
ATOM     15  C   UNL     1      -5.736  -4.035   0.000  0.00  0.00    +0.149 A 
ATOM     16  N   UNL     1      -5.565  -3.228   0.000  0.00  0.00    -0.226 NA
ATOM     17  C   UNL     1      -4.780  -2.973   0.000  0.00  0.00    +0.104 A 
BRANCH  15  18
ATOM     18  N   UNL     1      -6.521  -4.290   0.000  0.00  0.00    -0.271 N 
ATOM     19  C   UNL     1      -6.776  -5.075   0.000  0.00  0.00    +0.104 A 
ATOM     20  C   UNL     1      -7.601  -5.075   0.000  0.00  0.00    +0.120 A 
ATOM     21  N   UNL     1      -7.856  -4.290   0.000  0.00  0.00    -0.222 NA
ATOM     22  C   UNL     1      -7.188  -3.805   0.000  0.00  0.00    +0.184 A 
ENDBRANCH  15  18
ENDBRANCH   9  12
BRANCH   7   6
ATOM      2  N   UNL     1      -0.596  -3.041   0.000  0.00  0.00    -0.260 NA
ATOM      3  C   UNL     1       0.072  -3.525   0.000  0.00  0.00    +0.073 C 
ATOM      4  C   UNL     1      -0.183  -4.310   0.000  0.00  0.00    +0.019 C 
ATOM      5  C   UNL     1      -1.008  -4.310   0.000  0.00  0.00    +0.027 C 
ATOM      6  C   UNL     1      -1.263  -3.525   0.000  0.00  0.00    +0.138 C 
BRANCH   2   1
ATOM      1  C   UNL     1      -0.596  -2.216   0.000  0.00  0.00    +0.139 C 
BRANCH   1  23
ATOM     23  C   UNL     1       0.119  -1.803   0.000  0.00  0.00    +0.155 A 
ATOM     24  N   UNL     1       0.205  -0.983   0.000  0.00  0.00    -0.226 NA
ATOM     25  C   UNL     1       1.012  -0.811   0.000  0.00  0.00    +0.121 A 
ATOM     26  C   UNL     1       1.425  -1.525   0.000  0.00  0.00    +0.121 A 
ATOM     27  N   UNL     1       0.873  -2.139   0.000  0.00  0.00    -0.226 NA
ENDBRANCH   1  23
ENDBRANCH   2   1
ENDBRANCH   7   6
TORSDOF 5
