MODEL 1
REMARK VINA RESULT:     -14.7      0.000      0.000
REMARK  Name = 
REMARK  4 active torsions:
REMARK  status: ('A' for Active; 'I' for Inactive)
REMARK    1  A    between atoms: C_2  and  C_3
REMARK    2  A    between atoms: C_2  and  C_22
REMARK    3  A    between atoms: C_10  and  N_11
REMARK    4  A    between atoms: C_12  and  C_14
REMARK                            x       y       z     vdW  Elec       q    Type
REMARK                         _______ _______ _______ _____ _____    ______ ____
ROOT
ATOM      3  C   UNL     1      -4.301   0.829  24.751  0.00  0.00    +0.039 C 
ATOM      4  C   UNL     1      -4.986   1.099  25.126  0.00  0.00    +0.003 C 
ATOM      5  C   UNL     1      -5.055   1.893  25.335  0.00  0.00    +0.000 C 
ATOM      6  C   UNL     1      -4.441   2.418  25.170  0.00  0.00    +0.002 C 
ATOM      7  C   UNL     1      -5.124   2.688  25.544  0.00  0.00    +0.000 C 
ATOM      8  C   UNL     1      -4.509   3.213  25.380  0.00  0.00    +0.002 C 
ATOM      9  C   UNL     1      -3.895   3.738  25.215  0.00  0.00    +0.022 C 
ATOM     10  C   UNL     1      -3.210   3.468  24.840  0.00  0.00    +0.095 C 
ATOM     17  C   UNL     1      -3.141   2.673  24.631  0.00  0.00    +0.022 C 
ATOM     18  C   UNL     1      -2.458   2.403  24.257  0.00  0.00    +0.002 C 
ATOM     19  C   UNL     1      -3.756   2.148  24.796  0.00  0.00    +0.032 C 
ATOM     20  C   UNL     1      -3.687   1.353  24.587  0.00  0.00    +0.152 C 
ATOM     21  O   UNL     1      -3.003   1.083  24.212  0.00  0.00    -0.223 OA
ENDROOT
BRANCH  10  11
ATOM     11  N   UNL     1      -2.596   3.993  24.675  0.00  0.00    -0.207 NA
ATOM     12  C   UNL     1      -2.255   4.434  25.283  0.00  0.00    +0.241 C 
ATOM     13  O   UNL     1      -2.529   4.349  26.058  0.00  0.00    -0.273 OA
BRANCH  12  14
ATOM     14  C   UNL     1      -1.641   4.960  25.118  0.00  0.00    +0.078 C 
ATOM     15  C   UNL     1      -1.377   5.728  24.973  0.00  0.00    +0.010 C 
ATOM     16  C   UNL     1      -0.840   5.100  24.978  0.00  0.00    +0.010 C 
ENDBRANCH  12  14
ENDBRANCH  10  11
BRANCH   3   2
ATOM      1  C   UNL     1      -4.404  -0.208  23.772  0.00  0.00    +0.010 C 
ATOM      2  C   UNL     1      -4.232   0.033  24.542  0.00  0.00    +0.079 C 
BRANCH   2  22
ATOM     22  C   UNL     1      -3.992  -0.521  25.104  0.00  0.00    +0.225 C 
ATOM     23  O   UNL     1      -3.889  -0.294  25.891  0.00  0.00    -0.275 OA
ATOM     24  N   UNL     1      -3.855  -1.304  24.880  0.00  0.00    -0.280 N 
ATOM     25  C   UNL     1      -3.615  -1.857  25.441  0.00  0.00    +0.093 C 
ATOM     26  C   UNL     1      -3.478  -2.639  25.217  0.00  0.00    +0.022 C 
ATOM     27  C   UNL     1      -3.581  -2.866  24.431  0.00  0.00    +0.003 C 
ATOM     28  C   UNL     1      -3.443  -3.649  24.206  0.00  0.00    +0.000 C 
ATOM     29  C   UNL     1      -3.820  -2.312  23.869  0.00  0.00    +0.022 C 
ATOM     30  C   UNL     1      -3.958  -1.531  24.093  0.00  0.00    +0.093 C 
ENDBRANCH   2  22
ENDBRANCH   3   2
TORSDOF 4
ENDMDL
MODEL 2
REMARK VINA RESULT:     -13.6      0.806      5.149
REMARK  Name = 
REMARK  4 active torsions:
REMARK  status: ('A' for Active; 'I' for Inactive)
REMARK    1  A    between atoms: C_2  and  C_3
REMARK    2  A    between atoms: C_2  and  C_22
REMARK    3  A    between atoms: C_10  and  N_11
REMARK    4  A    between atoms: C_12  and  C_14
REMARK                            x       y       z     vdW  Elec       q    Type
REMARK                         _______ _______ _______ _____ _____    ______ ____
ROOT
ATOM      3  C   UNL     1      -4.034   2.537  24.410  0.00  0.00    +0.039 C 
ATOM      4  C   UNL     1      -4.670   2.592  24.934  0.00  0.00    +0.003 C 
ATOM      5  C   UNL     1      -5.029   1.908  25.219  0.00  0.00    +0.000 C 
ATOM      6  C   UNL     1      -4.754   1.168  24.981  0.00  0.00    +0.002 C 
ATOM      7  C   UNL     1      -5.389   1.223  25.504  0.00  0.00    +0.000 C 
ATOM      8  C   UNL     1      -5.114   0.482  25.266  0.00  0.00    +0.002 C 
ATOM      9  C   UNL     1      -4.839  -0.258  25.029  0.00  0.00    +0.022 C 
ATOM     10  C   UNL     1      -4.203  -0.313  24.505  0.00  0.00    +0.095 C 
ATOM     17  C   UNL     1      -3.843   0.372  24.220  0.00  0.00    +0.022 C 
ATOM     18  C   UNL     1      -3.208   0.317  23.696  0.00  0.00    +0.002 C 
ATOM     19  C   UNL     1      -4.118   1.113  24.457  0.00  0.00    +0.032 C 
ATOM     20  C   UNL     1      -3.759   1.797  24.172  0.00  0.00    +0.152 C 
ATOM     21  O   UNL     1      -3.123   1.742  23.648  0.00  0.00    -0.223 OA
ENDROOT
BRANCH  10  11
ATOM     11  N   UNL     1      -3.928  -1.054  24.267  0.00  0.00    -0.207 NA
ATOM     12  C   UNL     1      -3.728  -1.621  24.831  0.00  0.00    +0.241 C 
ATOM     13  O   UNL     1      -3.803  -1.447  25.635  0.00  0.00    -0.273 OA
BRANCH  12  14
ATOM     14  C   UNL     1      -3.453  -2.362  24.594  0.00  0.00    +0.078 C 
ATOM     15  C   UNL     1      -3.581  -3.085  24.218  0.00  0.00    +0.010 C 
ATOM     16  C   UNL     1      -2.847  -2.921  24.559  0.00  0.00    +0.010 C 
ENDBRANCH  12  14
ENDBRANCH  10  11
BRANCH   3   2
ATOM      1  C   UNL     1      -3.481   3.287  23.325  0.00  0.00    +0.010 C 
ATOM      2  C   UNL     1      -3.674   3.223  24.124  0.00  0.00    +0.079 C 
BRANCH   2  22
ATOM     22  C   UNL     1      -3.508   3.846  24.639  0.00  0.00    +0.225 C 
ATOM     23  O   UNL     1      -4.121   4.216  25.051  0.00  0.00    -0.275 OA
ATOM     24  N   UNL     1      -2.729   4.098  24.744  0.00  0.00    -0.280 N 
ATOM     25  C   UNL     1      -2.563   4.720  25.258  0.00  0.00    +0.093 C 
ATOM     26  C   UNL     1      -1.785   4.973  25.363  0.00  0.00    +0.022 C 
ATOM     27  C   UNL     1      -1.173   4.602  24.952  0.00  0.00    +0.003 C 
ATOM     28  C   UNL     1      -0.394   4.855  25.057  0.00  0.00    +0.000 C 
ATOM     29  C   UNL     1      -1.339   3.980  24.438  0.00  0.00    +0.022 C 
ATOM     30  C   UNL     1      -2.117   3.728  24.333  0.00  0.00    +0.093 C 
ENDBRANCH   2  22
ENDBRANCH   3   2
TORSDOF 4
ENDMDL
MODEL 3
REMARK VINA RESULT:     -12.7      1.265      2.008
REMARK  Name = 
REMARK  4 active torsions:
REMARK  status: ('A' for Active; 'I' for Inactive)
REMARK    1  A    between atoms: C_2  and  C_3
REMARK    2  A    between atoms: C_2  and  C_22
REMARK    3  A    between atoms: C_10  and  N_11
REMARK    4  A    between atoms: C_12  and  C_14
REMARK                            x       y       z     vdW  Elec       q    Type
REMARK                         _______ _______ _______ _____ _____    ______ ____
ROOT
ATOM      3  C   UNL     1      -2.698   0.257  25.145  0.00  0.00    +0.039 C 
ATOM      4  C   UNL     1      -1.947  -0.085  25.175  0.00  0.00    +0.003 C 
ATOM      5  C   UNL     1      -1.276   0.388  25.102  0.00  0.00    +0.000 C 
ATOM      6  C   UNL     1      -1.354   1.202  25.001  0.00  0.00    +0.002 C 
ATOM      7  C   UNL     1      -0.604   0.861  25.030  0.00  0.00    +0.000 C 
ATOM      8  C   UNL     1      -0.682   1.676  24.928  0.00  0.00    +0.002 C 
ATOM      9  C   UNL     1      -0.760   2.490  24.827  0.00  0.00    +0.022 C 
ATOM     10  C   UNL     1      -1.511   2.832  24.797  0.00  0.00    +0.095 C 
ATOM     17  C   UNL     1      -2.183   2.359  24.870  0.00  0.00    +0.022 C 
ATOM     18  C   UNL     1      -2.933   2.701  24.840  0.00  0.00    +0.002 C 
ATOM     19  C   UNL     1      -2.105   1.544  24.971  0.00  0.00    +0.032 C 
ATOM     20  C   UNL     1      -2.776   1.071  25.044  0.00  0.00    +0.152 C 
ATOM     21  O   UNL     1      -3.527   1.413  25.014  0.00  0.00    -0.223 OA
ENDROOT
BRANCH  10  11
ATOM     11  N   UNL     1      -1.589   3.648  24.696  0.00  0.00    -0.207 NA
ATOM     12  C   UNL     1      -1.077   4.163  25.085  0.00  0.00    +0.241 C 
ATOM     13  O   UNL     1      -0.485   3.863  25.577  0.00  0.00    -0.273 OA
BRANCH  12  14
ATOM     14  C   UNL     1      -1.154   4.978  24.983  0.00  0.00    +0.078 C 
ATOM     15  C   UNL     1      -1.584   5.674  25.090  0.00  0.00    +0.010 C 
ATOM     16  C   UNL     1      -0.857   5.694  24.699  0.00  0.00    +0.010 C 
ENDBRANCH  12  14
ENDBRANCH  10  11
BRANCH   3   2
ATOM      1  C   UNL     1      -4.115   0.093  25.047  0.00  0.00    +0.010 C 
ATOM      2  C   UNL     1      -3.370  -0.217  25.218  0.00  0.00    +0.079 C 
BRANCH   2  22
ATOM     22  C   UNL     1      -3.296  -1.001  25.462  0.00  0.00    +0.225 C 
ATOM     23  O   UNL     1      -2.972  -1.175  26.201  0.00  0.00    -0.275 OA
ATOM     24  N   UNL     1      -3.546  -1.613  24.967  0.00  0.00    -0.280 N 
ATOM     25  C   UNL     1      -3.473  -2.397  25.211  0.00  0.00    +0.093 C 
ATOM     26  C   UNL     1      -3.722  -3.008  24.717  0.00  0.00    +0.022 C 
ATOM     27  C   UNL     1      -4.046  -2.834  23.978  0.00  0.00    +0.003 C 
ATOM     28  C   UNL     1      -4.296  -3.446  23.483  0.00  0.00    +0.000 C 
ATOM     29  C   UNL     1      -4.120  -2.050  23.734  0.00  0.00    +0.022 C 
ATOM     30  C   UNL     1      -3.870  -1.439  24.229  0.00  0.00    +0.093 C 
ENDBRANCH   2  22
ENDBRANCH   3   2
TORSDOF 4
ENDMDL
MODEL 4
REMARK VINA RESULT:     -12.5      1.216      5.557
REMARK  Name = 
REMARK  4 active torsions:
REMARK  status: ('A' for Active; 'I' for Inactive)
REMARK    1  A    between atoms: C_2  and  C_3
REMARK    2  A    between atoms: C_2  and  C_22
REMARK    3  A    between atoms: C_10  and  N_11
REMARK    4  A    between atoms: C_12  and  C_14
REMARK                            x       y       z     vdW  Elec       q    Type
REMARK                         _______ _______ _______ _____ _____    ______ ____
ROOT
ATOM      3  C   UNL     1      -2.312   1.934  25.075  0.00  0.00    +0.039 C 
ATOM      4  C   UNL     1      -3.015   2.303  24.846  0.00  0.00    +0.003 C 
ATOM      5  C   UNL     1      -3.677   1.849  24.661  0.00  0.00    +0.000 C 
ATOM      6  C   UNL     1      -3.638   1.026  24.703  0.00  0.00    +0.002 C 
ATOM      7  C   UNL     1      -4.339   1.394  24.475  0.00  0.00    +0.000 C 
ATOM      8  C   UNL     1      -4.301   0.571  24.518  0.00  0.00    +0.002 C 
ATOM      9  C   UNL     1      -4.262  -0.251  24.560  0.00  0.00    +0.022 C 
ATOM     10  C   UNL     1      -3.559  -0.620  24.788  0.00  0.00    +0.095 C 
ATOM     17  C   UNL     1      -2.897  -0.166  24.974  0.00  0.00    +0.022 C 
ATOM     18  C   UNL     1      -2.194  -0.534  25.202  0.00  0.00    +0.002 C 
ATOM     19  C   UNL     1      -2.935   0.657  24.931  0.00  0.00    +0.032 C 
ATOM     20  C   UNL     1      -2.273   1.112  25.117  0.00  0.00    +0.152 C 
ATOM     21  O   UNL     1      -1.571   0.743  25.345  0.00  0.00    -0.223 OA
ENDROOT
BRANCH  10  11
ATOM     11  N   UNL     1      -3.520  -1.443  24.830  0.00  0.00    -0.207 NA
ATOM     12  C   UNL     1      -3.831  -1.903  24.221  0.00  0.00    +0.241 C 
ATOM     13  O   UNL     1      -4.182  -1.540  23.567  0.00  0.00    -0.273 OA
BRANCH  12  14
ATOM     14  C   UNL     1      -3.793  -2.726  24.263  0.00  0.00    +0.078 C 
ATOM     15  C   UNL     1      -3.957  -3.467  23.939  0.00  0.00    +0.010 C 
ATOM     16  C   UNL     1      -3.561  -3.411  24.661  0.00  0.00    +0.010 C 
ENDBRANCH  12  14
ENDBRANCH  10  11
BRANCH   3   2
ATOM      1  C   UNL     1      -1.384   2.436  26.040  0.00  0.00    +0.010 C 
ATOM      2  C   UNL     1      -1.649   2.389  25.260  0.00  0.00    +0.079 C 
BRANCH   2  22
ATOM     22  C   UNL     1      -1.250   2.799  24.665  0.00  0.00    +0.225 C 
ATOM     23  O   UNL     1      -0.932   2.388  24.023  0.00  0.00    -0.275 OA
ATOM     24  N   UNL     1      -1.170   3.619  24.710  0.00  0.00    -0.280 N 
ATOM     25  C   UNL     1      -0.772   4.028  24.116  0.00  0.00    +0.093 C 
ATOM     26  C   UNL     1      -0.691   4.847  24.161  0.00  0.00    +0.022 C 
ATOM     27  C   UNL     1      -1.009   5.257  24.802  0.00  0.00    +0.003 C 
ATOM     28  C   UNL     1      -0.928   6.078  24.847  0.00  0.00    +0.000 C 
ATOM     29  C   UNL     1      -1.407   4.849  25.397  0.00  0.00    +0.022 C 
ATOM     30  C   UNL     1      -1.488   4.029  25.352  0.00  0.00    +0.093 C 
ENDBRANCH   2  22
ENDBRANCH   3   2
TORSDOF 4
ENDMDL
MODEL 5
REMARK VINA RESULT:     -12.0      2.697      4.428
REMARK  Name = 
REMARK  4 active torsions:
REMARK  status: ('A' for Active; 'I' for Inactive)
REMARK    1  A    between atoms: C_2  and  C_3
REMARK    2  A    between atoms: C_2  and  C_22
REMARK    3  A    between atoms: C_10  and  N_11
REMARK    4  A    between atoms: C_12  and  C_14
REMARK                            x       y       z     vdW  Elec       q    Type
REMARK                         _______ _______ _______ _____ _____    ______ ____
ROOT
ATOM      3  C   UNL     1      -2.463   3.162  24.935  0.00  0.00    +0.039 C 
ATOM      4  C   UNL     1      -2.047   3.487  25.570  0.00  0.00    +0.003 C 
ATOM      5  C   UNL     1      -1.278   3.236  25.731  0.00  0.00    +0.000 C 
ATOM      6  C   UNL     1      -0.925   2.661  25.259  0.00  0.00    +0.002 C 
ATOM      7  C   UNL     1      -0.510   2.985  25.892  0.00  0.00    +0.000 C 
ATOM      8  C   UNL     1      -0.155   2.409  25.420  0.00  0.00    +0.002 C 
ATOM      9  C   UNL     1       0.198   1.834  24.947  0.00  0.00    +0.022 C 
ATOM     10  C   UNL     1      -0.218   1.509  24.312  0.00  0.00    +0.095 C 
ATOM     17  C   UNL     1      -0.986   1.760  24.151  0.00  0.00    +0.022 C 
ATOM     18  C   UNL     1      -1.402   1.435  23.516  0.00  0.00    +0.002 C 
ATOM     19  C   UNL     1      -1.341   2.336  24.623  0.00  0.00    +0.032 C 
ATOM     20  C   UNL     1      -2.109   2.587  24.462  0.00  0.00    +0.152 C 
ATOM     21  O   UNL     1      -2.525   2.262  23.828  0.00  0.00    -0.223 OA
ENDROOT
BRANCH  10  11
ATOM     11  N   UNL     1       0.137   0.933  23.839  0.00  0.00    -0.207 NA
ATOM     12  C   UNL     1       0.930   1.003  23.627  0.00  0.00    +0.241 C 
ATOM     13  O   UNL     1       1.371   1.651  23.889  0.00  0.00    -0.273 OA
BRANCH  12  14
ATOM     14  C   UNL     1       1.285   0.427  23.154  0.00  0.00    +0.078 C 
ATOM     15  C   UNL     1       1.954   0.120  22.782  0.00  0.00    +0.010 C 
ATOM     16  C   UNL     1       1.227  -0.264  22.707  0.00  0.00    +0.010 C 
ENDBRANCH  12  14
ENDBRANCH  10  11
BRANCH   3   2
ATOM      1  C   UNL     1      -3.452   3.605  24.002  0.00  0.00    +0.010 C 
ATOM      2  C   UNL     1      -3.232   3.414  24.774  0.00  0.00    +0.079 C 
BRANCH   2  22
ATOM     22  C   UNL     1      -3.782   3.475  25.386  0.00  0.00    +0.225 C 
ATOM     23  O   UNL     1      -3.632   3.972  26.028  0.00  0.00    -0.275 OA
ATOM     24  N   UNL     1      -4.482   3.038  25.357  0.00  0.00    -0.280 N 
ATOM     25  C   UNL     1      -5.031   3.099  25.968  0.00  0.00    +0.093 C 
ATOM     26  C   UNL     1      -5.731   2.663  25.940  0.00  0.00    +0.022 C 
ATOM     27  C   UNL     1      -5.880   2.166  25.299  0.00  0.00    +0.003 C 
ATOM     28  C   UNL     1      -6.580   1.729  25.270  0.00  0.00    +0.000 C 
ATOM     29  C   UNL     1      -5.331   2.105  24.687  0.00  0.00    +0.022 C 
ATOM     30  C   UNL     1      -4.631   2.541  24.716  0.00  0.00    +0.093 C 
ENDBRANCH   2  22
ENDBRANCH   3   2
TORSDOF 4
ENDMDL
MODEL 6
REMARK VINA RESULT:     -11.9      1.398      5.734
REMARK  Name = 
REMARK  4 active torsions:
REMARK  status: ('A' for Active; 'I' for Inactive)
REMARK    1  A    between atoms: C_2  and  C_3
REMARK    2  A    between atoms: C_2  and  C_22
REMARK    3  A    between atoms: C_10  and  N_11
REMARK    4  A    between atoms: C_12  and  C_14
REMARK                            x       y       z     vdW  Elec       q    Type
REMARK                         _______ _______ _______ _____ _____    ______ ____
ROOT
ATOM      3  C   UNL     1      -2.021   1.692  24.703  0.00  0.00    +0.039 C 
ATOM      4  C   UNL     1      -1.385   1.533  25.206  0.00  0.00    +0.003 C 
ATOM      5  C   UNL     1      -1.278   0.774  25.508  0.00  0.00    +0.000 C 
ATOM      6  C   UNL     1      -1.805   0.173  25.310  0.00  0.00    +0.002 C 
ATOM      7  C   UNL     1      -1.171   0.015  25.811  0.00  0.00    +0.000 C 
ATOM      8  C   UNL     1      -1.698  -0.587  25.613  0.00  0.00    +0.002 C 
ATOM      9  C   UNL     1      -2.226  -1.189  25.414  0.00  0.00    +0.022 C 
ATOM     10  C   UNL     1      -2.862  -1.031  24.912  0.00  0.00    +0.095 C 
ATOM     17  C   UNL     1      -2.970  -0.271  24.609  0.00  0.00    +0.022 C 
ATOM     18  C   UNL     1      -3.605  -0.113  24.108  0.00  0.00    +0.002 C 
ATOM     19  C   UNL     1      -2.442   0.331  24.808  0.00  0.00    +0.032 C 
ATOM     20  C   UNL     1      -2.549   1.090  24.505  0.00  0.00    +0.152 C 
ATOM     21  O   UNL     1      -3.184   1.248  24.003  0.00  0.00    -0.223 OA
ENDROOT
BRANCH  10  11
ATOM     11  N   UNL     1      -3.390  -1.633  24.714  0.00  0.00    -0.207 NA
ATOM     12  C   UNL     1      -3.107  -2.354  24.431  0.00  0.00    +0.241 C 
ATOM     13  O   UNL     1      -2.294  -2.473  24.346  0.00  0.00    -0.273 OA
BRANCH  12  14
ATOM     14  C   UNL     1      -3.635  -2.956  24.233  0.00  0.00    +0.078 C 
ATOM     15  C   UNL     1      -3.869  -3.746  24.280  0.00  0.00    +0.010 C 
ATOM     16  C   UNL     1      -4.316  -3.208  23.841  0.00  0.00    +0.010 C 
ENDBRANCH  12  14
ENDBRANCH  10  11
BRANCH   3   2
ATOM      1  C   UNL     1      -2.011   2.597  23.597  0.00  0.00    +0.010 C 
ATOM      2  C   UNL     1      -2.128   2.452  24.401  0.00  0.00    +0.079 C 
BRANCH   2  22
ATOM     22  C   UNL     1      -2.352   3.067  24.902  0.00  0.00    +0.225 C 
ATOM     23  O   UNL     1      -3.002   2.976  25.403  0.00  0.00    -0.275 OA
ATOM     24  N   UNL     1      -1.926   3.775  24.904  0.00  0.00    -0.280 N 
ATOM     25  C   UNL     1      -2.150   4.389  25.405  0.00  0.00    +0.093 C 
ATOM     26  C   UNL     1      -1.725   5.096  25.407  0.00  0.00    +0.022 C 
ATOM     27  C   UNL     1      -1.076   5.187  24.907  0.00  0.00    +0.003 C 
ATOM     28  C   UNL     1      -0.650   5.894  24.908  0.00  0.00    +0.000 C 
ATOM     29  C   UNL     1      -0.852   4.572  24.406  0.00  0.00    +0.022 C 
ATOM     30  C   UNL     1      -1.277   3.865  24.404  0.00  0.00    +0.093 C 
ENDBRANCH   2  22
ENDBRANCH   3   2
TORSDOF 4
ENDMDL
