MODEL 1
REMARK VINA RESULT:     -11.5      0.000      0.000
REMARK  Name = 
REMARK  5 active torsions:
REMARK  status: ('A' for Active; 'I' for Inactive)
REMARK    1  A    between atoms: N_2  and  C_3
REMARK    2  A    between atoms: C_6  and  C_9
REMARK    3  A    between atoms: C_12  and  C_14
REMARK    4  A    between atoms: N_18  and  C_19
REMARK    5  A    between atoms: C_19  and  C_20
REMARK                            x       y       z     vdW  Elec       q    Type
REMARK                         _______ _______ _______ _____ _____    ______ ____
ROOT
ATOM     14  C   UNL     1      -4.921   1.889  25.056  0.00  0.00    +0.138 C 
ATOM     15  C   UNL     1      -5.575   1.997  25.546  0.00  0.00    +0.027 C 
ATOM     16  C   UNL     1      -5.908   1.257  25.695  0.00  0.00    +0.019 C 
ATOM     17  C   UNL     1      -5.458   0.691  25.296  0.00  0.00    +0.073 C 
ATOM     18  N   UNL     1      -4.848   1.081  24.901  0.00  0.00    -0.260 NA
ENDROOT
BRANCH  14  12
ATOM      9  C   UNL     1      -3.405   3.335  24.644  0.00  0.00    +0.205 A 
ATOM     10  N   UNL     1      -3.924   3.465  24.017  0.00  0.00    -0.056 NA
ATOM     11  O   UNL     1      -4.555   2.939  24.094  0.00  0.00    -0.336 OA
ATOM     12  C   UNL     1      -4.425   2.484  24.770  0.00  0.00    +0.251 A 
ATOM     13  N   UNL     1      -3.715   2.728  25.110  0.00  0.00    -0.190 NA
BRANCH   9   6
ATOM      3  C   UNL     1      -1.289   4.549  25.057  0.00  0.00    +0.148 A 
ATOM      4  C   UNL     1      -2.001   4.856  25.338  0.00  0.00    +0.036 A 
ATOM      5  C   UNL     1      -2.707   4.451  25.200  0.00  0.00    +0.008 A 
ATOM      6  C   UNL     1      -2.699   3.740  24.782  0.00  0.00    +0.058 A 
ATOM      7  C   UNL     1      -1.986   3.434  24.501  0.00  0.00    +0.103 A 
ATOM      8  N   UNL     1      -1.281   3.839  24.639  0.00  0.00    -0.228 NA
BRANCH   3   2
ATOM      1  C   UNL     1      -0.200   5.339  24.574  0.00  0.00    +0.137 C 
ATOM      2  N   UNL     1      -0.583   4.954  25.195  0.00  0.00    -0.218 NA
ENDBRANCH   3   2
ENDBRANCH   9   6
ENDBRANCH  14  12
BRANCH  18  19
ATOM     19  C   UNL     1      -4.268   0.728  24.434  0.00  0.00    +0.138 C 
BRANCH  19  20
ATOM     20  C   UNL     1      -4.104  -0.076  24.517  0.00  0.00    +0.139 A 
ATOM     21  C   UNL     1      -4.283  -0.667  23.970  0.00  0.00    +0.037 A 
ATOM     22  C   UNL     1      -4.022  -1.386  24.276  0.00  0.00    +0.037 A 
ATOM     23  C   UNL     1      -3.681  -1.241  25.013  0.00  0.00    +0.145 A 
ATOM     24  O   UNL     1      -3.731  -0.431  25.162  0.00  0.00    -0.456 OA
ATOM     25  C   UNL     1      -3.368  -1.865  25.453  0.00  0.00    +0.037 A 
ATOM     26  C   UNL     1      -3.397  -2.634  25.157  0.00  0.00    +0.003 A 
ATOM     27  C   UNL     1      -3.738  -2.779  24.420  0.00  0.00    +0.000 A 
ATOM     28  C   UNL     1      -4.051  -2.156  23.979  0.00  0.00    +0.003 A 
ENDBRANCH  19  20
ENDBRANCH  18  19
TORSDOF 5
ENDMDL
MODEL 2
REMARK VINA RESULT:     -11.2      2.154      3.124
REMARK  Name = 
REMARK  5 active torsions:
REMARK  status: ('A' for Active; 'I' for Inactive)
REMARK    1  A    between atoms: N_2  and  C_3
REMARK    2  A    between atoms: C_6  and  C_9
REMARK    3  A    between atoms: C_12  and  C_14
REMARK    4  A    between atoms: N_18  and  C_19
REMARK    5  A    between atoms: C_19  and  C_20
REMARK                            x       y       z     vdW  Elec       q    Type
REMARK                         _______ _______ _______ _____ _____    ______ ____
ROOT
ATOM     14  C   UNL     1      -0.435   0.361  24.606  0.00  0.00    +0.138 C 
ATOM     15  C   UNL     1       0.158   0.244  24.044  0.00  0.00    +0.027 C 
ATOM     16  C   UNL     1       0.070  -0.517  23.736  0.00  0.00    +0.019 C 
ATOM     17  C   UNL     1      -0.577  -0.869  24.108  0.00  0.00    +0.073 C 
ATOM     18  N   UNL     1      -0.889  -0.327  24.645  0.00  0.00    -0.260 NA
ENDROOT
BRANCH  14  12
ATOM      9  C   UNL     1      -0.873   2.294  25.400  0.00  0.00    +0.205 A 
ATOM     10  N   UNL     1      -0.591   1.906  26.071  0.00  0.00    -0.056 NA
ATOM     11  O   UNL     1      -0.393   1.135  25.855  0.00  0.00    -0.336 OA
ATOM     12  C   UNL     1      -0.552   1.047  25.051  0.00  0.00    +0.251 A 
ATOM     13  N   UNL     1      -0.848   1.762  24.769  0.00  0.00    -0.190 NA
BRANCH   9   6
ATOM      3  C   UNL     1      -1.653   4.640  25.295  0.00  0.00    +0.148 A 
ATOM      4  C   UNL     1      -0.911   4.439  24.995  0.00  0.00    +0.036 A 
ATOM      5  C   UNL     1      -0.651   3.657  25.030  0.00  0.00    +0.008 A 
ATOM      6  C   UNL     1      -1.133   3.076  25.365  0.00  0.00    +0.058 A 
ATOM      7  C   UNL     1      -1.874   3.279  25.665  0.00  0.00    +0.103 A 
ATOM      8  N   UNL     1      -2.134   4.061  25.630  0.00  0.00    -0.228 NA
BRANCH   3   2
ATOM      1  C   UNL     1      -1.448   5.996  24.893  0.00  0.00    +0.137 C 
ATOM      2  N   UNL     1      -1.913   5.422  25.261  0.00  0.00    -0.218 NA
ENDBRANCH   3   2
ENDBRANCH   9   6
ENDBRANCH  14  12
BRANCH  18  19
ATOM     19  C   UNL     1      -1.541  -0.449  25.136  0.00  0.00    +0.138 C 
BRANCH  19  20
ATOM     20  C   UNL     1      -2.169  -0.919  24.880  0.00  0.00    +0.139 A 
ATOM     21  C   UNL     1      -2.271  -1.722  25.039  0.00  0.00    +0.037 A 
ATOM     22  C   UNL     1      -2.970  -1.966  24.677  0.00  0.00    +0.037 A 
ATOM     23  C   UNL     1      -3.300  -1.314  24.294  0.00  0.00    +0.145 A 
ATOM     24  O   UNL     1      -2.806  -0.667  24.419  0.00  0.00    -0.456 OA
ATOM     25  C   UNL     1      -4.010  -1.396  23.880  0.00  0.00    +0.037 A 
ATOM     26  C   UNL     1      -4.388  -2.127  23.849  0.00  0.00    +0.003 A 
ATOM     27  C   UNL     1      -4.058  -2.779  24.232  0.00  0.00    +0.000 A 
ATOM     28  C   UNL     1      -3.349  -2.699  24.646  0.00  0.00    +0.003 A 
ENDBRANCH  19  20
ENDBRANCH  18  19
TORSDOF 5
ENDMDL
MODEL 3
REMARK VINA RESULT:     -11.0      1.388      5.057
REMARK  Name = 
REMARK  5 active torsions:
REMARK  status: ('A' for Active; 'I' for Inactive)
REMARK    1  A    between atoms: N_2  and  C_3
REMARK    2  A    between atoms: C_6  and  C_9
REMARK    3  A    between atoms: C_12  and  C_14
REMARK    4  A    between atoms: N_18  and  C_19
REMARK    5  A    between atoms: C_19  and  C_20
REMARK                            x       y       z     vdW  Elec       q    Type
REMARK                         _______ _______ _______ _____ _____    ______ ____
ROOT
ATOM     14  C   UNL     1      -4.962   2.122  25.323  0.00  0.00    +0.138 C 
ATOM     15  C   UNL     1      -5.501   2.351  25.903  0.00  0.00    +0.027 C 
ATOM     16  C   UNL     1      -5.365   3.146  26.080  0.00  0.00    +0.019 C 
ATOM     17  C   UNL     1      -4.741   3.407  25.608  0.00  0.00    +0.073 C 
ATOM     18  N   UNL     1      -4.491   2.776  25.140  0.00  0.00    -0.260 NA
ENDROOT
BRANCH  14  12
ATOM      9  C   UNL     1      -4.514   0.121  24.729  0.00  0.00    +0.205 A 
ATOM     10  N   UNL     1      -5.115   0.315  24.198  0.00  0.00    -0.056 NA
ATOM     11  O   UNL     1      -5.355   1.087  24.356  0.00  0.00    -0.336 OA
ATOM     12  C   UNL     1      -4.903   1.372  24.984  0.00  0.00    +0.251 A 
ATOM     13  N   UNL     1      -4.383   0.776  25.215  0.00  0.00    -0.190 NA
BRANCH   9   6
ATOM      3  C   UNL     1      -3.313  -2.039  24.843  0.00  0.00    +0.148 A 
ATOM      4  C   UNL     1      -3.782  -1.863  24.188  0.00  0.00    +0.036 A 
ATOM      5  C   UNL     1      -4.182  -1.143  24.150  0.00  0.00    +0.008 A 
ATOM      6  C   UNL     1      -4.113  -0.599  24.767  0.00  0.00    +0.058 A 
ATOM      7  C   UNL     1      -3.644  -0.776  25.422  0.00  0.00    +0.103 A 
ATOM      8  N   UNL     1      -3.244  -1.497  25.460  0.00  0.00    -0.228 NA
BRANCH   3   2
ATOM      1  C   UNL     1      -2.159  -2.831  24.554  0.00  0.00    +0.137 C 
ATOM      2  N   UNL     1      -2.913  -2.760  24.882  0.00  0.00    -0.218 NA
ENDBRANCH   3   2
ENDBRANCH   9   6
ENDBRANCH  14  12
BRANCH  18  19
ATOM     19  C   UNL     1      -3.880   2.792  24.587  0.00  0.00    +0.138 C 
BRANCH  19  20
ATOM     20  C   UNL     1      -3.193   3.221  24.744  0.00  0.00    +0.139 A 
ATOM     21  C   UNL     1      -3.081   4.026  24.607  0.00  0.00    +0.037 A 
ATOM     22  C   UNL     1      -2.316   4.222  24.843  0.00  0.00    +0.037 A 
ATOM     23  C   UNL     1      -1.954   3.537  25.127  0.00  0.00    +0.145 A 
ATOM     24  O   UNL     1      -2.495   2.918  25.065  0.00  0.00    -0.456 OA
ATOM     25  C   UNL     1      -1.177   3.566  25.404  0.00  0.00    +0.037 A 
ATOM     26  C   UNL     1      -0.763   4.278  25.398  0.00  0.00    +0.003 A 
ATOM     27  C   UNL     1      -1.125   4.963  25.115  0.00  0.00    +0.000 A 
ATOM     28  C   UNL     1      -1.901   4.936  24.837  0.00  0.00    +0.003 A 
ENDBRANCH  19  20
ENDBRANCH  18  19
TORSDOF 5
ENDMDL
MODEL 4
REMARK VINA RESULT:     -10.4      2.505      6.109
REMARK  Name = 
REMARK  5 active torsions:
REMARK  status: ('A' for Active; 'I' for Inactive)
REMARK    1  A    between atoms: N_2  and  C_3
REMARK    2  A    between atoms: C_6  and  C_9
REMARK    3  A    between atoms: C_12  and  C_14
REMARK    4  A    between atoms: N_18  and  C_19
REMARK    5  A    between atoms: C_19  and  C_20
REMARK                            x       y       z     vdW  Elec       q    Type
REMARK                         _______ _______ _______ _____ _____    ______ ____
ROOT
ATOM     14  C   UNL     1      -0.218   0.835  24.605  0.00  0.00    +0.138 C 
ATOM     15  C   UNL     1       0.322   0.754  23.986  0.00  0.00    +0.027 C 
ATOM     16  C   UNL     1       0.657   1.494  23.840  0.00  0.00    +0.019 C 
ATOM     17  C   UNL     1       0.324   2.032  24.369  0.00  0.00    +0.073 C 
ATOM     18  N   UNL     1      -0.216   1.626  24.841  0.00  0.00    -0.260 NA
ENDROOT
BRANCH  14  12
ATOM      9  C   UNL     1      -1.581  -0.741  25.069  0.00  0.00    +0.205 A 
ATOM     10  N   UNL     1      -1.188  -0.651  25.789  0.00  0.00    -0.056 NA
ATOM     11  O   UNL     1      -0.631  -0.050  25.703  0.00  0.00    -0.336 OA
ATOM     12  C   UNL     1      -0.677   0.232  24.929  0.00  0.00    +0.251 A 
ATOM     13  N   UNL     1      -1.264  -0.194  24.537  0.00  0.00    -0.190 NA
BRANCH   9   6
ATOM      3  C   UNL     1      -3.387  -2.362  24.587  0.00  0.00    +0.148 A 
ATOM      4  C   UNL     1      -3.568  -1.633  24.927  0.00  0.00    +0.036 A 
ATOM      5  C   UNL     1      -2.966  -1.092  25.088  0.00  0.00    +0.008 A 
ATOM      6  C   UNL     1      -2.183  -1.281  24.908  0.00  0.00    +0.058 A 
ATOM      7  C   UNL     1      -2.003  -2.011  24.568  0.00  0.00    +0.103 A 
ATOM      8  N   UNL     1      -2.605  -2.551  24.407  0.00  0.00    -0.228 NA
BRANCH   3   2
ATOM      1  C   UNL     1      -4.381  -2.880  23.701  0.00  0.00    +0.137 C 
ATOM      2  N   UNL     1      -3.989  -2.903  24.426  0.00  0.00    -0.218 NA
ENDBRANCH   3   2
ENDBRANCH   9   6
ENDBRANCH  14  12
BRANCH  18  19
ATOM     19  C   UNL     1      -0.675   1.952  25.445  0.00  0.00    +0.138 C 
BRANCH  19  20
ATOM     20  C   UNL     1      -0.942   2.730  25.386  0.00  0.00    +0.139 A 
ATOM     21  C   UNL     1      -1.710   2.992  25.534  0.00  0.00    +0.037 A 
ATOM     22  C   UNL     1      -1.730   3.807  25.409  0.00  0.00    +0.037 A 
ATOM     23  C   UNL     1      -0.974   4.049  25.184  0.00  0.00    +0.145 A 
ATOM     24  O   UNL     1      -0.487   3.384  25.170  0.00  0.00    -0.456 OA
ATOM     25  C   UNL     1      -0.828   4.844  25.022  0.00  0.00    +0.037 A 
ATOM     26  C   UNL     1      -1.436   5.397  25.084  0.00  0.00    +0.003 A 
ATOM     27  C   UNL     1      -2.192   5.155  25.308  0.00  0.00    +0.000 A 
ATOM     28  C   UNL     1      -2.340   4.360  25.471  0.00  0.00    +0.003 A 
ENDBRANCH  19  20
ENDBRANCH  18  19
TORSDOF 5
ENDMDL
MODEL 5
REMARK VINA RESULT:     -10.0      2.649      4.760
REMARK  Name = 
REMARK  5 active torsions:
REMARK  status: ('A' for Active; 'I' for Inactive)
REMARK    1  A    between atoms: N_2  and  C_3
REMARK    2  A    between atoms: C_6  and  C_9
REMARK    3  A    between atoms: C_12  and  C_14
REMARK    4  A    between atoms: N_18  and  C_19
REMARK    5  A    between atoms: C_19  and  C_20
REMARK                            x       y       z     vdW  Elec       q    Type
REMARK                         _______ _______ _______ _____ _____    ______ ____
ROOT
ATOM     14  C   UNL     1      -1.046   3.949  25.189  0.00  0.00    +0.138 C 
ATOM     15  C   UNL     1      -0.850   4.691  24.885  0.00  0.00    +0.027 C 
ATOM     16  C   UNL     1      -1.484   5.200  25.025  0.00  0.00    +0.019 C 
ATOM     17  C   UNL     1      -2.071   4.773  25.416  0.00  0.00    +0.073 C 
ATOM     18  N   UNL     1      -1.802   4.001  25.518  0.00  0.00    -0.260 NA
ENDROOT
BRANCH  14  12
ATOM      9  C   UNL     1       0.047   2.170  24.746  0.00  0.00    +0.205 A 
ATOM     10  N   UNL     1       0.276   2.309  25.526  0.00  0.00    -0.056 NA
ATOM     11  O   UNL     1      -0.105   2.991  25.787  0.00  0.00    -0.336 OA
ATOM     12  C   UNL     1      -0.570   3.276  25.168  0.00  0.00    +0.251 A 
ATOM     13  N   UNL     1      -0.476   2.769  24.524  0.00  0.00    -0.190 NA
BRANCH   9   6
ATOM      3  C   UNL     1       0.798   0.293  23.319  0.00  0.00    +0.148 A 
ATOM      4  C   UNL     1       0.053   0.270  23.673  0.00  0.00    +0.036 A 
ATOM      5  C   UNL     1      -0.197   0.895  24.148  0.00  0.00    +0.008 A 
ATOM      6  C   UNL     1       0.298   1.544  24.270  0.00  0.00    +0.058 A 
ATOM      7  C   UNL     1       1.043   1.567  23.917  0.00  0.00    +0.103 A 
ATOM      8  N   UNL     1       1.293   0.941  23.441  0.00  0.00    -0.228 NA
BRANCH   3   2
ATOM      1  C   UNL     1       1.706  -0.242  22.354  0.00  0.00    +0.137 C 
ATOM      2  N   UNL     1       1.049  -0.333  22.844  0.00  0.00    -0.218 NA
ENDBRANCH   3   2
ENDBRANCH   9   6
ENDBRANCH  14  12
BRANCH  18  19
ATOM     19  C   UNL     1      -2.213   3.386  25.883  0.00  0.00    +0.138 C 
BRANCH  19  20
ATOM     20  C   UNL     1      -3.004   3.247  25.691  0.00  0.00    +0.139 A 
ATOM     21  C   UNL     1      -3.659   3.590  26.056  0.00  0.00    +0.037 A 
ATOM     22  C   UNL     1      -4.337   3.296  25.692  0.00  0.00    +0.037 A 
ATOM     23  C   UNL     1      -4.101   2.770  25.101  0.00  0.00    +0.145 A 
ATOM     24  O   UNL     1      -3.278   2.740  25.100  0.00  0.00    -0.456 OA
ATOM     25  C   UNL     1      -4.669   2.387  24.640  0.00  0.00    +0.037 A 
ATOM     26  C   UNL     1      -5.470   2.530  24.770  0.00  0.00    +0.003 A 
ATOM     27  C   UNL     1      -5.706   3.055  25.360  0.00  0.00    +0.000 A 
ATOM     28  C   UNL     1      -5.140   3.439  25.822  0.00  0.00    +0.003 A 
ENDBRANCH  19  20
ENDBRANCH  18  19
TORSDOF 5
ENDMDL
MODEL 6
REMARK VINA RESULT:      -9.9      2.937      4.325
REMARK  Name = 
REMARK  5 active torsions:
REMARK  status: ('A' for Active; 'I' for Inactive)
REMARK    1  A    between atoms: N_2  and  C_3
REMARK    2  A    between atoms: C_6  and  C_9
REMARK    3  A    between atoms: C_12  and  C_14
REMARK    4  A    between atoms: N_18  and  C_19
REMARK    5  A    between atoms: C_19  and  C_20
REMARK                            x       y       z     vdW  Elec       q    Type
REMARK                         _______ _______ _______ _____ _____    ______ ____
ROOT
ATOM     14  C   UNL     1      -2.596  -0.498  25.336  0.00  0.00    +0.138 C 
ATOM     15  C   UNL     1      -2.780  -1.181  25.760  0.00  0.00    +0.027 C 
ATOM     16  C   UNL     1      -3.602  -1.256  25.780  0.00  0.00    +0.019 C 
ATOM     17  C   UNL     1      -3.925  -0.619  25.368  0.00  0.00    +0.073 C 
ATOM     18  N   UNL     1      -3.304  -0.150  25.094  0.00  0.00    -0.260 NA
ENDROOT
BRANCH  14  12
ATOM      9  C   UNL     1      -0.672   0.036  24.581  0.00  0.00    +0.205 A 
ATOM     10  N   UNL     1      -0.667   0.416  25.313  0.00  0.00    -0.056 NA
ATOM     11  O   UNL     1      -1.387   0.262  25.685  0.00  0.00    -0.336 OA
ATOM     12  C   UNL     1      -1.837  -0.213  25.183  0.00  0.00    +0.251 A 
ATOM     13  N   UNL     1      -1.396  -0.353  24.501  0.00  0.00    -0.190 NA
BRANCH   9   6
ATOM      3  C   UNL     1       1.160   0.058  22.918  0.00  0.00    +0.148 A 
ATOM      4  C   UNL     1       0.874   0.768  23.225  0.00  0.00    +0.036 A 
ATOM      5  C   UNL     1       0.263   0.761  23.779  0.00  0.00    +0.008 A 
ATOM      6  C   UNL     1      -0.061   0.043  24.027  0.00  0.00    +0.058 A 
ATOM      7  C   UNL     1       0.226  -0.666  23.719  0.00  0.00    +0.103 A 
ATOM      8  N   UNL     1       0.837  -0.659  23.165  0.00  0.00    -0.228 NA
BRANCH   3   2
ATOM      1  C   UNL     1       2.553   0.155  22.611  0.00  0.00    +0.137 C 
ATOM      2  N   UNL     1       1.771   0.065  22.364  0.00  0.00    -0.218 NA
ENDBRANCH   3   2
ENDBRANCH   9   6
ENDBRANCH  14  12
BRANCH  18  19
ATOM     19  C   UNL     1      -3.377   0.544  24.654  0.00  0.00    +0.138 C 
BRANCH  19  20
ATOM     20  C   UNL     1      -3.965   1.092  24.841  0.00  0.00    +0.139 A 
ATOM     21  C   UNL     1      -4.769   1.016  24.675  0.00  0.00    +0.037 A 
ATOM     22  C   UNL     1      -5.152   1.689  24.958  0.00  0.00    +0.037 A 
ATOM     23  C   UNL     1      -4.585   2.181  25.300  0.00  0.00    +0.145 A 
ATOM     24  O   UNL     1      -3.851   1.812  25.228  0.00  0.00    -0.456 OA
ATOM     25  C   UNL     1      -4.812   2.901  25.632  0.00  0.00    +0.037 A 
ATOM     26  C   UNL     1      -5.604   3.129  25.623  0.00  0.00    +0.003 A 
ATOM     27  C   UNL     1      -6.171   2.637  25.282  0.00  0.00    +0.000 A 
ATOM     28  C   UNL     1      -5.946   1.917  24.949  0.00  0.00    +0.003 A 
ENDBRANCH  19  20
ENDBRANCH  18  19
TORSDOF 5
ENDMDL
MODEL 7
REMARK VINA RESULT:      -9.8      2.227      5.293
REMARK  Name = 
REMARK  5 active torsions:
REMARK  status: ('A' for Active; 'I' for Inactive)
REMARK    1  A    between atoms: N_2  and  C_3
REMARK    2  A    between atoms: C_6  and  C_9
REMARK    3  A    between atoms: C_12  and  C_14
REMARK    4  A    between atoms: N_18  and  C_19
REMARK    5  A    between atoms: C_19  and  C_20
REMARK                            x       y       z     vdW  Elec       q    Type
REMARK                         _______ _______ _______ _____ _____    ______ ____
ROOT
ATOM     14  C   UNL     1      -1.040   1.897  25.365  0.00  0.00    +0.138 C 
ATOM     15  C   UNL     1      -0.529   2.121  25.973  0.00  0.00    +0.027 C 
ATOM     16  C   UNL     1      -0.720   2.892  26.196  0.00  0.00    +0.019 C 
ATOM     17  C   UNL     1      -1.349   3.144  25.725  0.00  0.00    +0.073 C 
ATOM     18  N   UNL     1      -1.547   2.530  25.212  0.00  0.00    -0.260 NA
ENDROOT
BRANCH  14  12
ATOM      9  C   UNL     1      -1.340  -0.087  24.637  0.00  0.00    +0.205 A 
ATOM     10  N   UNL     1      -0.749   0.182  24.128  0.00  0.00    -0.056 NA
ATOM     11  O   UNL     1      -0.565   0.957  24.339  0.00  0.00    -0.336 OA
ATOM     12  C   UNL     1      -1.042   1.168  24.978  0.00  0.00    +0.251 A 
ATOM     13  N   UNL     1      -1.521   0.523  25.162  0.00  0.00    -0.190 NA
BRANCH   9   6
ATOM      3  C   UNL     1      -2.388  -2.329  24.594  0.00  0.00    +0.148 A 
ATOM      4  C   UNL     1      -2.861  -1.653  24.614  0.00  0.00    +0.036 A 
ATOM      5  C   UNL     1      -2.512  -0.906  24.628  0.00  0.00    +0.008 A 
ATOM      6  C   UNL     1      -1.690  -0.834  24.622  0.00  0.00    +0.058 A 
ATOM      7  C   UNL     1      -1.217  -1.510  24.603  0.00  0.00    +0.103 A 
ATOM      8  N   UNL     1      -1.566  -2.258  24.589  0.00  0.00    -0.228 NA
BRANCH   3   2
ATOM      1  C   UNL     1      -3.548  -3.150  24.450  0.00  0.00    +0.137 C 
ATOM      2  N   UNL     1      -2.737  -3.076  24.580  0.00  0.00    -0.218 NA
ENDBRANCH   3   2
ENDBRANCH   9   6
ENDBRANCH  14  12
BRANCH  18  19
ATOM     19  C   UNL     1      -2.145   2.544  24.645  0.00  0.00    +0.138 C 
BRANCH  19  20
ATOM     20  C   UNL     1      -2.904   2.796  24.850  0.00  0.00    +0.139 A 
ATOM     21  C   UNL     1      -3.193   3.566  24.788  0.00  0.00    +0.037 A 
ATOM     22  C   UNL     1      -3.973   3.567  25.054  0.00  0.00    +0.037 A 
ATOM     23  C   UNL     1      -4.167   2.798  25.281  0.00  0.00    +0.145 A 
ATOM     24  O   UNL     1      -3.506   2.321  25.155  0.00  0.00    -0.456 OA
ATOM     25  C   UNL     1      -4.921   2.632  25.572  0.00  0.00    +0.037 A 
ATOM     26  C   UNL     1      -5.480   3.234  25.637  0.00  0.00    +0.003 A 
ATOM     27  C   UNL     1      -5.287   4.003  25.410  0.00  0.00    +0.000 A 
ATOM     28  C   UNL     1      -4.534   4.170  25.119  0.00  0.00    +0.003 A 
ENDBRANCH  19  20
ENDBRANCH  18  19
TORSDOF 5
ENDMDL
