MODEL 1
REMARK VINA RESULT:     -12.0      0.000      0.000
REMARK  Name = 
REMARK  4 active torsions:
REMARK  status: ('A' for Active; 'I' for Inactive)
REMARK    1  A    between atoms: C_2  and  S_3
REMARK    2  A    between atoms: S_3  and  C_6
REMARK    3  A    between atoms: C_11  and  C_13
REMARK    4  A    between atoms: C_18  and  C_20
REMARK                            x       y       z     vdW  Elec       q    Type
REMARK                         _______ _______ _______ _____ _____    ______ ____
ROOT
ATOM      6  C   UNL     1      -3.171  -1.674  24.556  0.00  0.00    +0.107 A 
ATOM      7  C   UNL     1      -3.116  -0.951  24.948  0.00  0.00    +0.041 A 
ATOM      8  C   UNL     1      -3.702  -0.380  24.848  0.00  0.00    +0.120 A 
ATOM      9  C   UNL     1      -4.345  -0.532  24.354  0.00  0.00    +0.164 A 
ATOM     10  O   UNL     1      -4.836   0.130  24.361  0.00  0.00    -0.438 OA
ATOM     11  C   UNL     1      -4.496   0.693  24.859  0.00  0.00    +0.207 A 
ATOM     12  N   UNL     1      -3.796   0.377  25.160  0.00  0.00    -0.212 NA
ATOM     26  C   UNL     1      -4.401  -1.256  23.960  0.00  0.00    +0.040 A 
ATOM     27  C   UNL     1      -3.814  -1.827  24.062  0.00  0.00    +0.022 A 
ENDROOT
BRANCH  11  13
ATOM     13  C   UNL     1      -4.803   1.440  25.027  0.00  0.00    +0.098 C 
ATOM     14  C   UNL     1      -5.600   1.625  25.132  0.00  0.00    +0.032 C 
ATOM     15  C   UNL     1      -5.657   2.433  25.290  0.00  0.00    +0.094 C 
ATOM     16  N   UNL     1      -4.894   2.747  25.283  0.00  0.00    -0.274 N 
ATOM     17  C   UNL     1      -4.367   2.134  25.121  0.00  0.00    +0.103 C 
ATOM     18  C   UNL     1      -4.694   3.536  25.415  0.00  0.00    +0.267 C 
ATOM     19  O   UNL     1      -5.284   4.091  25.572  0.00  0.00    -0.268 OA
BRANCH  18  20
ATOM     20  C   UNL     1      -3.903   3.772  25.391  0.00  0.00    +0.135 A 
ATOM     21  N   UNL     1      -3.537   3.915  24.665  0.00  0.00    -0.239 NA
ATOM     22  C   UNL     1      -2.747   4.150  24.641  0.00  0.00    +0.099 A 
ATOM     23  C   UNL     1      -2.322   4.242  25.342  0.00  0.00    +0.021 A 
ATOM     24  C   UNL     1      -2.688   4.098  26.068  0.00  0.00    +0.003 A 
ATOM     25  C   UNL     1      -3.479   3.863  26.092  0.00  0.00    +0.024 A 
ENDBRANCH  18  20
ENDBRANCH  11  13
BRANCH   6   3
ATOM      3  S   UNL     1      -2.585  -2.244  24.657  0.00  0.00    +0.009 S 
ATOM      4  O   UNL     1      -2.049  -1.768  24.249  0.00  0.00    -0.169 OA
ATOM      5  O   UNL     1      -3.119  -2.722  25.066  0.00  0.00    -0.169 OA
BRANCH   3   2
ATOM      1  C   UNL     1      -1.208  -2.626  24.611  0.00  0.00    +0.028 C 
ATOM      2  C   UNL     1      -1.997  -2.816  24.759  0.00  0.00    +0.156 C 
ENDBRANCH   3   2
ENDBRANCH   6   3
TORSDOF 4
ENDMDL
MODEL 2
REMARK VINA RESULT:     -10.9      1.748      2.748
REMARK  Name = 
REMARK  4 active torsions:
REMARK  status: ('A' for Active; 'I' for Inactive)
REMARK    1  A    between atoms: C_2  and  S_3
REMARK    2  A    between atoms: S_3  and  C_6
REMARK    3  A    between atoms: C_11  and  C_13
REMARK    4  A    between atoms: C_18  and  C_20
REMARK                            x       y       z     vdW  Elec       q    Type
REMARK                         _______ _______ _______ _____ _____    ______ ____
ROOT
ATOM      6  C   UNL     1      -1.946  -1.583  24.844  0.00  0.00    +0.107 A 
ATOM      7  C   UNL     1      -2.240  -0.819  24.744  0.00  0.00    +0.041 A 
ATOM      8  C   UNL     1      -1.782  -0.168  24.961  0.00  0.00    +0.120 A 
ATOM      9  C   UNL     1      -1.029  -0.282  25.279  0.00  0.00    +0.164 A 
ATOM     10  O   UNL     1      -0.706   0.459  25.441  0.00  0.00    -0.438 OA
ATOM     11  C   UNL     1      -1.259   1.031  25.223  0.00  0.00    +0.207 A 
ATOM     12  N   UNL     1      -1.923   0.643  24.927  0.00  0.00    -0.212 NA
ATOM     26  C   UNL     1      -0.735  -1.046  25.380  0.00  0.00    +0.040 A 
ATOM     27  C   UNL     1      -1.194  -1.696  25.162  0.00  0.00    +0.022 A 
ENDROOT
BRANCH  11  13
ATOM     13  C   UNL     1      -1.164   1.848  25.291  0.00  0.00    +0.098 C 
ATOM     14  C   UNL     1      -0.448   2.247  25.385  0.00  0.00    +0.032 C 
ATOM     15  C   UNL     1      -0.609   3.055  25.428  0.00  0.00    +0.094 C 
ATOM     16  N   UNL     1      -1.425   3.156  25.360  0.00  0.00    -0.274 N 
ATOM     17  C   UNL     1      -1.768   2.410  25.275  0.00  0.00    +0.103 C 
ATOM     18  C   UNL     1      -1.828   3.875  25.375  0.00  0.00    +0.267 C 
ATOM     19  O   UNL     1      -1.410   4.581  25.464  0.00  0.00    -0.268 OA
BRANCH  18  20
ATOM     20  C   UNL     1      -2.650   3.890  25.300  0.00  0.00    +0.135 A 
ATOM     21  N   UNL     1      -2.996   3.891  24.550  0.00  0.00    -0.239 NA
ATOM     22  C   UNL     1      -3.817   3.906  24.477  0.00  0.00    +0.099 A 
ATOM     23  C   UNL     1      -4.293   3.920  25.150  0.00  0.00    +0.021 A 
ATOM     24  C   UNL     1      -3.947   3.919  25.900  0.00  0.00    +0.003 A 
ATOM     25  C   UNL     1      -3.125   3.904  25.974  0.00  0.00    +0.024 A 
ENDBRANCH  18  20
ENDBRANCH  11  13
BRANCH   6   3
ATOM      3  S   UNL     1      -2.405  -2.233  24.627  0.00  0.00    +0.009 S 
ATOM      4  O   UNL     1      -3.006  -1.978  25.131  0.00  0.00    -0.169 OA
ATOM      5  O   UNL     1      -1.804  -2.489  24.123  0.00  0.00    -0.169 OA
BRANCH   3   2
ATOM      1  C   UNL     1      -3.684  -2.855  24.490  0.00  0.00    +0.028 C 
ATOM      2  C   UNL     1      -2.863  -2.884  24.410  0.00  0.00    +0.156 C 
ENDBRANCH   3   2
ENDBRANCH   6   3
TORSDOF 4
ENDMDL
MODEL 3
REMARK VINA RESULT:     -10.9      2.702      5.781
REMARK  Name = 
REMARK  4 active torsions:
REMARK  status: ('A' for Active; 'I' for Inactive)
REMARK    1  A    between atoms: C_2  and  S_3
REMARK    2  A    between atoms: S_3  and  C_6
REMARK    3  A    between atoms: C_11  and  C_13
REMARK    4  A    between atoms: C_18  and  C_20
REMARK                            x       y       z     vdW  Elec       q    Type
REMARK                         _______ _______ _______ _____ _____    ______ ____
ROOT
ATOM      6  C   UNL     1      -1.193   3.331  25.465  0.00  0.00    +0.107 A 
ATOM      7  C   UNL     1      -1.506   2.709  25.024  0.00  0.00    +0.041 A 
ATOM      8  C   UNL     1      -1.217   1.943  25.125  0.00  0.00    +0.120 A 
ATOM      9  C   UNL     1      -0.613   1.800  25.669  0.00  0.00    +0.164 A 
ATOM     10  O   UNL     1      -0.440   0.994  25.651  0.00  0.00    -0.438 OA
ATOM     11  C   UNL     1      -0.936   0.639  25.096  0.00  0.00    +0.207 A 
ATOM     12  N   UNL     1      -1.416   1.226  24.772  0.00  0.00    -0.212 NA
ATOM     26  C   UNL     1      -0.299   2.423  26.111  0.00  0.00    +0.040 A 
ATOM     27  C   UNL     1      -0.589   3.188  26.008  0.00  0.00    +0.022 A 
ENDROOT
BRANCH  11  13
ATOM     13  C   UNL     1      -0.950  -0.162  24.901  0.00  0.00    +0.098 C 
ATOM     14  C   UNL     1      -0.291  -0.645  24.786  0.00  0.00    +0.032 C 
ATOM     15  C   UNL     1      -0.559  -1.403  24.600  0.00  0.00    +0.094 C 
ATOM     16  N   UNL     1      -1.384  -1.388  24.599  0.00  0.00    -0.274 N 
ATOM     17  C   UNL     1      -1.625  -0.621  24.785  0.00  0.00    +0.103 C 
ATOM     18  C   UNL     1      -1.880  -2.028  24.440  0.00  0.00    +0.267 C 
ATOM     19  O   UNL     1      -1.558  -2.766  24.261  0.00  0.00    -0.268 OA
BRANCH  18  20
ATOM     20  C   UNL     1      -2.699  -1.930  24.459  0.00  0.00    +0.135 A 
ATOM     21  N   UNL     1      -3.101  -1.675  23.784  0.00  0.00    -0.239 NA
ATOM     22  C   UNL     1      -3.919  -1.577  23.805  0.00  0.00    +0.099 A 
ATOM     23  C   UNL     1      -4.337  -1.734  24.498  0.00  0.00    +0.021 A 
ATOM     24  C   UNL     1      -3.936  -1.988  25.173  0.00  0.00    +0.003 A 
ATOM     25  C   UNL     1      -3.116  -2.086  25.154  0.00  0.00    +0.024 A 
ENDBRANCH  18  20
ENDBRANCH  11  13
BRANCH   6   3
ATOM      3  S   UNL     1      -1.482   4.096  25.362  0.00  0.00    +0.009 S 
ATOM      4  O   UNL     1      -0.864   4.262  24.843  0.00  0.00    -0.169 OA
ATOM      5  O   UNL     1      -2.102   3.932  25.882  0.00  0.00    -0.169 OA
BRANCH   3   2
ATOM      1  C   UNL     1      -1.287   5.447  24.939  0.00  0.00    +0.028 C 
ATOM      2  C   UNL     1      -1.772   4.863  25.261  0.00  0.00    +0.156 C 
ENDBRANCH   3   2
ENDBRANCH   6   3
TORSDOF 4
ENDMDL
MODEL 4
REMARK VINA RESULT:     -10.4      1.840      5.151
REMARK  Name = 
REMARK  4 active torsions:
REMARK  status: ('A' for Active; 'I' for Inactive)
REMARK    1  A    between atoms: C_2  and  S_3
REMARK    2  A    between atoms: S_3  and  C_6
REMARK    3  A    between atoms: C_11  and  C_13
REMARK    4  A    between atoms: C_18  and  C_20
REMARK                            x       y       z     vdW  Elec       q    Type
REMARK                         _______ _______ _______ _____ _____    ______ ____
ROOT
ATOM      6  C   UNL     1      -3.005   3.564  25.095  0.00  0.00    +0.107 A 
ATOM      7  C   UNL     1      -2.685   2.804  25.095  0.00  0.00    +0.041 A 
ATOM      8  C   UNL     1      -3.158   2.156  24.901  0.00  0.00    +0.120 A 
ATOM      9  C   UNL     1      -3.952   2.270  24.707  0.00  0.00    +0.164 A 
ATOM     10  O   UNL     1      -4.281   1.532  24.540  0.00  0.00    -0.438 OA
ATOM     11  C   UNL     1      -3.691   0.963  24.631  0.00  0.00    +0.207 A 
ATOM     12  N   UNL     1      -2.997   1.349  24.854  0.00  0.00    -0.212 NA
ATOM     26  C   UNL     1      -4.272   3.030  24.707  0.00  0.00    +0.040 A 
ATOM     27  C   UNL     1      -3.799   3.677  24.902  0.00  0.00    +0.022 A 
ENDROOT
BRANCH  11  13
ATOM     13  C   UNL     1      -3.779   0.151  24.519  0.00  0.00    +0.098 C 
ATOM     14  C   UNL     1      -4.480  -0.239  24.325  0.00  0.00    +0.032 C 
ATOM     15  C   UNL     1      -4.317  -1.045  24.267  0.00  0.00    +0.094 C 
ATOM     16  N   UNL     1      -3.515  -1.155  24.424  0.00  0.00    -0.274 N 
ATOM     17  C   UNL     1      -3.183  -0.415  24.580  0.00  0.00    +0.103 C 
ATOM     18  C   UNL     1      -3.114  -1.876  24.426  0.00  0.00    +0.267 C 
ATOM     19  O   UNL     1      -3.521  -2.574  24.260  0.00  0.00    -0.268 OA
BRANCH  18  20
ATOM     20  C   UNL     1      -2.307  -1.899  24.595  0.00  0.00    +0.135 A 
ATOM     21  N   UNL     1      -1.755  -1.839  23.984  0.00  0.00    -0.239 NA
ATOM     22  C   UNL     1      -0.949  -1.863  24.153  0.00  0.00    +0.099 A 
ATOM     23  C   UNL     1      -0.692  -1.947  24.932  0.00  0.00    +0.021 A 
ATOM     24  C   UNL     1      -1.244  -2.007  25.544  0.00  0.00    +0.003 A 
ATOM     25  C   UNL     1      -2.051  -1.983  25.375  0.00  0.00    +0.024 A 
ENDBRANCH  18  20
ENDBRANCH  11  13
BRANCH   6   3
ATOM      3  S   UNL     1      -2.532   4.210  25.290  0.00  0.00    +0.009 S 
ATOM      4  O   UNL     1      -2.239   4.229  24.518  0.00  0.00    -0.169 OA
ATOM      5  O   UNL     1      -2.823   4.193  26.061  0.00  0.00    -0.169 OA
BRANCH   3   2
ATOM      1  C   UNL     1      -1.329   4.962  25.112  0.00  0.00    +0.028 C 
ATOM      2  C   UNL     1      -2.058   4.858  25.484  0.00  0.00    +0.156 C 
ENDBRANCH   3   2
ENDBRANCH   6   3
TORSDOF 4
ENDMDL
