MODEL 1
REMARK VINA RESULT:     -12.9      0.000      0.000
REMARK  Name = 
REMARK  9 active torsions:
REMARK  status: ('A' for Active; 'I' for Inactive)
REMARK    1  A    between atoms: C_5  and  N_6
REMARK    2  A    between atoms: N_6  and  C_7
REMARK    3  A    between atoms: C_7  and  C_8
REMARK    4  A    between atoms: C_14  and  C_15
REMARK    5  A    between atoms: C_15  and  C_16
REMARK    6  A    between atoms: C_16  and  C_17
REMARK    7  A    between atoms: N_19  and  C_20
REMARK    8  A    between atoms: C_20  and  C_21
REMARK    9  A    between atoms: C_21  and  N_22
REMARK                            x       y       z     vdW  Elec       q    Type
REMARK                         _______ _______ _______ _____ _____    ______ ____
ROOT
ATOM      1  C   UNL     1      -4.438  -2.141  24.107  0.00  0.00    +0.000 C 
ATOM      2  C   UNL     1      -3.701  -1.834  24.315  0.00  0.00    +0.001 C 
ATOM      3  C   UNL     1      -3.459  -2.622  24.275  0.00  0.00    +0.000 C 
ATOM      4  C   UNL     1      -4.098  -1.111  24.311  0.00  0.00    +0.017 C 
ATOM      5  C   UNL     1      -3.555  -0.522  24.509  0.00  0.00    +0.073 C 
ATOM     14  C   UNL     1      -2.823  -0.881  24.635  0.00  0.00    +0.015 C 
ATOM     28  C   UNL     1      -2.086  -0.575  24.844  0.00  0.00    +0.004 C 
ATOM     29  C   UNL     1      -1.440  -1.080  24.932  0.00  0.00    +0.030 C 
ATOM     30  C   UNL     1      -1.530  -1.891  24.813  0.00  0.00    +0.127 C 
ATOM     31  C   UNL     1      -0.727  -1.863  25.002  0.00  0.00    +0.033 C 
ATOM     32  O   UNL     1      -1.342  -2.692  24.758  0.00  0.00    -0.226 OA
ATOM     33  C   UNL     1      -2.267  -2.197  24.604  0.00  0.00    +0.030 C 
ATOM     34  C   UNL     1      -2.913  -1.693  24.515  0.00  0.00    +0.004 C 
ENDROOT
BRANCH   5   6
ATOM      6  N   UNL     1      -3.715   0.285  24.570  0.00  0.00    -0.219 NA
BRANCH   6   7
ATOM      7  C   UNL     1      -4.424   0.588  24.275  0.00  0.00    +0.089 C 
BRANCH   7   8
ATOM      8  C   UNL     1      -4.761   1.258  24.618  0.00  0.00    +0.017 C 
ATOM      9  C   UNL     1      -5.141   1.202  25.348  0.00  0.00    +0.001 C 
ATOM     10  C   UNL     1      -5.478   1.872  25.691  0.00  0.00    +0.000 C 
ATOM     11  C   UNL     1      -5.435   2.600  25.304  0.00  0.00    +0.000 C 
ATOM     12  C   UNL     1      -5.054   2.656  24.573  0.00  0.00    +0.000 C 
ATOM     13  C   UNL     1      -4.717   1.986  24.230  0.00  0.00    +0.001 C 
ENDBRANCH   7   8
ENDBRANCH   6   7
ENDBRANCH   5   6
BRANCH  14  15
ATOM     15  C   UNL     1      -2.817  -0.062  24.737  0.00  0.00    +0.011 C 
BRANCH  15  16
ATOM     16  C   UNL     1      -2.189   0.299  25.131  0.00  0.00    +0.087 C 
BRANCH  16  17
ATOM     17  C   UNL     1      -1.900   1.026  24.868  0.00  0.00    +0.241 C 
ATOM     18  O   UNL     1      -1.732   1.396  24.150  0.00  0.00    -0.273 OA
ATOM     19  N   UNL     1      -1.697   1.611  25.413  0.00  0.00    -0.204 NA
BRANCH  19  20
ATOM     20  C   UNL     1      -1.408   2.338  25.151  0.00  0.00    +0.132 C 
BRANCH  20  21
ATOM     21  C   UNL     1      -1.224   2.929  25.695  0.00  0.00    +0.096 C 
BRANCH  21  22
ATOM     22  N   UNL     1      -1.282   3.723  25.477  0.00  0.00    -0.267 NA
ATOM     23  C   UNL     1      -1.963   4.152  25.658  0.00  0.00    +0.105 C 
ATOM     24  C   UNL     1      -2.021   4.946  25.440  0.00  0.00    +0.159 C 
ATOM     25  O   UNL     1      -1.397   5.311  25.042  0.00  0.00    -0.351 OA
ATOM     26  C   UNL     1      -0.715   4.882  24.861  0.00  0.00    +0.159 C 
ATOM     27  C   UNL     1      -0.658   4.088  25.079  0.00  0.00    +0.105 C 
ENDBRANCH  21  22
ENDBRANCH  20  21
ENDBRANCH  19  20
ENDBRANCH  16  17
ENDBRANCH  15  16
ENDBRANCH  14  15
TORSDOF 9
ENDMDL
MODEL 2
REMARK VINA RESULT:     -12.7      1.766      4.254
REMARK  Name = 
REMARK  9 active torsions:
REMARK  status: ('A' for Active; 'I' for Inactive)
REMARK    1  A    between atoms: C_5  and  N_6
REMARK    2  A    between atoms: N_6  and  C_7
REMARK    3  A    between atoms: C_7  and  C_8
REMARK    4  A    between atoms: C_14  and  C_15
REMARK    5  A    between atoms: C_15  and  C_16
REMARK    6  A    between atoms: C_16  and  C_17
REMARK    7  A    between atoms: N_19  and  C_20
REMARK    8  A    between atoms: C_20  and  C_21
REMARK    9  A    between atoms: C_21  and  N_22
REMARK                            x       y       z     vdW  Elec       q    Type
REMARK                         _______ _______ _______ _____ _____    ______ ____
ROOT
ATOM      1  C   UNL     1      -6.120   1.590  25.599  0.00  0.00    +0.000 C 
ATOM      2  C   UNL     1      -5.412   1.902  25.310  0.00  0.00    +0.001 C 
ATOM      3  C   UNL     1      -5.798   2.627  25.395  0.00  0.00    +0.000 C 
ATOM      4  C   UNL     1      -5.175   1.113  25.285  0.00  0.00    +0.017 C 
ATOM      5  C   UNL     1      -4.402   1.088  24.998  0.00  0.00    +0.073 C 
ATOM     14  C   UNL     1      -4.162   1.862  24.845  0.00  0.00    +0.015 C 
ATOM     28  C   UNL     1      -3.455   2.175  24.555  0.00  0.00    +0.004 C 
ATOM     29  C   UNL     1      -3.373   2.990  24.459  0.00  0.00    +0.030 C 
ATOM     30  C   UNL     1      -3.998   3.493  24.652  0.00  0.00    +0.127 C 
ATOM     31  C   UNL     1      -3.441   4.047  24.399  0.00  0.00    +0.033 C 
ATOM     32  O   UNL     1      -4.430   4.188  24.757  0.00  0.00    -0.226 OA
ATOM     33  C   UNL     1      -4.705   3.181  24.942  0.00  0.00    +0.030 C 
ATOM     34  C   UNL     1      -4.787   2.366  25.038  0.00  0.00    +0.004 C 
ENDROOT
BRANCH   5   6
ATOM      6  N   UNL     1      -3.949   0.409  24.883  0.00  0.00    -0.219 NA
BRANCH   6   7
ATOM      7  C   UNL     1      -4.160  -0.296  25.257  0.00  0.00    +0.089 C 
BRANCH   7   8
ATOM      8  C   UNL     1      -3.975  -1.020  24.908  0.00  0.00    +0.017 C 
ATOM      9  C   UNL     1      -4.314  -1.229  24.186  0.00  0.00    +0.001 C 
ATOM     10  C   UNL     1      -4.130  -1.953  23.836  0.00  0.00    +0.000 C 
ATOM     11  C   UNL     1      -3.606  -2.469  24.210  0.00  0.00    +0.000 C 
ATOM     12  C   UNL     1      -3.266  -2.261  24.933  0.00  0.00    +0.000 C 
ATOM     13  C   UNL     1      -3.451  -1.537  25.282  0.00  0.00    +0.001 C 
ENDBRANCH   7   8
ENDBRANCH   6   7
ENDBRANCH   5   6
BRANCH  14  15
ATOM     15  C   UNL     1      -3.588   1.294  24.676  0.00  0.00    +0.011 C 
BRANCH  15  16
ATOM     16  C   UNL     1      -2.789   1.475  24.766  0.00  0.00    +0.087 C 
BRANCH  16  17
ATOM     17  C   UNL     1      -2.236   1.186  24.226  0.00  0.00    +0.241 C 
ATOM     18  O   UNL     1      -2.208   0.982  23.427  0.00  0.00    -0.273 OA
ATOM     19  N   UNL     1      -1.465   1.025  24.471  0.00  0.00    -0.204 NA
BRANCH  19  20
ATOM     20  C   UNL     1      -0.912   0.735  23.931  0.00  0.00    +0.132 C 
BRANCH  20  21
ATOM     21  C   UNL     1      -0.220   0.379  24.201  0.00  0.00    +0.096 C 
BRANCH  21  22
ATOM     22  N   UNL     1       0.444   0.344  23.712  0.00  0.00    -0.267 NA
ATOM     23  C   UNL     1       0.531  -0.279  23.178  0.00  0.00    +0.105 C 
ATOM     24  C   UNL     1       1.195  -0.315  22.689  0.00  0.00    +0.159 C 
ATOM     25  O   UNL     1       1.772   0.273  22.735  0.00  0.00    -0.351 OA
ATOM     26  C   UNL     1       1.685   0.896  23.269  0.00  0.00    +0.159 C 
ATOM     27  C   UNL     1       1.022   0.931  23.757  0.00  0.00    +0.105 C 
ENDBRANCH  21  22
ENDBRANCH  20  21
ENDBRANCH  19  20
ENDBRANCH  16  17
ENDBRANCH  15  16
ENDBRANCH  14  15
TORSDOF 9
ENDMDL
MODEL 3
REMARK VINA RESULT:     -12.1      1.266      4.819
REMARK  Name = 
REMARK  9 active torsions:
REMARK  status: ('A' for Active; 'I' for Inactive)
REMARK    1  A    between atoms: C_5  and  N_6
REMARK    2  A    between atoms: N_6  and  C_7
REMARK    3  A    between atoms: C_7  and  C_8
REMARK    4  A    between atoms: C_14  and  C_15
REMARK    5  A    between atoms: C_15  and  C_16
REMARK    6  A    between atoms: C_16  and  C_17
REMARK    7  A    between atoms: N_19  and  C_20
REMARK    8  A    between atoms: C_20  and  C_21
REMARK    9  A    between atoms: C_21  and  N_22
REMARK                            x       y       z     vdW  Elec       q    Type
REMARK                         _______ _______ _______ _____ _____    ______ ____
ROOT
ATOM      1  C   UNL     1      -2.107   5.060  25.263  0.00  0.00    +0.000 C 
ATOM      2  C   UNL     1      -1.796   4.295  25.246  0.00  0.00    +0.001 C 
ATOM      3  C   UNL     1      -1.072   4.681  25.342  0.00  0.00    +0.000 C 
ATOM      4  C   UNL     1      -2.584   4.071  25.154  0.00  0.00    +0.017 C 
ATOM      5  C   UNL     1      -2.609   3.248  25.100  0.00  0.00    +0.073 C 
ATOM     14  C   UNL     1      -1.837   2.964  25.159  0.00  0.00    +0.015 C 
ATOM     28  C   UNL     1      -1.525   2.200  25.142  0.00  0.00    +0.004 C 
ATOM     29  C   UNL     1      -0.712   2.085  25.215  0.00  0.00    +0.030 C 
ATOM     30  C   UNL     1      -0.209   2.732  25.305  0.00  0.00    +0.127 C 
ATOM     31  C   UNL     1       0.343   2.120  25.322  0.00  0.00    +0.033 C 
ATOM     32  O   UNL     1       0.485   3.168  25.401  0.00  0.00    -0.226 OA
ATOM     33  C   UNL     1      -0.520   3.497  25.322  0.00  0.00    +0.030 C 
ATOM     34  C   UNL     1      -1.333   3.612  25.249  0.00  0.00    +0.004 C 
ENDROOT
BRANCH   5   6
ATOM      6  N   UNL     1      -3.287   2.788  25.004  0.00  0.00    -0.219 NA
BRANCH   6   7
ATOM      7  C   UNL     1      -4.000   3.145  24.787  0.00  0.00    +0.089 C 
BRANCH   7   8
ATOM      8  C   UNL     1      -4.717   2.814  25.027  0.00  0.00    +0.017 C 
ATOM      9  C   UNL     1      -4.989   2.931  25.796  0.00  0.00    +0.001 C 
ATOM     10  C   UNL     1      -5.706   2.600  26.036  0.00  0.00    +0.000 C 
ATOM     11  C   UNL     1      -6.150   2.151  25.505  0.00  0.00    +0.000 C 
ATOM     12  C   UNL     1      -5.878   2.034  24.734  0.00  0.00    +0.000 C 
ATOM     13  C   UNL     1      -5.161   2.365  24.495  0.00  0.00    +0.001 C 
ENDBRANCH   7   8
ENDBRANCH   6   7
ENDBRANCH   5   6
BRANCH  14  15
ATOM     15  C   UNL     1      -2.404   2.373  25.066  0.00  0.00    +0.011 C 
BRANCH  15  16
ATOM     16  C   UNL     1      -2.246   1.606  25.322  0.00  0.00    +0.087 C 
BRANCH  16  17
ATOM     17  C   UNL     1      -2.504   0.960  24.878  0.00  0.00    +0.241 C 
ATOM     18  O   UNL     1      -2.591   0.759  24.082  0.00  0.00    -0.273 OA
ATOM     19  N   UNL     1      -2.768   0.277  25.257  0.00  0.00    -0.204 NA
BRANCH  19  20
ATOM     20  C   UNL     1      -3.026  -0.369  24.813  0.00  0.00    +0.132 C 
BRANCH  20  21
ATOM     21  C   UNL     1      -3.513  -0.939  25.157  0.00  0.00    +0.096 C 
BRANCH  21  22
ATOM     22  N   UNL     1      -3.649  -1.654  24.770  0.00  0.00    -0.267 NA
ATOM     23  C   UNL     1      -3.247  -2.334  25.005  0.00  0.00    +0.105 C 
ATOM     24  C   UNL     1      -3.383  -3.050  24.618  0.00  0.00    +0.159 C 
ATOM     25  O   UNL     1      -3.922  -3.085  23.995  0.00  0.00    -0.351 OA
ATOM     26  C   UNL     1      -4.325  -2.404  23.759  0.00  0.00    +0.159 C 
ATOM     27  C   UNL     1      -4.188  -1.689  24.147  0.00  0.00    +0.105 C 
ENDBRANCH  21  22
ENDBRANCH  20  21
ENDBRANCH  19  20
ENDBRANCH  16  17
ENDBRANCH  15  16
ENDBRANCH  14  15
TORSDOF 9
ENDMDL
MODEL 4
REMARK VINA RESULT:     -11.0      1.279      2.941
REMARK  Name = 
REMARK  9 active torsions:
REMARK  status: ('A' for Active; 'I' for Inactive)
REMARK    1  A    between atoms: C_5  and  N_6
REMARK    2  A    between atoms: N_6  and  C_7
REMARK    3  A    between atoms: C_7  and  C_8
REMARK    4  A    between atoms: C_14  and  C_15
REMARK    5  A    between atoms: C_15  and  C_16
REMARK    6  A    between atoms: C_16  and  C_17
REMARK    7  A    between atoms: N_19  and  C_20
REMARK    8  A    between atoms: C_20  and  C_21
REMARK    9  A    between atoms: C_21  and  N_22
REMARK                            x       y       z     vdW  Elec       q    Type
REMARK                         _______ _______ _______ _____ _____    ______ ____
ROOT
ATOM      1  C   UNL     1      -1.057  -2.512  24.907  0.00  0.00    +0.000 C 
ATOM      2  C   UNL     1      -1.779  -2.158  24.723  0.00  0.00    +0.001 C 
ATOM      3  C   UNL     1      -2.022  -2.932  24.572  0.00  0.00    +0.000 C 
ATOM      4  C   UNL     1      -1.385  -1.458  24.912  0.00  0.00    +0.017 C 
ATOM      5  C   UNL     1      -1.914  -0.833  24.814  0.00  0.00    +0.073 C 
ATOM     14  C   UNL     1      -2.635  -1.146  24.564  0.00  0.00    +0.015 C 
ATOM     28  C   UNL     1      -3.358  -0.792  24.380  0.00  0.00    +0.004 C 
ATOM     29  C   UNL     1      -3.995  -1.257  24.140  0.00  0.00    +0.030 C 
ATOM     30  C   UNL     1      -3.912  -2.075  24.084  0.00  0.00    +0.127 C 
ATOM     31  C   UNL     1      -4.700  -1.996  23.853  0.00  0.00    +0.033 C 
ATOM     32  O   UNL     1      -4.101  -2.867  23.948  0.00  0.00    -0.226 OA
ATOM     33  C   UNL     1      -3.190  -2.430  24.268  0.00  0.00    +0.030 C 
ATOM     34  C   UNL     1      -2.552  -1.966  24.508  0.00  0.00    +0.004 C 
ENDROOT
BRANCH   5   6
ATOM      6  N   UNL     1      -1.751  -0.035  24.942  0.00  0.00    -0.219 NA
BRANCH   6   7
ATOM      7  C   UNL     1      -1.105   0.185  25.406  0.00  0.00    +0.089 C 
BRANCH   7   8
ATOM      8  C   UNL     1      -0.696   0.882  25.241  0.00  0.00    +0.017 C 
ATOM      9  C   UNL     1      -0.348   0.991  24.501  0.00  0.00    +0.001 C 
ATOM     10  C   UNL     1       0.061   1.689  24.336  0.00  0.00    +0.000 C 
ATOM     11  C   UNL     1       0.121   2.277  24.911  0.00  0.00    +0.000 C 
ATOM     12  C   UNL     1      -0.227   2.168  25.652  0.00  0.00    +0.000 C 
ATOM     13  C   UNL     1      -0.636   1.471  25.817  0.00  0.00    +0.001 C 
ENDBRANCH   7   8
ENDBRANCH   6   7
ENDBRANCH   5   6
BRANCH  14  15
ATOM     15  C   UNL     1      -2.636  -0.325  24.645  0.00  0.00    +0.011 C 
BRANCH  15  16
ATOM     16  C   UNL     1      -3.347   0.076  24.761  0.00  0.00    +0.087 C 
BRANCH  16  17
ATOM     17  C   UNL     1      -3.456   0.826  24.435  0.00  0.00    +0.241 C 
ATOM     18  O   UNL     1      -3.339   1.202  23.709  0.00  0.00    -0.273 OA
ATOM     19  N   UNL     1      -3.765   1.436  24.895  0.00  0.00    -0.204 NA
BRANCH  19  20
ATOM     20  C   UNL     1      -3.874   2.186  24.569  0.00  0.00    +0.132 C 
BRANCH  20  21
ATOM     21  C   UNL     1      -4.177   2.798  25.031  0.00  0.00    +0.096 C 
BRANCH  21  22
ATOM     22  N   UNL     1      -3.700   3.440  25.231  0.00  0.00    -0.267 NA
ATOM     23  C   UNL     1      -3.337   3.885  24.639  0.00  0.00    +0.105 C 
ATOM     24  C   UNL     1      -2.859   4.527  24.838  0.00  0.00    +0.159 C 
ATOM     25  O   UNL     1      -2.745   4.725  25.631  0.00  0.00    -0.351 OA
ATOM     26  C   UNL     1      -3.108   4.281  26.224  0.00  0.00    +0.159 C 
ATOM     27  C   UNL     1      -3.585   3.638  26.023  0.00  0.00    +0.105 C 
ENDBRANCH  21  22
ENDBRANCH  20  21
ENDBRANCH  19  20
ENDBRANCH  16  17
ENDBRANCH  15  16
ENDBRANCH  14  15
TORSDOF 9
ENDMDL
MODEL 5
REMARK VINA RESULT:     -11.0      1.367      5.590
REMARK  Name = 
REMARK  9 active torsions:
REMARK  status: ('A' for Active; 'I' for Inactive)
REMARK    1  A    between atoms: C_5  and  N_6
REMARK    2  A    between atoms: N_6  and  C_7
REMARK    3  A    between atoms: C_7  and  C_8
REMARK    4  A    between atoms: C_14  and  C_15
REMARK    5  A    between atoms: C_15  and  C_16
REMARK    6  A    between atoms: C_16  and  C_17
REMARK    7  A    between atoms: N_19  and  C_20
REMARK    8  A    between atoms: C_20  and  C_21
REMARK    9  A    between atoms: C_21  and  N_22
REMARK                            x       y       z     vdW  Elec       q    Type
REMARK                         _______ _______ _______ _____ _____    ______ ____
ROOT
ATOM      1  C   UNL     1      -0.913   4.225  25.348  0.00  0.00    +0.000 C 
ATOM      2  C   UNL     1      -1.664   3.888  25.282  0.00  0.00    +0.001 C 
ATOM      3  C   UNL     1      -1.927   4.657  25.429  0.00  0.00    +0.000 C 
ATOM      4  C   UNL     1      -1.244   3.190  25.149  0.00  0.00    +0.017 C 
ATOM      5  C   UNL     1      -1.790   2.583  25.032  0.00  0.00    +0.073 C 
ATOM     14  C   UNL     1      -2.548   2.906  25.092  0.00  0.00    +0.015 C 
ATOM     28  C   UNL     1      -3.298   2.570  25.027  0.00  0.00    +0.004 C 
ATOM     29  C   UNL     1      -3.970   3.040  25.115  0.00  0.00    +0.030 C 
ATOM     30  C   UNL     1      -3.892   3.846  25.270  0.00  0.00    +0.127 C 
ATOM     31  C   UNL     1      -4.714   3.783  25.256  0.00  0.00    +0.033 C 
ATOM     32  O   UNL     1      -4.098   4.631  25.419  0.00  0.00    -0.226 OA
ATOM     33  C   UNL     1      -3.141   4.183  25.335  0.00  0.00    +0.030 C 
ATOM     34  C   UNL     1      -2.469   3.713  25.247  0.00  0.00    +0.004 C 
ENDROOT
BRANCH   5   6
ATOM      6  N   UNL     1      -1.612   1.792  24.881  0.00  0.00    -0.219 NA
BRANCH   6   7
ATOM      7  C   UNL     1      -0.864   1.496  25.066  0.00  0.00    +0.089 C 
BRANCH   7   8
ATOM      8  C   UNL     1      -0.563   0.847  24.655  0.00  0.00    +0.017 C 
ATOM      9  C   UNL     1      -0.282   0.940  23.885  0.00  0.00    +0.001 C 
ATOM     10  C   UNL     1       0.018   0.291  23.474  0.00  0.00    +0.000 C 
ATOM     11  C   UNL     1       0.037  -0.452  23.833  0.00  0.00    +0.000 C 
ATOM     12  C   UNL     1      -0.245  -0.545  24.603  0.00  0.00    +0.000 C 
ATOM     13  C   UNL     1      -0.545   0.104  25.014  0.00  0.00    +0.001 C 
ENDBRANCH   7   8
ENDBRANCH   6   7
ENDBRANCH   5   6
BRANCH  14  15
ATOM     15  C   UNL     1      -2.540   2.095  24.937  0.00  0.00    +0.011 C 
BRANCH  15  16
ATOM     16  C   UNL     1      -3.201   1.636  25.113  0.00  0.00    +0.087 C 
BRANCH  16  17
ATOM     17  C   UNL     1      -3.420   1.018  24.611  0.00  0.00    +0.241 C 
ATOM     18  O   UNL     1      -3.447   0.867  23.800  0.00  0.00    -0.273 OA
ATOM     19  N   UNL     1      -3.705   0.312  24.927  0.00  0.00    -0.204 NA
BRANCH  19  20
ATOM     20  C   UNL     1      -3.925  -0.306  24.425  0.00  0.00    +0.132 C 
BRANCH  20  21
ATOM     21  C   UNL     1      -4.315  -0.965  24.729  0.00  0.00    +0.096 C 
BRANCH  21  22
ATOM     22  N   UNL     1      -4.055  -1.724  24.537  0.00  0.00    -0.267 NA
ATOM     23  C   UNL     1      -4.300  -2.081  23.836  0.00  0.00    +0.105 C 
ATOM     24  C   UNL     1      -4.040  -2.840  23.645  0.00  0.00    +0.159 C 
ATOM     25  O   UNL     1      -3.533  -3.243  24.156  0.00  0.00    -0.351 OA
ATOM     26  C   UNL     1      -3.287  -2.886  24.859  0.00  0.00    +0.159 C 
ATOM     27  C   UNL     1      -3.548  -2.127  25.049  0.00  0.00    +0.105 C 
ENDBRANCH  21  22
ENDBRANCH  20  21
ENDBRANCH  19  20
ENDBRANCH  16  17
ENDBRANCH  15  16
ENDBRANCH  14  15
TORSDOF 9
ENDMDL
MODEL 6
REMARK VINA RESULT:     -10.7      2.016      3.990
REMARK  Name = 
REMARK  9 active torsions:
REMARK  status: ('A' for Active; 'I' for Inactive)
REMARK    1  A    between atoms: C_5  and  N_6
REMARK    2  A    between atoms: N_6  and  C_7
REMARK    3  A    between atoms: C_7  and  C_8
REMARK    4  A    between atoms: C_14  and  C_15
REMARK    5  A    between atoms: C_15  and  C_16
REMARK    6  A    between atoms: C_16  and  C_17
REMARK    7  A    between atoms: N_19  and  C_20
REMARK    8  A    between atoms: C_20  and  C_21
REMARK    9  A    between atoms: C_21  and  N_22
REMARK                            x       y       z     vdW  Elec       q    Type
REMARK                         _______ _______ _______ _____ _____    ______ ____
ROOT
ATOM      1  C   UNL     1      -5.204   2.608  25.434  0.00  0.00    +0.000 C 
ATOM      2  C   UNL     1      -4.747   1.991  25.129  0.00  0.00    +0.001 C 
ATOM      3  C   UNL     1      -5.470   1.595  25.084  0.00  0.00    +0.000 C 
ATOM      4  C   UNL     1      -4.121   2.517  25.239  0.00  0.00    +0.017 C 
ATOM      5  C   UNL     1      -3.429   2.142  24.992  0.00  0.00    +0.073 C 
ATOM     14  C   UNL     1      -3.627   1.385  24.730  0.00  0.00    +0.015 C 
ATOM     28  C   UNL     1      -3.172   0.768  24.425  0.00  0.00    +0.004 C 
ATOM     29  C   UNL     1      -3.531   0.059  24.205  0.00  0.00    +0.030 C 
ATOM     30  C   UNL     1      -4.346  -0.034  24.290  0.00  0.00    +0.127 C 
ATOM     31  C   UNL     1      -4.150  -0.771  23.977  0.00  0.00    +0.033 C 
ATOM     32  O   UNL     1      -5.094  -0.382  24.267  0.00  0.00    -0.226 OA
ATOM     33  C   UNL     1      -4.803   0.583  24.595  0.00  0.00    +0.030 C 
ATOM     34  C   UNL     1      -4.443   1.292  24.815  0.00  0.00    +0.004 C 
ENDROOT
BRANCH   5   6
ATOM      6  N   UNL     1      -2.670   2.466  25.004  0.00  0.00    -0.219 NA
BRANCH   6   7
ATOM      7  C   UNL     1      -2.473   3.030  25.573  0.00  0.00    +0.089 C 
BRANCH   7   8
ATOM      8  C   UNL     1      -1.966   3.653  25.380  0.00  0.00    +0.017 C 
ATOM      9  C   UNL     1      -1.165   3.606  25.567  0.00  0.00    +0.001 C 
ATOM     10  C   UNL     1      -0.659   4.228  25.373  0.00  0.00    +0.000 C 
ATOM     11  C   UNL     1      -0.955   4.897  24.992  0.00  0.00    +0.000 C 
ATOM     12  C   UNL     1      -1.757   4.944  24.805  0.00  0.00    +0.000 C 
ATOM     13  C   UNL     1      -2.264   4.322  24.999  0.00  0.00    +0.001 C 
ENDBRANCH   7   8
ENDBRANCH   6   7
ENDBRANCH   5   6
BRANCH  14  15
ATOM     15  C   UNL     1      -2.822   1.557  24.677  0.00  0.00    +0.011 C 
BRANCH  15  16
ATOM     16  C   UNL     1      -2.272   0.945  24.633  0.00  0.00    +0.087 C 
BRANCH  16  17
ATOM     17  C   UNL     1      -1.621   1.010  24.130  0.00  0.00    +0.241 C 
ATOM     18  O   UNL     1      -1.422   1.403  23.432  0.00  0.00    -0.273 OA
ATOM     19  N   UNL     1      -0.927   0.596  24.297  0.00  0.00    -0.204 NA
BRANCH  19  20
ATOM     20  C   UNL     1      -0.276   0.661  23.794  0.00  0.00    +0.132 C 
BRANCH  20  21
ATOM     21  C   UNL     1       0.414   0.242  23.957  0.00  0.00    +0.096 C 
BRANCH  21  22
ATOM     22  N   UNL     1       1.019   0.207  23.395  0.00  0.00    -0.267 NA
ATOM     23  C   UNL     1       0.940  -0.279  22.734  0.00  0.00    +0.105 C 
ATOM     24  C   UNL     1       1.544  -0.314  22.173  0.00  0.00    +0.159 C 
ATOM     25  O   UNL     1       2.227   0.137  22.274  0.00  0.00    -0.351 OA
ATOM     26  C   UNL     1       2.306   0.623  22.937  0.00  0.00    +0.159 C 
ATOM     27  C   UNL     1       1.702   0.658  23.497  0.00  0.00    +0.105 C 
ENDBRANCH  21  22
ENDBRANCH  20  21
ENDBRANCH  19  20
ENDBRANCH  16  17
ENDBRANCH  15  16
ENDBRANCH  14  15
TORSDOF 9
ENDMDL
