MODEL 1
REMARK VINA RESULT:     -12.5      0.000      0.000
REMARK  Name = 
REMARK  5 active torsions:
REMARK  status: ('A' for Active; 'I' for Inactive)
REMARK    1  A    between atoms: C_2  and  O_5
REMARK    2  A    between atoms: O_5  and  C_6
REMARK    3  A    between atoms: C_9  and  C_12
REMARK    4  A    between atoms: C_15  and  C_17
REMARK    5  A    between atoms: C_23  and  C_25
REMARK                            x       y       z     vdW  Elec       q    Type
REMARK                         _______ _______ _______ _____ _____    ______ ____
ROOT
ATOM     12  C   UNL     1      -4.185   0.588  24.937  0.00  0.00    +0.102 A 
ATOM     13  C   UNL     1      -4.929   0.943  24.941  0.00  0.00    +0.119 A 
ATOM     14  N   UNL     1      -4.821   1.762  24.941  0.00  0.00    -0.226 NA
ATOM     15  C   UNL     1      -4.009   1.910  24.936  0.00  0.00    +0.160 A 
ATOM     16  N   UNL     1      -3.616   1.186  24.934  0.00  0.00    -0.227 NA
ENDROOT
BRANCH  15  17
ATOM     17  C   UNL     1      -3.653   2.655  24.935  0.00  0.00    +0.164 C 
ATOM     18  C   UNL     1      -2.848   2.727  24.769  0.00  0.00    +0.170 C 
ATOM     19  O   UNL     1      -2.492   3.471  24.768  0.00  0.00    -0.350 OA
ATOM     20  C   UNL     1      -2.942   4.144  24.931  0.00  0.00    +0.164 C 
ATOM     21  C   UNL     1      -3.746   4.071  25.096  0.00  0.00    +0.126 C 
ATOM     22  N   UNL     1      -4.102   3.327  25.098  0.00  0.00    -0.270 N 
ATOM     23  C   UNL     1      -4.907   3.255  25.263  0.00  0.00    +0.226 C 
ATOM     24  O   UNL     1      -5.357   3.928  25.427  0.00  0.00    -0.275 OA
BRANCH  23  25
ATOM     25  C   UNL     1      -5.263   2.510  25.265  0.00  0.00    +0.077 C 
ATOM     26  C   UNL     1      -5.503   1.835  25.673  0.00  0.00    +0.010 C 
ATOM     27  C   UNL     1      -5.638   1.897  24.861  0.00  0.00    +0.010 C 
ENDBRANCH  23  25
ENDBRANCH  15  17
BRANCH  12   9
ATOM      6  C   UNL     1      -3.737  -1.846  24.932  0.00  0.00    +0.147 A 
ATOM      7  C   UNL     1      -3.570  -1.398  25.605  0.00  0.00    +0.037 A 
ATOM      8  C   UNL     1      -3.720  -0.586  25.606  0.00  0.00    +0.005 A 
ATOM      9  C   UNL     1      -4.035  -0.224  24.936  0.00  0.00    +0.019 A 
ATOM     10  C   UNL     1      -4.202  -0.672  24.264  0.00  0.00    +0.005 A 
ATOM     11  C   UNL     1      -4.053  -1.484  24.262  0.00  0.00    +0.037 A 
BRANCH   6   5
ATOM      5  O   UNL     1      -3.588  -2.658  24.931  0.00  0.00    -0.404 OA
BRANCH   5   2
ATOM      1  F   UNL     1      -2.423  -3.281  23.941  0.00  0.00    -0.133 F 
ATOM      2  C   UNL     1      -3.006  -2.969  24.436  0.00  0.00    +0.575 C 
ATOM      3  F   UNL     1      -2.425  -2.747  24.979  0.00  0.00    -0.133 F 
ATOM      4  F   UNL     1      -3.586  -3.192  23.894  0.00  0.00    -0.133 F 
ENDBRANCH   5   2
ENDBRANCH   6   5
ENDBRANCH  12   9
TORSDOF 5
ENDMDL
MODEL 2
REMARK VINA RESULT:     -11.6      2.826      4.933
REMARK  Name = 
REMARK  5 active torsions:
REMARK  status: ('A' for Active; 'I' for Inactive)
REMARK    1  A    between atoms: C_2  and  O_5
REMARK    2  A    between atoms: O_5  and  C_6
REMARK    3  A    between atoms: C_9  and  C_12
REMARK    4  A    between atoms: C_15  and  C_17
REMARK    5  A    between atoms: C_23  and  C_25
REMARK                            x       y       z     vdW  Elec       q    Type
REMARK                         _______ _______ _______ _____ _____    ______ ____
ROOT
ATOM     12  C   UNL     1      -3.847   0.258  24.751  0.00  0.00    +0.102 A 
ATOM     13  C   UNL     1      -4.149  -0.475  24.521  0.00  0.00    +0.119 A 
ATOM     14  N   UNL     1      -3.536  -1.027  24.561  0.00  0.00    -0.226 NA
ATOM     15  C   UNL     1      -2.857  -0.634  24.816  0.00  0.00    +0.160 A 
ATOM     16  N   UNL     1      -3.049   0.159  24.933  0.00  0.00    -0.227 NA
ENDROOT
BRANCH  15  17
ATOM     17  C   UNL     1      -2.114  -0.976  24.933  0.00  0.00    +0.164 C 
ATOM     18  C   UNL     1      -1.499  -0.526  25.250  0.00  0.00    +0.170 C 
ATOM     19  O   UNL     1      -0.757  -0.868  25.367  0.00  0.00    -0.350 OA
ATOM     20  C   UNL     1      -0.631  -1.659  25.167  0.00  0.00    +0.164 C 
ATOM     21  C   UNL     1      -1.246  -2.107  24.850  0.00  0.00    +0.126 C 
ATOM     22  N   UNL     1      -1.988  -1.765  24.733  0.00  0.00    -0.270 N 
ATOM     23  C   UNL     1      -2.603  -2.214  24.416  0.00  0.00    +0.226 C 
ATOM     24  O   UNL     1      -2.477  -3.004  24.215  0.00  0.00    -0.275 OA
BRANCH  23  25
ATOM     25  C   UNL     1      -3.346  -1.872  24.299  0.00  0.00    +0.077 C 
ATOM     26  C   UNL     1      -3.880  -1.475  23.812  0.00  0.00    +0.010 C 
ATOM     27  C   UNL     1      -4.095  -1.677  24.582  0.00  0.00    +0.010 C 
ENDBRANCH  23  25
ENDBRANCH  15  17
BRANCH  12   9
ATOM      6  C   UNL     1      -5.118   2.378  24.874  0.00  0.00    +0.147 A 
ATOM      7  C   UNL     1      -4.486   2.306  24.347  0.00  0.00    +0.037 A 
ATOM      8  C   UNL     1      -4.063   1.598  24.306  0.00  0.00    +0.005 A 
ATOM      9  C   UNL     1      -4.271   0.965  24.792  0.00  0.00    +0.019 A 
ATOM     10  C   UNL     1      -4.902   1.037  25.318  0.00  0.00    +0.005 A 
ATOM     11  C   UNL     1      -5.325   1.745  25.358  0.00  0.00    +0.037 A 
BRANCH   6   5
ATOM      5  O   UNL     1      -5.542   3.085  24.914  0.00  0.00    -0.404 OA
BRANCH   5   2
ATOM      1  F   UNL     1      -5.054   4.281  25.942  0.00  0.00    -0.133 F 
ATOM      2  C   UNL     1      -5.298   3.683  25.427  0.00  0.00    +0.575 C 
ATOM      3  F   UNL     1      -5.785   3.375  26.018  0.00  0.00    -0.133 F 
ATOM      4  F   UNL     1      -4.810   3.991  24.838  0.00  0.00    -0.133 F 
ENDBRANCH   5   2
ENDBRANCH   6   5
ENDBRANCH  12   9
TORSDOF 5
ENDMDL
MODEL 3
REMARK VINA RESULT:     -11.3      1.574      2.538
REMARK  Name = 
REMARK  5 active torsions:
REMARK  status: ('A' for Active; 'I' for Inactive)
REMARK    1  A    between atoms: C_2  and  O_5
REMARK    2  A    between atoms: O_5  and  C_6
REMARK    3  A    between atoms: C_9  and  C_12
REMARK    4  A    between atoms: C_15  and  C_17
REMARK    5  A    between atoms: C_23  and  C_25
REMARK                            x       y       z     vdW  Elec       q    Type
REMARK                         _______ _______ _______ _____ _____    ______ ____
ROOT
ATOM     12  C   UNL     1      -2.548   0.814  24.849  0.00  0.00    +0.102 A 
ATOM     13  C   UNL     1      -1.723   0.837  24.849  0.00  0.00    +0.119 A 
ATOM     14  N   UNL     1      -1.490   1.620  24.967  0.00  0.00    -0.226 NA
ATOM     15  C   UNL     1      -2.172   2.080  25.039  0.00  0.00    +0.160 A 
ATOM     16  N   UNL     1      -2.825   1.582  24.967  0.00  0.00    -0.227 NA
ENDROOT
BRANCH  15  17
ATOM     17  C   UNL     1      -2.195   2.896  25.163  0.00  0.00    +0.164 C 
ATOM     18  C   UNL     1      -2.911   3.301  25.104  0.00  0.00    +0.170 C 
ATOM     19  O   UNL     1      -2.934   4.117  25.227  0.00  0.00    -0.350 OA
ATOM     20  C   UNL     1      -2.241   4.527  25.411  0.00  0.00    +0.164 C 
ATOM     21  C   UNL     1      -1.526   4.120  25.470  0.00  0.00    +0.126 C 
ATOM     22  N   UNL     1      -1.503   3.305  25.346  0.00  0.00    -0.270 N 
ATOM     23  C   UNL     1      -0.788   2.899  25.406  0.00  0.00    +0.226 C 
ATOM     24  O   UNL     1      -0.095   3.308  25.589  0.00  0.00    -0.275 OA
BRANCH  23  25
ATOM     25  C   UNL     1      -0.764   2.083  25.282  0.00  0.00    +0.077 C 
ATOM     26  C   UNL     1      -0.801   1.314  25.579  0.00  0.00    +0.010 C 
ATOM     27  C   UNL     1      -0.688   1.440  24.772  0.00  0.00    +0.010 C 
ENDBRANCH  23  25
ENDBRANCH  15  17
BRANCH  12   9
ATOM      6  C   UNL     1      -3.945  -1.207  24.547  0.00  0.00    +0.147 A 
ATOM      7  C   UNL     1      -3.630  -1.030  25.289  0.00  0.00    +0.037 A 
ATOM      8  C   UNL     1      -3.164  -0.356  25.390  0.00  0.00    +0.005 A 
ATOM      9  C   UNL     1      -3.014   0.140  24.748  0.00  0.00    +0.019 A 
ATOM     10  C   UNL     1      -3.328  -0.036  24.007  0.00  0.00    +0.005 A 
ATOM     11  C   UNL     1      -3.794  -0.710  23.906  0.00  0.00    +0.037 A 
BRANCH   6   5
ATOM      5  O   UNL     1      -4.411  -1.881  24.447  0.00  0.00    -0.404 OA
BRANCH   5   2
ATOM      1  F   UNL     1      -3.728  -3.284  23.910  0.00  0.00    -0.133 F 
ATOM      2  C   UNL     1      -4.070  -2.582  24.179  0.00  0.00    +0.575 C 
ATOM      3  F   UNL     1      -4.299  -2.399  23.407  0.00  0.00    -0.133 F 
ATOM      4  F   UNL     1      -3.840  -2.764  24.950  0.00  0.00    -0.133 F 
ENDBRANCH   5   2
ENDBRANCH   6   5
ENDBRANCH  12   9
TORSDOF 5
ENDMDL
MODEL 4
REMARK VINA RESULT:     -11.2      3.319      5.229
REMARK  Name = 
REMARK  5 active torsions:
REMARK  status: ('A' for Active; 'I' for Inactive)
REMARK    1  A    between atoms: C_2  and  O_5
REMARK    2  A    between atoms: O_5  and  C_6
REMARK    3  A    between atoms: C_9  and  C_12
REMARK    4  A    between atoms: C_15  and  C_17
REMARK    5  A    between atoms: C_23  and  C_25
REMARK                            x       y       z     vdW  Elec       q    Type
REMARK                         _______ _______ _______ _____ _____    ______ ____
ROOT
ATOM     12  C   UNL     1      -2.214   1.457  24.777  0.00  0.00    +0.102 A 
ATOM     13  C   UNL     1      -2.997   1.347  24.541  0.00  0.00    +0.119 A 
ATOM     14  N   UNL     1      -3.129   0.536  24.468  0.00  0.00    -0.226 NA
ATOM     15  C   UNL     1      -2.428   0.146  24.658  0.00  0.00    +0.160 A 
ATOM     16  N   UNL     1      -1.862   0.714  24.849  0.00  0.00    -0.227 NA
ENDROOT
BRANCH  15  17
ATOM     17  C   UNL     1      -2.313  -0.672  24.657  0.00  0.00    +0.164 C 
ATOM     18  C   UNL     1      -1.571  -0.984  24.842  0.00  0.00    +0.170 C 
ATOM     19  O   UNL     1      -1.456  -1.801  24.841  0.00  0.00    -0.350 OA
ATOM     20  C   UNL     1      -2.083  -2.306  24.655  0.00  0.00    +0.164 C 
ATOM     21  C   UNL     1      -2.823  -1.993  24.471  0.00  0.00    +0.126 C 
ATOM     22  N   UNL     1      -2.938  -1.176  24.472  0.00  0.00    -0.270 N 
ATOM     23  C   UNL     1      -3.679  -0.864  24.287  0.00  0.00    +0.226 C 
ATOM     24  O   UNL     1      -4.305  -1.368  24.101  0.00  0.00    -0.275 OA
BRANCH  23  25
ATOM     25  C   UNL     1      -3.794  -0.046  24.288  0.00  0.00    +0.077 C 
ATOM     26  C   UNL     1      -4.031   0.641  24.678  0.00  0.00    +0.010 C 
ATOM     27  C   UNL     1      -3.756   0.681  23.901  0.00  0.00    +0.010 C 
ENDBRANCH  23  25
ENDBRANCH  15  17
BRANCH  12   9
ATOM      6  C   UNL     1      -1.113   3.634  25.193  0.00  0.00    +0.147 A 
ATOM      7  C   UNL     1      -1.602   3.303  25.770  0.00  0.00    +0.037 A 
ATOM      8  C   UNL     1      -1.969   2.577  25.631  0.00  0.00    +0.005 A 
ATOM      9  C   UNL     1      -1.847   2.184  24.916  0.00  0.00    +0.019 A 
ATOM     10  C   UNL     1      -1.358   2.515  24.340  0.00  0.00    +0.005 A 
ATOM     11  C   UNL     1      -0.991   3.241  24.480  0.00  0.00    +0.037 A 
BRANCH   6   5
ATOM      5  O   UNL     1      -0.746   4.361  25.333  0.00  0.00    -0.404 OA
BRANCH   5   2
ATOM      1  F   UNL     1      -1.425   5.751  24.760  0.00  0.00    -0.133 F 
ATOM      2  C   UNL     1      -1.085   5.056  25.047  0.00  0.00    +0.575 C 
ATOM      3  F   UNL     1      -0.552   5.057  24.417  0.00  0.00    -0.133 F 
ATOM      4  F   UNL     1      -1.618   5.054  25.676  0.00  0.00    -0.133 F 
ENDBRANCH   5   2
ENDBRANCH   6   5
ENDBRANCH  12   9
TORSDOF 5
ENDMDL
