REMARK  Name = 
REMARK  10 active torsions:
REMARK  status: ('A' for Active; 'I' for Inactive)
REMARK    1  A    between atoms: N_2  and  C_3
REMARK    2  A    between atoms: C_3  and  C_4
REMARK    3  A    between atoms: C_3  and  C_8
REMARK    4  A    between atoms: C_4  and  C_5
REMARK    5  A    between atoms: N_10  and  C_11
REMARK    6  A    between atoms: C_13  and  C_19
REMARK    7  A    between atoms: N_21  and  C_22
REMARK    8  A    between atoms: C_22  and  C_23
REMARK    9  A    between atoms: C_22  and  C_29
REMARK   10  A    between atoms: C_23  and  C_24
REMARK                            x       y       z     vdW  Elec       q    Type
REMARK                         _______ _______ _______ _____ _____    ______ ____
ROOT
ATOM     11  C   UNL     1       5.716  -4.125   0.000  0.00  0.00    +0.150 C 
ATOM     12  C   UNL     1       6.430  -3.712   0.000  0.00  0.00    -0.002 C 
ATOM     13  C   UNL     1       7.145  -4.125   0.000  0.00  0.00    +0.033 C 
ATOM     14  C   UNL     1       7.145  -4.950   0.000  0.00  0.00    +0.066 C 
ATOM     15  C   UNL     1       6.430  -5.362   0.000  0.00  0.00    +0.189 C 
ATOM     16  O   UNL     1       6.430  -6.188   0.000  0.00  0.00    -0.220 OA
ATOM     17  C   UNL     1       5.716  -4.950   0.000  0.00  0.00    +0.206 C 
ATOM     18  O   UNL     1       5.001  -5.362   0.000  0.00  0.00    -0.218 OA
ENDROOT
BRANCH  11  10
ATOM      8  C   UNL     1       4.287  -4.125   0.000  0.00  0.00    +0.258 C 
ATOM      9  O   UNL     1       4.287  -4.950   0.000  0.00  0.00    -0.272 OA
ATOM     10  N   UNL     1       5.001  -3.712   0.000  0.00  0.00    -0.199 NA
BRANCH   8   3
ATOM      3  C   UNL     1       3.572  -3.712   0.000  0.00  0.00    +0.150 C 
BRANCH   3   2
ATOM      1  C   UNL     1       4.287  -2.475   0.000  0.00  0.00    +0.108 C 
ATOM      2  N   UNL     1       3.572  -2.888   0.000  0.00  0.00    -0.209 NA
ENDBRANCH   3   2
BRANCH   3   4
ATOM      4  C   UNL     1       2.858  -4.125   0.000  0.00  0.00    +0.027 C 
BRANCH   4   5
ATOM      5  C   UNL     1       2.143  -3.712   0.000  0.00  0.00    +0.002 C 
ATOM      6  C   UNL     1       1.429  -4.125   0.000  0.00  0.00    +0.000 C 
ATOM      7  C   UNL     1       2.143  -2.888   0.000  0.00  0.00    +0.000 C 
ENDBRANCH   4   5
ENDBRANCH   3   4
ENDBRANCH   8   3
ENDBRANCH  11  10
BRANCH  13  19
ATOM     19  C   UNL     1       7.859  -3.712   0.000  0.00  0.00    +0.261 C 
ATOM     20  O   UNL     1       8.574  -4.125   0.000  0.00  0.00    -0.269 OA
ATOM     21  N   UNL     1       7.859  -2.888   0.000  0.00  0.00    -0.194 NA
BRANCH  21  22
ATOM     22  C   UNL     1       8.574  -2.475   0.000  0.00  0.00    +0.179 C 
BRANCH  22  29
ATOM     29  C   UNL     1       9.288  -2.888   0.000  0.00  0.00    +0.281 C 
ATOM     30  N   UNL     1      10.003  -2.475   0.000  0.00  0.00    -0.086 NA
ATOM     31  O   UNL     1       9.288  -3.712   0.000  0.00  0.00    -0.270 OA
ENDBRANCH  22  29
BRANCH  22  23
ATOM     23  C   UNL     1       8.574  -1.650   0.000  0.00  0.00    +0.064 C 
BRANCH  23  24
ATOM     24  C   UNL     1       9.288  -1.238   0.000  0.00  0.00    +0.010 A 
ATOM     25  C   UNL     1       9.374  -0.417   0.000  0.00  0.00    +0.003 A 
ATOM     26  C   UNL     1      10.181  -0.245   0.000  0.00  0.00    +0.007 A 
ATOM     27  C   UNL     1      10.594  -0.960   0.000  0.00  0.00    +0.035 A 
ATOM     28  S   UNL     1      10.042  -1.573   0.000  0.00  0.00    -0.091 S 
ENDBRANCH  23  24
ENDBRANCH  22  23
ENDBRANCH  21  22
ENDBRANCH  13  19
TORSDOF 10
