MODEL 1
REMARK VINA RESULT:      -7.4      0.000      0.000
REMARK  Name = 
REMARK  11 active torsions:
REMARK  status: ('A' for Active; 'I' for Inactive)
REMARK    1  A    between atoms: C_2  and  C_4
REMARK    2  A    between atoms: C_6  and  C_7
REMARK    3  A    between atoms: C_7  and  C_8
REMARK    4  A    between atoms: N_10  and  C_11
REMARK    5  A    between atoms: C_11  and  C_12
REMARK    6  A    between atoms: C_12  and  N_13
REMARK    7  A    between atoms: C_19  and  C_20
REMARK    8  A    between atoms: C_20  and  N_21
REMARK    9  A    between atoms: N_21  and  S_22
REMARK   10  A    between atoms: S_22  and  C_25
REMARK   11  A    between atoms: C_28  and  C_31
REMARK                            x       y       z     vdW  Elec       q    Type
REMARK                         _______ _______ _______ _____ _____    ______ ____
ROOT
ATOM      4  C   UNL     1      -0.376   1.352  24.285  0.00  0.00    +0.006 C 
ATOM      5  C   UNL     1       0.241   0.856  24.054  0.00  0.00    +0.005 C 
ATOM      6  C   UNL     1       0.084   0.073  23.847  0.00  0.00    +0.027 C 
ATOM     16  C   UNL     1      -0.689  -0.214  23.870  0.00  0.00    -0.048 C 
ATOM     17  C   UNL     1      -0.844  -0.997  23.663  0.00  0.00    +0.026 C 
ATOM     18  C   UNL     1      -1.305   0.283  24.101  0.00  0.00    -0.033 C 
ATOM     19  C   UNL     1      -1.149   1.065  24.308  0.00  0.00    +0.041 C 
ENDROOT
BRANCH   4   2
ATOM      1  C   UNL     1      -0.035   2.325  25.274  0.00  0.00    +0.000 C 
ATOM      2  C   UNL     1      -0.220   2.135  24.492  0.00  0.00    +0.000 C 
ATOM      3  C   UNL     1      -0.248   2.728  23.919  0.00  0.00    +0.000 C 
ENDBRANCH   4   2
BRANCH   6   7
ATOM      7  C   UNL     1       0.702  -0.424  23.616  0.00  0.00    +0.091 C 
BRANCH   7   8
ATOM      8  C   UNL     1       1.265  -0.157  23.074  0.00  0.00    +0.242 C 
ATOM      9  O   UNL     1       1.036   0.054  22.310  0.00  0.00    -0.273 OA
ATOM     10  N   UNL     1       2.057  -0.102  23.297  0.00  0.00    -0.204 NA
BRANCH  10  11
ATOM     11  C   UNL     1       2.620   0.164  22.756  0.00  0.00    +0.132 C 
BRANCH  11  12
ATOM     12  C   UNL     1       3.403  -0.089  22.817  0.00  0.00    +0.096 C 
BRANCH  12  13
ATOM     13  N   UNL     1       4.017   0.461  22.793  0.00  0.00    -0.269 NA
ATOM     14  C   UNL     1       4.737   0.292  23.161  0.00  0.00    +0.090 C 
ATOM     15  C   UNL     1       3.913   1.180  22.402  0.00  0.00    +0.090 C 
ENDBRANCH  12  13
ENDBRANCH  11  12
ENDBRANCH  10  11
ENDBRANCH   7   8
ENDBRANCH   6   7
BRANCH  19  20
ATOM     20  C   UNL     1      -1.766   1.562  24.540  0.00  0.00    +0.120 C 
BRANCH  20  21
ATOM     21  N   UNL     1      -2.549   1.319  24.445  0.00  0.00    -0.077 NA
BRANCH  21  22
ATOM     22  S   UNL     1      -3.165   1.817  24.671  0.00  0.00    +0.077 S 
ATOM     23  O   UNL     1      -3.100   1.548  25.448  0.00  0.00    -0.152 OA
ATOM     24  O   UNL     1      -3.232   2.087  23.894  0.00  0.00    -0.152 OA
BRANCH  22  25
ATOM     25  C   UNL     1      -3.783   2.317  24.897  0.00  0.00    +0.124 A 
ATOM     26  C   UNL     1      -4.558   2.034  24.913  0.00  0.00    +0.021 A 
ATOM     27  C   UNL     1      -5.174   2.533  25.138  0.00  0.00    +0.012 A 
ATOM     28  C   UNL     1      -5.017   3.315  25.348  0.00  0.00    +0.069 A 
ATOM     29  C   UNL     1      -4.242   3.598  25.332  0.00  0.00    +0.012 A 
ATOM     30  C   UNL     1      -3.624   3.099  25.106  0.00  0.00    +0.021 A 
BRANCH  28  31
ATOM     31  C   UNL     1      -5.633   3.814  25.573  0.00  0.00    +0.100 C 
ATOM     32  N   UNL     1      -6.251   4.314  25.799  0.00  0.00    -0.191 NA
ENDBRANCH  28  31
ENDBRANCH  22  25
ENDBRANCH  21  22
ENDBRANCH  20  21
ENDBRANCH  19  20
TORSDOF 11
ENDMDL
MODEL 2
REMARK VINA RESULT:      -6.9      1.559      6.438
REMARK  Name = 
REMARK  11 active torsions:
REMARK  status: ('A' for Active; 'I' for Inactive)
REMARK    1  A    between atoms: C_2  and  C_4
REMARK    2  A    between atoms: C_6  and  C_7
REMARK    3  A    between atoms: C_7  and  C_8
REMARK    4  A    between atoms: N_10  and  C_11
REMARK    5  A    between atoms: C_11  and  C_12
REMARK    6  A    between atoms: C_12  and  N_13
REMARK    7  A    between atoms: C_19  and  C_20
REMARK    8  A    between atoms: C_20  and  N_21
REMARK    9  A    between atoms: N_21  and  S_22
REMARK   10  A    between atoms: S_22  and  C_25
REMARK   11  A    between atoms: C_28  and  C_31
REMARK                            x       y       z     vdW  Elec       q    Type
REMARK                         _______ _______ _______ _____ _____    ______ ____
ROOT
ATOM      4  C   UNL     1      -2.592   1.133  23.857  0.00  0.00    +0.006 C 
ATOM      5  C   UNL     1      -3.355   1.060  24.162  0.00  0.00    +0.005 C 
ATOM      6  C   UNL     1      -3.527   0.459  24.700  0.00  0.00    +0.027 C 
ATOM     16  C   UNL     1      -2.937  -0.069  24.932  0.00  0.00    -0.048 C 
ATOM     17  C   UNL     1      -3.111  -0.670  25.470  0.00  0.00    +0.026 C 
ATOM     18  C   UNL     1      -2.175   0.004  24.627  0.00  0.00    -0.033 C 
ATOM     19  C   UNL     1      -2.002   0.605  24.090  0.00  0.00    +0.041 C 
ENDROOT
BRANCH   4   2
ATOM      1  C   UNL     1      -2.542   1.613  22.512  0.00  0.00    +0.000 C 
ATOM      2  C   UNL     1      -2.419   1.734  23.319  0.00  0.00    +0.000 C 
ATOM      3  C   UNL     1      -2.123   2.456  23.588  0.00  0.00    +0.000 C 
ENDBRANCH   4   2
BRANCH   6   7
ATOM      7  C   UNL     1      -4.291   0.385  25.005  0.00  0.00    +0.091 C 
BRANCH   7   8
ATOM      8  C   UNL     1      -4.831   1.003  24.918  0.00  0.00    +0.242 C 
ATOM      9  O   UNL     1      -5.330   1.026  24.261  0.00  0.00    -0.273 OA
ATOM     10  N   UNL     1      -4.872   1.598  25.488  0.00  0.00    -0.204 NA
BRANCH  10  11
ATOM     11  C   UNL     1      -5.412   2.216  25.400  0.00  0.00    +0.132 C 
BRANCH  11  12
ATOM     12  C   UNL     1      -5.479   2.792  25.987  0.00  0.00    +0.096 C 
BRANCH  12  13
ATOM     13  N   UNL     1      -5.466   3.591  25.784  0.00  0.00    -0.269 NA
ATOM     14  C   UNL     1      -6.172   3.984  25.613  0.00  0.00    +0.090 C 
ATOM     15  C   UNL     1      -4.749   3.998  25.751  0.00  0.00    +0.090 C 
ENDBRANCH  12  13
ENDBRANCH  11  12
ENDBRANCH  10  11
ENDBRANCH   7   8
ENDBRANCH   6   7
BRANCH  19  20
ATOM     20  C   UNL     1      -1.239   0.679  23.784  0.00  0.00    +0.120 C 
BRANCH  20  21
ATOM     21  N   UNL     1      -0.646   0.160  24.027  0.00  0.00    -0.077 NA
BRANCH  21  22
ATOM     22  S   UNL     1       0.116   0.233  23.721  0.00  0.00    +0.077 S 
ATOM     23  O   UNL     1      -0.040  -0.375  23.186  0.00  0.00    -0.152 OA
ATOM     24  O   UNL     1       0.274   0.841  24.257  0.00  0.00    -0.152 OA
BRANCH  22  25
ATOM     25  C   UNL     1       0.880   0.306  23.415  0.00  0.00    +0.124 A 
ATOM     26  C   UNL     1       1.155  -0.238  22.859  0.00  0.00    +0.021 A 
ATOM     27  C   UNL     1       1.917  -0.164  22.554  0.00  0.00    +0.012 A 
ATOM     28  C   UNL     1       2.405   0.452  22.803  0.00  0.00    +0.069 A 
ATOM     29  C   UNL     1       2.130   0.996  23.360  0.00  0.00    +0.012 A 
ATOM     30  C   UNL     1       1.366   0.923  23.666  0.00  0.00    +0.021 A 
BRANCH  28  31
ATOM     31  C   UNL     1       3.167   0.526  22.498  0.00  0.00    +0.100 C 
ATOM     32  N   UNL     1       3.930   0.599  22.192  0.00  0.00    -0.191 NA
ENDBRANCH  28  31
ENDBRANCH  22  25
ENDBRANCH  21  22
ENDBRANCH  20  21
ENDBRANCH  19  20
TORSDOF 11
ENDMDL
MODEL 3
REMARK VINA RESULT:      -6.3      2.691      4.384
REMARK  Name = 
REMARK  11 active torsions:
REMARK  status: ('A' for Active; 'I' for Inactive)
REMARK    1  A    between atoms: C_2  and  C_4
REMARK    2  A    between atoms: C_6  and  C_7
REMARK    3  A    between atoms: C_7  and  C_8
REMARK    4  A    between atoms: N_10  and  C_11
REMARK    5  A    between atoms: C_11  and  C_12
REMARK    6  A    between atoms: C_12  and  N_13
REMARK    7  A    between atoms: C_19  and  C_20
REMARK    8  A    between atoms: C_20  and  N_21
REMARK    9  A    between atoms: N_21  and  S_22
REMARK   10  A    between atoms: S_22  and  C_25
REMARK   11  A    between atoms: C_28  and  C_31
REMARK                            x       y       z     vdW  Elec       q    Type
REMARK                         _______ _______ _______ _____ _____    ______ ____
ROOT
ATOM      4  C   UNL     1      -0.545   0.006  24.401  0.00  0.00    +0.006 C 
ATOM      5  C   UNL     1      -0.658  -0.809  24.446  0.00  0.00    +0.005 C 
ATOM      6  C   UNL     1      -0.911  -1.152  25.152  0.00  0.00    +0.027 C 
ATOM     16  C   UNL     1      -1.051  -0.679  25.813  0.00  0.00    -0.048 C 
ATOM     17  C   UNL     1      -1.304  -1.023  26.520  0.00  0.00    +0.026 C 
ATOM     18  C   UNL     1      -0.937   0.136  25.768  0.00  0.00    -0.033 C 
ATOM     19  C   UNL     1      -0.684   0.479  25.063  0.00  0.00    +0.041 C 
ENDROOT
BRANCH   4   2
ATOM      1  C   UNL     1       0.515   0.423  23.538  0.00  0.00    +0.000 C 
ATOM      2  C   UNL     1      -0.291   0.350  23.694  0.00  0.00    +0.000 C 
ATOM      3  C   UNL     1      -0.844   0.619  23.145  0.00  0.00    +0.000 C 
ENDBRANCH   4   2
BRANCH   6   7
ATOM      7  C   UNL     1      -1.024  -1.969  25.197  0.00  0.00    +0.091 C 
BRANCH   7   8
ATOM      8  C   UNL     1      -1.549  -2.341  24.680  0.00  0.00    +0.242 C 
ATOM      9  O   UNL     1      -1.263  -2.739  24.016  0.00  0.00    -0.273 OA
ATOM     10  N   UNL     1      -2.360  -2.315  24.828  0.00  0.00    -0.204 NA
BRANCH  10  11
ATOM     11  C   UNL     1      -2.885  -2.687  24.311  0.00  0.00    +0.132 C 
BRANCH  11  12
ATOM     12  C   UNL     1      -3.692  -2.706  24.485  0.00  0.00    +0.096 C 
BRANCH  12  13
ATOM     13  N   UNL     1      -4.238  -2.414  23.940  0.00  0.00    -0.269 NA
ATOM     14  C   UNL     1      -4.404  -1.606  23.915  0.00  0.00    +0.090 C 
ATOM     15  C   UNL     1      -4.617  -2.930  23.420  0.00  0.00    +0.090 C 
ENDBRANCH  12  13
ENDBRANCH  11  12
ENDBRANCH  10  11
ENDBRANCH   7   8
ENDBRANCH   6   7
BRANCH  19  20
ATOM     20  C   UNL     1      -0.571   1.295  25.017  0.00  0.00    +0.120 C 
BRANCH  20  21
ATOM     21  N   UNL     1      -0.766   1.775  25.660  0.00  0.00    -0.077 NA
BRANCH  21  22
ATOM     22  S   UNL     1      -0.943   2.571  25.541  0.00  0.00    +0.077 S 
ATOM     23  O   UNL     1      -0.146   2.762  25.634  0.00  0.00    -0.152 OA
ATOM     24  O   UNL     1      -1.740   2.381  25.447  0.00  0.00    -0.152 OA
BRANCH  22  25
ATOM     25  C   UNL     1      -1.119   3.369  25.421  0.00  0.00    +0.124 A 
ATOM     26  C   UNL     1      -0.587   3.854  25.018  0.00  0.00    +0.021 A 
ATOM     27  C   UNL     1      -0.764   4.650  24.900  0.00  0.00    +0.012 A 
ATOM     28  C   UNL     1      -1.473   4.963  25.183  0.00  0.00    +0.069 A 
ATOM     29  C   UNL     1      -2.005   4.478  25.586  0.00  0.00    +0.012 A 
ATOM     30  C   UNL     1      -1.828   3.680  25.705  0.00  0.00    +0.021 A 
BRANCH  28  31
ATOM     31  C   UNL     1      -1.650   5.759  25.064  0.00  0.00    +0.100 C 
ATOM     32  N   UNL     1      -1.827   6.557  24.945  0.00  0.00    -0.191 NA
ENDBRANCH  28  31
ENDBRANCH  22  25
ENDBRANCH  21  22
ENDBRANCH  20  21
ENDBRANCH  19  20
TORSDOF 11
ENDMDL
