MODEL 1
REMARK VINA RESULT:      -9.9      0.000      0.000
REMARK  Name = 
REMARK  6 active torsions:
REMARK  status: ('A' for Active; 'I' for Inactive)
REMARK    1  A    between atoms: C_2  and  C_4
REMARK    2  A    between atoms: N_6  and  C_7
REMARK    3  A    between atoms: C_10  and  C_13
REMARK    4  A    between atoms: N_18  and  C_19
REMARK    5  A    between atoms: C_19  and  C_20
REMARK    6  A    between atoms: C_26  and  C_27
REMARK                            x       y       z     vdW  Elec       q    Type
REMARK                         _______ _______ _______ _____ _____    ______ ____
ROOT
ATOM     13  C   UNL     1      -4.570   1.436  24.957  0.00  0.00    +0.159 C 
ATOM     14  O   UNL     1      -5.314   1.656  25.236  0.00  0.00    -0.341 OA
ATOM     15  C   UNL     1      -5.507   2.456  25.311  0.00  0.00    +0.227 C 
ATOM     16  C   UNL     1      -4.954   3.033  25.107  0.00  0.00    +0.256 C 
ATOM     17  O   UNL     1      -5.147   3.833  25.182  0.00  0.00    -0.272 OA
ATOM     18  N   UNL     1      -4.210   2.813  24.828  0.00  0.00    -0.267 N 
ATOM     26  C   UNL     1      -4.018   2.014  24.753  0.00  0.00    +0.140 C 
ENDROOT
BRANCH  13  10
ATOM      7  C   UNL     1      -3.994  -0.960  24.733  0.00  0.00    +0.073 A 
ATOM      8  C   UNL     1      -4.328  -0.555  24.097  0.00  0.00    +0.016 A 
ATOM      9  C   UNL     1      -4.520   0.243  24.171  0.00  0.00    -0.001 A 
ATOM     10  C   UNL     1      -4.378   0.637  24.882  0.00  0.00    +0.006 A 
ATOM     11  C   UNL     1      -4.044   0.232  25.519  0.00  0.00    -0.001 A 
ATOM     12  C   UNL     1      -3.852  -0.567  25.444  0.00  0.00    +0.016 A 
BRANCH   7   6
ATOM      4  C   UNL     1      -3.019  -1.986  24.526  0.00  0.00    +0.245 C 
ATOM      5  O   UNL     1      -2.429  -1.412  24.469  0.00  0.00    -0.273 OA
ATOM      6  N   UNL     1      -3.802  -1.760  24.659  0.00  0.00    -0.179 NA
BRANCH   4   2
ATOM      1  C   UNL     1      -2.046  -3.009  24.316  0.00  0.00    +0.010 C 
ATOM      2  C   UNL     1      -2.828  -2.784  24.452  0.00  0.00    +0.079 C 
ATOM      3  C   UNL     1      -3.417  -3.358  24.514  0.00  0.00    +0.010 C 
ENDBRANCH   4   2
ENDBRANCH   7   6
ENDBRANCH  13  10
BRANCH  26  27
ATOM     27  C   UNL     1      -3.274   1.793  24.474  0.00  0.00    +0.205 C 
ATOM     28  O   UNL     1      -3.095   1.869  23.671  0.00  0.00    -0.218 OA
ENDBRANCH  26  27
BRANCH  18  19
ATOM     19  C   UNL     1      -3.658   3.391  24.623  0.00  0.00    +0.158 C 
BRANCH  19  20
ATOM     20  C   UNL     1      -3.221   3.769  25.212  0.00  0.00    +0.141 A 
ATOM     21  N   UNL     1      -3.317   3.672  26.026  0.00  0.00    -0.228 NA
ATOM     22  C   UNL     1      -2.766   4.154  26.407  0.00  0.00    +0.119 A 
ATOM     23  C   UNL     1      -2.329   4.548  25.829  0.00  0.00    +0.098 A 
ATOM     24  N   UNL     1      -2.610   4.310  25.090  0.00  0.00    -0.310 N 
ATOM     25  C   UNL     1      -2.330   4.569  24.358  0.00  0.00    +0.132 C 
ENDBRANCH  19  20
ENDBRANCH  18  19
TORSDOF 6
ENDMDL
MODEL 2
REMARK VINA RESULT:      -9.3      2.033      2.690
REMARK  Name = 
REMARK  6 active torsions:
REMARK  status: ('A' for Active; 'I' for Inactive)
REMARK    1  A    between atoms: C_2  and  C_4
REMARK    2  A    between atoms: N_6  and  C_7
REMARK    3  A    between atoms: C_10  and  C_13
REMARK    4  A    between atoms: N_18  and  C_19
REMARK    5  A    between atoms: C_19  and  C_20
REMARK    6  A    between atoms: C_26  and  C_27
REMARK                            x       y       z     vdW  Elec       q    Type
REMARK                         _______ _______ _______ _____ _____    ______ ____
ROOT
ATOM     13  C   UNL     1      -1.199   1.226  25.296  0.00  0.00    +0.159 C 
ATOM     14  O   UNL     1      -0.753   1.141  25.985  0.00  0.00    -0.341 OA
ATOM     15  C   UNL     1      -0.313   1.777  26.273  0.00  0.00    +0.227 C 
ATOM     16  C   UNL     1      -0.320   2.498  25.872  0.00  0.00    +0.256 C 
ATOM     17  O   UNL     1       0.120   3.134  26.160  0.00  0.00    -0.272 OA
ATOM     18  N   UNL     1      -0.765   2.583  25.183  0.00  0.00    -0.267 N 
ATOM     26  C   UNL     1      -1.204   1.947  24.895  0.00  0.00    +0.140 C 
ENDROOT
BRANCH  13  10
ATOM      7  C   UNL     1      -2.516  -0.683  24.433  0.00  0.00    +0.073 A 
ATOM      8  C   UNL     1      -2.900  -0.037  24.775  0.00  0.00    +0.016 A 
ATOM      9  C   UNL     1      -2.461   0.598  25.062  0.00  0.00    -0.001 A 
ATOM     10  C   UNL     1      -1.638   0.590  25.008  0.00  0.00    +0.006 A 
ATOM     11  C   UNL     1      -1.254  -0.055  24.666  0.00  0.00    -0.001 A 
ATOM     12  C   UNL     1      -1.693  -0.692  24.378  0.00  0.00    +0.016 A 
BRANCH   7   6
ATOM      4  C   UNL     1      -3.277  -1.870  24.669  0.00  0.00    +0.245 C 
ATOM      5  O   UNL     1      -3.158  -1.783  25.481  0.00  0.00    -0.273 OA
ATOM      6  N   UNL     1      -2.956  -1.319  24.145  0.00  0.00    -0.179 NA
BRANCH   4   2
ATOM      1  C   UNL     1      -3.523  -3.275  24.607  0.00  0.00    +0.010 C 
ATOM      2  C   UNL     1      -3.716  -2.506  24.381  0.00  0.00    +0.079 C 
ATOM      3  C   UNL     1      -4.348  -2.373  23.868  0.00  0.00    +0.010 C 
ENDBRANCH   4   2
ENDBRANCH   7   6
ENDBRANCH  13  10
BRANCH  26  27
ATOM     27  C   UNL     1      -1.650   2.032  24.206  0.00  0.00    +0.205 C 
ATOM     28  O   UNL     1      -1.273   2.081  23.473  0.00  0.00    -0.218 OA
ENDBRANCH  26  27
BRANCH  18  19
ATOM     19  C   UNL     1      -0.771   3.304  24.782  0.00  0.00    +0.158 C 
BRANCH  19  20
ATOM     20  C   UNL     1      -1.229   3.929  25.065  0.00  0.00    +0.141 A 
ATOM     21  N   UNL     1      -1.888   3.863  25.558  0.00  0.00    -0.228 NA
ATOM     22  C   UNL     1      -2.176   4.623  25.702  0.00  0.00    +0.119 A 
ATOM     23  C   UNL     1      -1.694   5.158  25.299  0.00  0.00    +0.098 A 
ATOM     24  N   UNL     1      -1.110   4.729  24.905  0.00  0.00    -0.310 N 
ATOM     25  C   UNL     1      -0.510   5.045  24.434  0.00  0.00    +0.132 C 
ENDBRANCH  19  20
ENDBRANCH  18  19
TORSDOF 6
ENDMDL
MODEL 3
REMARK VINA RESULT:      -9.2      2.160      5.617
REMARK  Name = 
REMARK  6 active torsions:
REMARK  status: ('A' for Active; 'I' for Inactive)
REMARK    1  A    between atoms: C_2  and  C_4
REMARK    2  A    between atoms: N_6  and  C_7
REMARK    3  A    between atoms: C_10  and  C_13
REMARK    4  A    between atoms: N_18  and  C_19
REMARK    5  A    between atoms: C_19  and  C_20
REMARK    6  A    between atoms: C_26  and  C_27
REMARK                            x       y       z     vdW  Elec       q    Type
REMARK                         _______ _______ _______ _____ _____    ______ ____
ROOT
ATOM     13  C   UNL     1      -0.963   0.476  24.714  0.00  0.00    +0.159 C 
ATOM     14  O   UNL     1      -0.294   0.002  24.802  0.00  0.00    -0.341 OA
ATOM     15  C   UNL     1      -0.352  -0.816  24.704  0.00  0.00    +0.227 C 
ATOM     16  C   UNL     1      -1.079  -1.158  24.518  0.00  0.00    +0.256 C 
ATOM     17  O   UNL     1      -1.137  -1.976  24.420  0.00  0.00    -0.272 OA
ATOM     18  N   UNL     1      -1.748  -0.684  24.430  0.00  0.00    -0.267 N 
ATOM     26  C   UNL     1      -1.690   0.133  24.528  0.00  0.00    +0.140 C 
ENDROOT
BRANCH  13  10
ATOM      7  C   UNL     1      -0.789   2.927  25.007  0.00  0.00    +0.073 A 
ATOM      8  C   UNL     1      -1.007   2.450  25.644  0.00  0.00    +0.016 A 
ATOM      9  C   UNL     1      -1.065   1.634  25.546  0.00  0.00    -0.001 A 
ATOM     10  C   UNL     1      -0.905   1.293  24.812  0.00  0.00    +0.006 A 
ATOM     11  C   UNL     1      -0.687   1.770  24.175  0.00  0.00    -0.001 A 
ATOM     12  C   UNL     1      -0.629   2.588  24.272  0.00  0.00    +0.016 A 
BRANCH   7   6
ATOM      4  C   UNL     1      -1.377   4.228  24.932  0.00  0.00    +0.245 C 
ATOM      5  O   UNL     1      -2.081   3.894  24.662  0.00  0.00    -0.273 OA
ATOM      6  N   UNL     1      -0.731   3.745  25.105  0.00  0.00    -0.179 NA
BRANCH   4   2
ATOM      1  C   UNL     1      -0.637   5.441  24.785  0.00  0.00    +0.010 C 
ATOM      2  C   UNL     1      -1.318   5.045  25.030  0.00  0.00    +0.079 C 
ATOM      3  C   UNL     1      -1.940   5.466  25.372  0.00  0.00    +0.010 C 
ENDBRANCH   4   2
ENDBRANCH   7   6
ENDBRANCH  13  10
BRANCH  26  27
ATOM     27  C   UNL     1      -2.360   0.607  24.440  0.00  0.00    +0.205 C 
ATOM     28  O   UNL     1      -2.684   0.729  23.691  0.00  0.00    -0.218 OA
ENDBRANCH  26  27
BRANCH  18  19
ATOM     19  C   UNL     1      -2.475  -1.027  24.245  0.00  0.00    +0.158 C 
BRANCH  19  20
ATOM     20  C   UNL     1      -2.898  -1.435  24.824  0.00  0.00    +0.141 A 
ATOM     21  N   UNL     1      -2.778  -1.383  25.639  0.00  0.00    -0.228 NA
ATOM     22  C   UNL     1      -3.322  -1.882  26.009  0.00  0.00    +0.119 A 
ATOM     23  C   UNL     1      -3.777  -2.242  25.423  0.00  0.00    +0.098 A 
ATOM     24  N   UNL     1      -3.515  -1.965  24.690  0.00  0.00    -0.310 N 
ATOM     25  C   UNL     1      -3.818  -2.182  23.954  0.00  0.00    +0.132 C 
ENDBRANCH  19  20
ENDBRANCH  18  19
TORSDOF 6
ENDMDL
MODEL 4
REMARK VINA RESULT:      -8.6      1.341      5.020
REMARK  Name = 
REMARK  6 active torsions:
REMARK  status: ('A' for Active; 'I' for Inactive)
REMARK    1  A    between atoms: C_2  and  C_4
REMARK    2  A    between atoms: N_6  and  C_7
REMARK    3  A    between atoms: C_10  and  C_13
REMARK    4  A    between atoms: N_18  and  C_19
REMARK    5  A    between atoms: C_19  and  C_20
REMARK    6  A    between atoms: C_26  and  C_27
REMARK                            x       y       z     vdW  Elec       q    Type
REMARK                         _______ _______ _______ _____ _____    ______ ____
ROOT
ATOM     13  C   UNL     1      -3.770   1.157  24.431  0.00  0.00    +0.159 C 
ATOM     14  O   UNL     1      -4.586   1.057  24.366  0.00  0.00    -0.341 OA
ATOM     15  C   UNL     1      -4.904   0.301  24.272  0.00  0.00    +0.227 C 
ATOM     16  C   UNL     1      -4.404  -0.355  24.244  0.00  0.00    +0.256 C 
ATOM     17  O   UNL     1      -4.722  -1.111  24.151  0.00  0.00    -0.272 OA
ATOM     18  N   UNL     1      -3.588  -0.256  24.310  0.00  0.00    -0.267 N 
ATOM     26  C   UNL     1      -3.271   0.500  24.404  0.00  0.00    +0.140 C 
ENDROOT
BRANCH  13  10
ATOM      7  C   UNL     1      -2.819   3.424  24.712  0.00  0.00    +0.073 A 
ATOM      8  C   UNL     1      -2.975   3.133  23.956  0.00  0.00    +0.016 A 
ATOM      9  C   UNL     1      -3.292   2.378  23.863  0.00  0.00    -0.001 A 
ATOM     10  C   UNL     1      -3.453   1.912  24.525  0.00  0.00    +0.006 A 
ATOM     11  C   UNL     1      -3.296   2.203  25.281  0.00  0.00    -0.001 A 
ATOM     12  C   UNL     1      -2.979   2.959  25.375  0.00  0.00    +0.016 A 
BRANCH   7   6
ATOM      4  C   UNL     1      -1.691   4.276  24.925  0.00  0.00    +0.245 C 
ATOM      5  O   UNL     1      -1.197   3.615  24.950  0.00  0.00    -0.273 OA
ATOM      6  N   UNL     1      -2.501   4.180  24.806  0.00  0.00    -0.179 NA
BRANCH   4   2
ATOM      1  C   UNL     1      -1.850   5.646  25.295  0.00  0.00    +0.010 C 
ATOM      2  C   UNL     1      -1.374   5.031  25.019  0.00  0.00    +0.079 C 
ATOM      3  C   UNL     1      -0.582   5.173  24.837  0.00  0.00    +0.010 C 
ENDBRANCH   4   2
ENDBRANCH   7   6
ENDBRANCH  13  10
BRANCH  26  27
ATOM     27  C   UNL     1      -2.455   0.599  24.469  0.00  0.00    +0.205 C 
ATOM     28  O   UNL     1      -1.970   0.481  23.812  0.00  0.00    -0.218 OA
ENDBRANCH  26  27
BRANCH  18  19
ATOM     19  C   UNL     1      -3.089  -0.912  24.282  0.00  0.00    +0.158 C 
BRANCH  19  20
ATOM     20  C   UNL     1      -3.066  -1.439  24.917  0.00  0.00    +0.141 A 
ATOM     21  N   UNL     1      -3.367  -1.301  25.673  0.00  0.00    -0.228 NA
ATOM     22  C   UNL     1      -3.225  -1.973  26.131  0.00  0.00    +0.119 A 
ATOM     23  C   UNL     1      -2.836  -2.526  25.658  0.00  0.00    +0.098 A 
ATOM     24  N   UNL     1      -2.738  -2.196  24.907  0.00  0.00    -0.310 N 
ATOM     25  C   UNL     1      -2.375  -2.559  24.261  0.00  0.00    +0.132 C 
ENDBRANCH  19  20
ENDBRANCH  18  19
TORSDOF 6
ENDMDL
