REMARK  Name = 
REMARK  5 active torsions:
REMARK  status: ('A' for Active; 'I' for Inactive)
REMARK    1  A    between atoms: C_2  and  C_26
REMARK    2  A    between atoms: N_3  and  C_4
REMARK    3  A    between atoms: N_12  and  S_14
REMARK    4  A    between atoms: S_14  and  C_17
REMARK    5  A    between atoms: C_29  and  C_32
REMARK                            x       y       z     vdW  Elec       q    Type
REMARK                         _______ _______ _______ _____ _____    ______ ____
ROOT
ATOM      4  C   UNL     1      -1.131  -1.315   0.000  0.00  0.00    +0.130 A 
ATOM      5  C   UNL     1      -1.167  -0.335   0.000  0.00  0.00    +0.023 A 
ATOM      6  C   UNL     1      -0.397  -0.039   0.000  0.00  0.00    +0.014 A 
ATOM      7  C   UNL     1       0.244  -0.558   0.000  0.00  0.00    +0.041 A 
ATOM      8  C   UNL     1       1.163  -0.557   0.000  0.00  0.00    +0.056 C 
ATOM      9  C   UNL     1       1.713  -0.121   0.000  0.00  0.00    +0.011 C 
ATOM     10  C   UNL     1       1.582  -0.925   0.000  0.00  0.00    +0.041 C 
ATOM     11  C   UNL     1       1.629  -1.912   0.000  0.00  0.00    +0.098 C 
ATOM     12  N   UNL     1       0.813  -2.091   0.000  0.00  0.00    -0.155 NA
ATOM     13  C   UNL     1       1.225  -1.510   0.000  0.00  0.00    +0.102 C 
ATOM     22  C   UNL     1       0.622  -0.936   0.000  0.00  0.00    +0.110 C 
ATOM     23  N   UNL     1       0.115  -1.373   0.000  0.00  0.00    -0.298 N 
ATOM     24  C   UNL     1      -0.655  -1.669   0.000  0.00  0.00    +0.276 A 
ATOM     25  O   UNL     1      -0.798  -2.658   0.000  0.00  0.00    -0.266 OA
ENDROOT
BRANCH   4   3
ATOM      1  O   UNL     1      -2.853   0.055   0.000  0.00  0.00    -0.268 OA
ATOM      2  C   UNL     1      -2.750  -0.822   0.000  0.00  0.00    +0.269 C 
ATOM      3  N   UNL     1      -2.094  -1.403   0.000  0.00  0.00    -0.171 NA
BRANCH   2  26
ATOM     26  C   UNL     1      -3.478  -1.222   0.000  0.00  0.00    +0.055 A 
ATOM     27  C   UNL     1      -3.606  -2.037   0.000  0.00  0.00    +0.005 A 
ATOM     28  C   UNL     1      -4.377  -2.333   0.000  0.00  0.00    +0.010 A 
ATOM     29  C   UNL     1      -5.018  -1.813   0.000  0.00  0.00    +0.068 A 
ATOM     30  C   UNL     1      -4.889  -0.999   0.000  0.00  0.00    +0.010 A 
ATOM     31  C   UNL     1      -4.119  -0.703   0.000  0.00  0.00    +0.005 A 
BRANCH  29  32
ATOM     32  C   UNL     1      -5.788  -2.109   0.000  0.00  0.00    +0.100 C 
ATOM     33  N   UNL     1      -6.558  -2.405   0.000  0.00  0.00    -0.191 NA
ENDBRANCH  29  32
ENDBRANCH   2  26
ENDBRANCH   4   3
BRANCH  12  14
ATOM     14  S   UNL     1       0.183  -2.650   0.000  0.00  0.00    +0.069 S 
ATOM     15  O   UNL     1      -0.439  -3.258   0.000  0.00  0.00    -0.152 OA
ATOM     16  O   UNL     1       0.676  -3.391   0.000  0.00  0.00    -0.152 OA
BRANCH  14  17
ATOM     17  C   UNL     1      -0.331  -1.859   0.000  0.00  0.00    +0.152 A 
ATOM     18  C   UNL     1      -1.155  -1.824   0.000  0.00  0.00    +0.027 A 
ATOM     19  C   UNL     1      -1.376  -1.029   0.000  0.00  0.00    +0.009 A 
ATOM     20  C   UNL     1      -0.688  -0.573   0.000  0.00  0.00    +0.037 A 
ATOM     21  S   UNL     1      -0.042  -1.086   0.000  0.00  0.00    -0.067 S 
ENDBRANCH  14  17
ENDBRANCH  12  14
TORSDOF 5
