MODEL 1
REMARK VINA RESULT:     -13.9      0.000      0.000
REMARK  Name = 
REMARK  3 active torsions:
REMARK  status: ('A' for Active; 'I' for Inactive)
REMARK    1  A    between atoms: C_4  and  C_5
REMARK    2  A    between atoms: C_5  and  N_6
REMARK    3  A    between atoms: C_9  and  C_11
REMARK                            x       y       z     vdW  Elec       q    Type
REMARK                         _______ _______ _______ _____ _____    ______ ____
ROOT
ATOM      6  N   UNL     1      -4.303   0.872  24.624  0.00  0.00    -0.268 NA
ATOM      7  C   UNL     1      -4.880   1.317  25.011  0.00  0.00    +0.073 C 
ATOM      8  C   UNL     1      -4.557   2.055  25.188  0.00  0.00    +0.026 C 
ATOM      9  C   UNL     1      -3.779   2.066  24.912  0.00  0.00    +0.076 C 
ATOM     10  C   UNL     1      -3.623   1.335  24.563  0.00  0.00    +0.080 C 
ENDROOT
BRANCH   9  11
ATOM     11  C   UNL     1      -3.252   2.698  24.974  0.00  0.00    +0.140 A 
ATOM     12  N   UNL     1      -2.482   2.717  24.678  0.00  0.00    -0.229 NA
ATOM     13  C   UNL     1      -2.157   3.452  24.863  0.00  0.00    +0.100 A 
ATOM     14  C   UNL     1      -2.725   3.887  25.272  0.00  0.00    +0.100 A 
ATOM     15  N   UNL     1      -3.402   3.421  25.340  0.00  0.00    -0.229 NA
ATOM     16  C   UNL     1      -2.553   4.652  25.530  0.00  0.00    +0.020 A 
ATOM     17  C   UNL     1      -1.812   4.980  25.378  0.00  0.00    -0.003 A 
ATOM     18  C   UNL     1      -1.243   4.546  24.969  0.00  0.00    -0.020 A 
ATOM     19  C   UNL     1      -0.502   4.875  24.817  0.00  0.00    +0.031 C 
ATOM     20  C   UNL     1      -1.415   3.782  24.711  0.00  0.00    +0.016 A 
ENDBRANCH   9  11
BRANCH   6   5
ATOM      5  C   UNL     1      -4.390   0.100  24.347  0.00  0.00    +0.101 C 
BRANCH   5   4
ATOM      1  C   UNL     1      -3.106  -1.455  26.438  0.00  0.00    +0.130 C 
ATOM      2  N   UNL     1      -3.468  -1.243  25.727  0.00  0.00    -0.324 N 
ATOM      3  C   UNL     1      -3.735  -0.490  25.524  0.00  0.00    +0.073 A 
ATOM      4  C   UNL     1      -4.058  -0.529  24.766  0.00  0.00    +0.012 A 
ATOM     21  C   UNL     1      -3.991  -1.306  24.500  0.00  0.00    +0.015 A 
ATOM     22  C   UNL     1      -3.626  -1.748  25.094  0.00  0.00    +0.060 A 
ATOM     23  C   UNL     1      -3.485  -2.554  24.982  0.00  0.00    +0.017 A 
ATOM     24  C   UNL     1      -3.709  -2.917  24.276  0.00  0.00    +0.001 A 
ATOM     25  C   UNL     1      -4.074  -2.475  23.682  0.00  0.00    +0.000 A 
ATOM     26  C   UNL     1      -4.214  -1.670  23.794  0.00  0.00    +0.001 A 
ENDBRANCH   5   4
ENDBRANCH   6   5
TORSDOF 3
ENDMDL
MODEL 2
REMARK VINA RESULT:     -13.3      0.820      5.505
REMARK  Name = 
REMARK  3 active torsions:
REMARK  status: ('A' for Active; 'I' for Inactive)
REMARK    1  A    between atoms: C_4  and  C_5
REMARK    2  A    between atoms: C_5  and  N_6
REMARK    3  A    between atoms: C_9  and  C_11
REMARK                            x       y       z     vdW  Elec       q    Type
REMARK                         _______ _______ _______ _____ _____    ______ ____
ROOT
ATOM      6  N   UNL     1      -3.171   2.239  24.944  0.00  0.00    -0.268 NA
ATOM      7  C   UNL     1      -3.717   2.322  24.330  0.00  0.00    +0.073 C 
ATOM      8  C   UNL     1      -3.949   1.567  24.093  0.00  0.00    +0.026 C 
ATOM      9  C   UNL     1      -3.548   1.017  24.559  0.00  0.00    +0.076 C 
ATOM     10  C   UNL     1      -3.067   1.433  25.085  0.00  0.00    +0.080 C 
ENDROOT
BRANCH   9  11
ATOM     11  C   UNL     1      -3.615   0.197  24.508  0.00  0.00    +0.140 A 
ATOM     12  N   UNL     1      -3.211  -0.352  24.972  0.00  0.00    -0.229 NA
ATOM     13  C   UNL     1      -3.445  -1.108  24.734  0.00  0.00    +0.100 A 
ATOM     14  C   UNL     1      -3.993  -1.024  24.124  0.00  0.00    +0.100 A 
ATOM     15  N   UNL     1      -4.098  -0.218  23.984  0.00  0.00    -0.229 NA
ATOM     16  C   UNL     1      -4.326  -1.694  23.774  0.00  0.00    +0.020 A 
ATOM     17  C   UNL     1      -4.110  -2.445  24.036  0.00  0.00    -0.003 A 
ATOM     18  C   UNL     1      -3.561  -2.529  24.647  0.00  0.00    -0.020 A 
ATOM     19  C   UNL     1      -3.346  -3.281  24.908  0.00  0.00    +0.031 C 
ATOM     20  C   UNL     1      -3.229  -1.860  24.996  0.00  0.00    +0.016 A 
ENDBRANCH   9  11
BRANCH   6   5
ATOM      5  C   UNL     1      -2.796   2.854  25.347  0.00  0.00    +0.101 C 
BRANCH   5   4
ATOM      1  C   UNL     1      -0.045   2.816  24.418  0.00  0.00    +0.130 C 
ATOM      2  N   UNL     1      -0.777   3.080  24.691  0.00  0.00    -0.324 N 
ATOM      3  C   UNL     1      -1.430   2.606  24.862  0.00  0.00    +0.073 A 
ATOM      4  C   UNL     1      -2.042   3.098  25.118  0.00  0.00    +0.012 A 
ATOM     21  C   UNL     1      -1.767   3.875  25.104  0.00  0.00    +0.015 A 
ATOM     22  C   UNL     1      -0.985   3.864  24.840  0.00  0.00    +0.060 A 
ATOM     23  C   UNL     1      -0.563   4.570  24.770  0.00  0.00    +0.017 A 
ATOM     24  C   UNL     1      -0.924   5.286  24.963  0.00  0.00    +0.001 A 
ATOM     25  C   UNL     1      -1.705   5.297  25.227  0.00  0.00    +0.000 A 
ATOM     26  C   UNL     1      -2.126   4.592  25.297  0.00  0.00    +0.001 A 
ENDBRANCH   5   4
ENDBRANCH   6   5
TORSDOF 3
ENDMDL
MODEL 3
REMARK VINA RESULT:     -12.9      1.306      5.677
REMARK  Name = 
REMARK  3 active torsions:
REMARK  status: ('A' for Active; 'I' for Inactive)
REMARK    1  A    between atoms: C_4  and  C_5
REMARK    2  A    between atoms: C_5  and  N_6
REMARK    3  A    between atoms: C_9  and  C_11
REMARK                            x       y       z     vdW  Elec       q    Type
REMARK                         _______ _______ _______ _____ _____    ______ ____
ROOT
ATOM      6  N   UNL     1      -1.204   1.657  25.033  0.00  0.00    -0.268 NA
ATOM      7  C   UNL     1      -0.885   1.195  25.638  0.00  0.00    +0.073 C 
ATOM      8  C   UNL     1      -1.264   0.462  25.624  0.00  0.00    +0.026 C 
ATOM      9  C   UNL     1      -1.816   0.470  25.011  0.00  0.00    +0.076 C 
ATOM     10  C   UNL     1      -1.779   1.209  24.646  0.00  0.00    +0.080 C 
ENDROOT
BRANCH   9  11
ATOM     11  C   UNL     1      -2.317  -0.151  24.802  0.00  0.00    +0.140 A 
ATOM     12  N   UNL     1      -2.169  -0.954  24.923  0.00  0.00    -0.229 NA
ATOM     13  C   UNL     1      -2.814  -1.378  24.630  0.00  0.00    +0.100 A 
ATOM     14  C   UNL     1      -3.358  -0.838  24.329  0.00  0.00    +0.100 A 
ATOM     15  N   UNL     1      -3.051  -0.080  24.435  0.00  0.00    -0.229 NA
ATOM     16  C   UNL     1      -4.065  -1.106  23.996  0.00  0.00    +0.020 A 
ATOM     17  C   UNL     1      -4.224  -1.915  23.966  0.00  0.00    -0.003 A 
ATOM     18  C   UNL     1      -3.679  -2.456  24.268  0.00  0.00    -0.020 A 
ATOM     19  C   UNL     1      -3.840  -3.264  24.237  0.00  0.00    +0.031 C 
ATOM     20  C   UNL     1      -2.974  -2.188  24.600  0.00  0.00    +0.016 A 
ENDBRANCH   9  11
BRANCH   6   5
ATOM      5  C   UNL     1      -0.987   2.431  24.847  0.00  0.00    +0.101 C 
BRANCH   5   4
ATOM      1  C   UNL     1      -3.085   3.976  26.129  0.00  0.00    +0.130 C 
ATOM      2  N   UNL     1      -2.402   3.774  25.712  0.00  0.00    -0.324 N 
ATOM      3  C   UNL     1      -2.141   3.008  25.551  0.00  0.00    +0.073 A 
ATOM      4  C   UNL     1      -1.437   3.064  25.123  0.00  0.00    +0.012 A 
ATOM     21  C   UNL     1      -1.264   3.863  25.020  0.00  0.00    +0.015 A 
ATOM     22  C   UNL     1      -1.860   4.302  25.384  0.00  0.00    +0.060 A 
ATOM     23  C   UNL     1      -1.833   5.127  25.370  0.00  0.00    +0.017 A 
ATOM     24  C   UNL     1      -1.209   5.512  24.992  0.00  0.00    +0.001 A 
ATOM     25  C   UNL     1      -0.613   5.073  24.628  0.00  0.00    +0.000 A 
ATOM     26  C   UNL     1      -0.641   4.249  24.642  0.00  0.00    +0.001 A 
ENDBRANCH   5   4
ENDBRANCH   6   5
TORSDOF 3
ENDMDL
MODEL 4
REMARK VINA RESULT:     -12.0      1.407      2.075
REMARK  Name = 
REMARK  3 active torsions:
REMARK  status: ('A' for Active; 'I' for Inactive)
REMARK    1  A    between atoms: C_4  and  C_5
REMARK    2  A    between atoms: C_5  and  N_6
REMARK    3  A    between atoms: C_9  and  C_11
REMARK                            x       y       z     vdW  Elec       q    Type
REMARK                         _______ _______ _______ _____ _____    ______ ____
ROOT
ATOM      6  N   UNL     1      -1.634   0.085  25.166  0.00  0.00    -0.268 NA
ATOM      7  C   UNL     1      -0.947   0.063  24.710  0.00  0.00    +0.073 C 
ATOM      8  C   UNL     1      -0.703   0.840  24.578  0.00  0.00    +0.026 C 
ATOM      9  C   UNL     1      -1.240   1.343  24.953  0.00  0.00    +0.076 C 
ATOM     10  C   UNL     1      -1.815   0.876  25.316  0.00  0.00    +0.080 C 
ENDROOT
BRANCH   9  11
ATOM     11  C   UNL     1      -1.206   2.167  24.962  0.00  0.00    +0.140 A 
ATOM     12  N   UNL     1      -1.820   2.674  25.176  0.00  0.00    -0.229 NA
ATOM     13  C   UNL     1      -1.546   3.450  25.105  0.00  0.00    +0.100 A 
ATOM     14  C   UNL     1      -0.763   3.421  24.848  0.00  0.00    +0.100 A 
ATOM     15  N   UNL     1      -0.553   2.628  24.759  0.00  0.00    -0.229 NA
ATOM     16  C   UNL     1      -0.342   4.120  24.727  0.00  0.00    +0.020 A 
ATOM     17  C   UNL     1      -0.706   4.848  24.864  0.00  0.00    -0.003 A 
ATOM     18  C   UNL     1      -1.489   4.877  25.122  0.00  0.00    -0.020 A 
ATOM     19  C   UNL     1      -1.851   5.606  25.258  0.00  0.00    +0.031 C 
ATOM     20  C   UNL     1      -1.909   4.178  25.242  0.00  0.00    +0.016 A 
ENDBRANCH   9  11
BRANCH   6   5
ATOM      5  C   UNL     1      -2.066  -0.568  25.426  0.00  0.00    +0.101 C 
BRANCH   5   4
ATOM      1  C   UNL     1      -4.688  -0.392  24.190  0.00  0.00    +0.130 C 
ATOM      2  N   UNL     1      -3.977  -0.692  24.484  0.00  0.00    -0.324 N 
ATOM      3  C   UNL     1      -3.379  -0.253  24.844  0.00  0.00    +0.073 A 
ATOM      4  C   UNL     1      -2.772  -0.773  25.052  0.00  0.00    +0.012 A 
ATOM     21  C   UNL     1      -2.995  -1.531  24.820  0.00  0.00    +0.015 A 
ATOM     22  C   UNL     1      -3.740  -1.481  24.469  0.00  0.00    +0.060 A 
ATOM     23  C   UNL     1      -4.107  -2.162  24.180  0.00  0.00    +0.017 A 
ATOM     24  C   UNL     1      -3.729  -2.892  24.243  0.00  0.00    +0.001 A 
ATOM     25  C   UNL     1      -2.984  -2.942  24.594  0.00  0.00    +0.000 A 
ATOM     26  C   UNL     1      -2.618  -2.262  24.882  0.00  0.00    +0.001 A 
ENDBRANCH   5   4
ENDBRANCH   6   5
TORSDOF 3
ENDMDL
MODEL 5
REMARK VINA RESULT:     -10.0      2.998      4.438
REMARK  Name = 
REMARK  3 active torsions:
REMARK  status: ('A' for Active; 'I' for Inactive)
REMARK    1  A    between atoms: C_4  and  C_5
REMARK    2  A    between atoms: C_5  and  N_6
REMARK    3  A    between atoms: C_9  and  C_11
REMARK                            x       y       z     vdW  Elec       q    Type
REMARK                         _______ _______ _______ _____ _____    ______ ____
ROOT
ATOM      6  N   UNL     1      -2.475   0.791  24.476  0.00  0.00    -0.268 NA
ATOM      7  C   UNL     1      -2.186   0.441  25.166  0.00  0.00    +0.073 C 
ATOM      8  C   UNL     1      -1.386   0.276  25.052  0.00  0.00    +0.026 C 
ATOM      9  C   UNL     1      -1.179   0.523  24.293  0.00  0.00    +0.076 C 
ATOM     10  C   UNL     1      -1.853   0.841  23.937  0.00  0.00    +0.080 C 
ENDROOT
BRANCH   9  11
ATOM     11  C   UNL     1      -0.431   0.462  23.950  0.00  0.00    +0.140 A 
ATOM     12  N   UNL     1       0.196   0.987  24.061  0.00  0.00    -0.229 NA
ATOM     13  C   UNL     1       0.836   0.716  23.616  0.00  0.00    +0.100 A 
ATOM     14  C   UNL     1       0.604   0.025  23.231  0.00  0.00    +0.100 A 
ATOM     15  N   UNL     1      -0.179  -0.132  23.438  0.00  0.00    -0.229 NA
ATOM     16  C   UNL     1       1.136  -0.374  22.742  0.00  0.00    +0.020 A 
ATOM     17  C   UNL     1       1.900  -0.079  22.639  0.00  0.00    -0.003 A 
ATOM     18  C   UNL     1       2.132   0.612  23.024  0.00  0.00    -0.020 A 
ATOM     19  C   UNL     1       2.896   0.906  22.920  0.00  0.00    +0.031 C 
ATOM     20  C   UNL     1       1.600   1.010  23.513  0.00  0.00    +0.016 A 
ENDBRANCH   9  11
BRANCH   6   5
ATOM      5  C   UNL     1      -3.249   1.045  24.348  0.00  0.00    +0.101 C 
BRANCH   5   4
ATOM      1  C   UNL     1      -3.265   3.791  25.294  0.00  0.00    +0.130 C 
ATOM      2  N   UNL     1      -3.510   3.029  25.090  0.00  0.00    -0.324 N 
ATOM      3  C   UNL     1      -3.033   2.435  24.775  0.00  0.00    +0.073 A 
ATOM      4  C   UNL     1      -3.502   1.767  24.655  0.00  0.00    +0.012 A 
ATOM     21  C   UNL     1      -4.269   1.949  24.896  0.00  0.00    +0.015 A 
ATOM     22  C   UNL     1      -4.274   2.729  25.165  0.00  0.00    +0.060 A 
ATOM     23  C   UNL     1      -4.975   3.066  25.444  0.00  0.00    +0.017 A 
ATOM     24  C   UNL     1      -5.670   2.622  25.453  0.00  0.00    +0.001 A 
ATOM     25  C   UNL     1      -5.665   1.842  25.184  0.00  0.00    +0.000 A 
ATOM     26  C   UNL     1      -4.965   1.506  24.906  0.00  0.00    +0.001 A 
ENDBRANCH   5   4
ENDBRANCH   6   5
TORSDOF 3
ENDMDL
