REMARK  Name = 
REMARK  4 active torsions:
REMARK  status: ('A' for Active; 'I' for Inactive)
REMARK    1  A    between atoms: C_2  and  N_4
REMARK    2  A    between atoms: N_7  and  C_8
REMARK    3  A    between atoms: C_10  and  C_14
REMARK    4  A    between atoms: C_16  and  C_19
REMARK                            x       y       z     vdW  Elec       q    Type
REMARK                         _______ _______ _______ _____ _____    ______ ____
ROOT
ATOM     14  C   UNL     1      -0.893   0.992   0.000  0.00  0.00    +0.251 A 
ATOM     15  N   UNL     1      -0.086   0.821   0.000  0.00  0.00    -0.190 NA
ATOM     16  C   UNL     1       0.000   0.000   0.000  0.00  0.00    +0.203 A 
ATOM     17  N   UNL     1      -0.754  -0.336   0.000  0.00  0.00    -0.056 NA
ATOM     18  O   UNL     1      -1.306   0.278   0.000  0.00  0.00    -0.336 OA
ENDROOT
BRANCH  16  19
ATOM     19  C   UNL     1       0.715  -0.412   0.000  0.00  0.00    +0.039 A 
ATOM     20  C   UNL     1       1.429   0.000   0.000  0.00  0.00    +0.003 A 
ATOM     21  C   UNL     1       2.143  -0.412   0.000  0.00  0.00    +0.000 A 
ATOM     22  C   UNL     1       2.858   0.000   0.000  0.00  0.00    +0.000 A 
ATOM     23  C   UNL     1       3.572  -0.412   0.000  0.00  0.00    +0.000 A 
ATOM     24  C   UNL     1       3.572  -1.238   0.000  0.00  0.00    +0.000 A 
ATOM     25  C   UNL     1       2.858  -1.650   0.000  0.00  0.00    +0.000 A 
ATOM     26  C   UNL     1       2.143  -1.238   0.000  0.00  0.00    +0.000 A 
ATOM     27  C   UNL     1       1.429  -1.650   0.000  0.00  0.00    +0.000 A 
ATOM     28  C   UNL     1       0.715  -1.238   0.000  0.00  0.00    +0.003 A 
ENDBRANCH  16  19
BRANCH  14  10
ATOM      8  C   UNL     1      -1.368   3.073   0.000  0.00  0.00    +0.115 C 
ATOM      9  C   UNL     1      -0.816   2.460   0.000  0.00  0.00    +0.049 C 
ATOM     10  C   UNL     1      -1.229   1.746   0.000  0.00  0.00    +0.139 C 
ATOM     11  N   UNL     1      -2.036   1.917   0.000  0.00  0.00    -0.264 NA
ATOM     12  C   UNL     1      -2.649   1.365   0.000  0.00  0.00    +0.090 C 
ATOM     13  C   UNL     1      -2.122   2.738   0.000  0.00  0.00    +0.094 C 
BRANCH   8   7
ATOM      4  N   UNL     1      -1.638   5.239   0.000  0.00  0.00    -0.189 NA
ATOM      5  C   UNL     1      -1.810   4.432   0.000  0.00  0.00    +0.339 C 
ATOM      6  O   UNL     1      -2.595   4.177   0.000  0.00  0.00    -0.249 OA
ATOM      7  N   UNL     1      -1.197   3.880   0.000  0.00  0.00    -0.187 NA
BRANCH   4   2
ATOM      1  C   UNL     1      -2.080   6.598   0.000  0.00  0.00    +0.023 C 
ATOM      2  C   UNL     1      -2.251   5.791   0.000  0.00  0.00    +0.097 C 
ATOM      3  C   UNL     1      -3.036   5.536   0.000  0.00  0.00    +0.023 C 
ENDBRANCH   4   2
ENDBRANCH   8   7
ENDBRANCH  14  10
TORSDOF 4
