REMARK  Name = 
REMARK  4 active torsions:
REMARK  status: ('A' for Active; 'I' for Inactive)
REMARK    1  A    between atoms: C_2  and  C_32
REMARK    2  A    between atoms: N_3  and  C_4
REMARK    3  A    between atoms: C_14  and  C_16
REMARK    4  A    between atoms: C_19  and  C_22
REMARK                            x       y       z     vdW  Elec       q    Type
REMARK                         _______ _______ _______ _____ _____    ______ ____
ROOT
ATOM      4  C   UNL     1      -1.296  -1.150   0.000  0.00  0.00    +0.130 A 
ATOM      5  C   UNL     1      -1.167  -0.335   0.000  0.00  0.00    +0.023 A 
ATOM      6  C   UNL     1      -0.397  -0.039   0.000  0.00  0.00    +0.014 A 
ATOM      7  C   UNL     1       0.244  -0.558   0.000  0.00  0.00    +0.041 A 
ATOM      8  C   UNL     1       1.163  -0.557   0.000  0.00  0.00    +0.058 C 
ATOM      9  C   UNL     1       1.713  -0.121   0.000  0.00  0.00    +0.011 C 
ATOM     10  C   UNL     1       1.582  -0.925   0.000  0.00  0.00    +0.043 C 
ATOM     11  C   UNL     1       1.629  -1.912   0.000  0.00  0.00    +0.096 C 
ATOM     12  N   UNL     1       0.813  -2.091   0.000  0.00  0.00    -0.276 N 
ATOM     13  C   UNL     1       1.225  -1.510   0.000  0.00  0.00    +0.099 C 
ATOM     14  C   UNL     1       0.125  -2.547   0.000  0.00  0.00    +0.249 C 
ATOM     15  O   UNL     1      -0.614  -2.179   0.000  0.00  0.00    -0.270 OA
ATOM     28  C   UNL     1       0.622  -0.936   0.000  0.00  0.00    +0.110 C 
ATOM     29  N   UNL     1       0.115  -1.373   0.000  0.00  0.00    -0.298 N 
ATOM     30  C   UNL     1      -0.655  -1.669   0.000  0.00  0.00    +0.276 A 
ATOM     31  O   UNL     1      -1.029  -2.404   0.000  0.00  0.00    -0.266 OA
ENDROOT
BRANCH  14  16
ATOM     16  C   UNL     1       0.176  -3.370   0.000  0.00  0.00    +0.054 A 
ATOM     17  C   UNL     1       0.914  -3.738   0.000  0.00  0.00    +0.005 A 
ATOM     18  C   UNL     1       0.965  -4.562   0.000  0.00  0.00    +0.000 A 
ATOM     19  C   UNL     1       0.277  -5.017   0.000  0.00  0.00    +0.000 A 
ATOM     20  C   UNL     1      -0.461  -4.650   0.000  0.00  0.00    +0.000 A 
ATOM     21  C   UNL     1      -0.512  -3.826   0.000  0.00  0.00    +0.005 A 
BRANCH  19  22
ATOM     22  C   UNL     1       0.328  -5.841   0.000  0.00  0.00    +0.000 A 
ATOM     23  C   UNL     1       1.066  -6.209   0.000  0.00  0.00    +0.000 A 
ATOM     24  C   UNL     1       1.117  -7.032   0.000  0.00  0.00    +0.000 A 
ATOM     25  C   UNL     1       0.429  -7.488   0.000  0.00  0.00    +0.000 A 
ATOM     26  C   UNL     1      -0.309  -7.120   0.000  0.00  0.00    +0.000 A 
ATOM     27  C   UNL     1      -0.360  -6.296   0.000  0.00  0.00    +0.000 A 
ENDBRANCH  19  22
ENDBRANCH  14  16
BRANCH   4   3
ATOM      1  O   UNL     1      -3.478  -1.222   0.000  0.00  0.00    -0.267 OA
ATOM      2  C   UNL     1      -2.707  -0.926   0.000  0.00  0.00    +0.275 C 
ATOM      3  N   UNL     1      -2.066  -1.445   0.000  0.00  0.00    -0.170 NA
BRANCH   2  32
ATOM     32  C   UNL     1      -2.578  -0.111   0.000  0.00  0.00    +0.085 A 
ATOM     33  C   UNL     1      -3.162   0.472   0.000  0.00  0.00    +0.012 A 
ATOM     34  C   UNL     1      -2.787   1.207   0.000  0.00  0.00    +0.008 A 
ATOM     35  C   UNL     1      -1.972   1.078   0.000  0.00  0.00    +0.036 A 
ATOM     36  S   UNL     1      -1.843   0.263   0.000  0.00  0.00    -0.082 S 
ENDBRANCH   2  32
ENDBRANCH   4   3
TORSDOF 4
