REMARK  Name = 
REMARK  10 active torsions:
REMARK  status: ('A' for Active; 'I' for Inactive)
REMARK    1  A    between atoms: O_2  and  C_3
REMARK    2  A    between atoms: C_6  and  N_7
REMARK    3  A    between atoms: N_10  and  C_11
REMARK    4  A    between atoms: C_13  and  C_21
REMARK    5  A    between atoms: C_16  and  C_18
REMARK    6  A    between atoms: C_18  and  S_19
REMARK    7  A    between atoms: N_23  and  C_24
REMARK    8  A    between atoms: C_24  and  C_25
REMARK    9  A    between atoms: C_24  and  C_31
REMARK   10  A    between atoms: C_25  and  C_26
REMARK                            x       y       z     vdW  Elec       q    Type
REMARK                         _______ _______ _______ _____ _____    ______ ____
ROOT
ATOM     11  C   UNL     1       0.867   4.611   0.000  0.00  0.00    +0.119 C 
ATOM     12  C   UNL     1       1.419   5.224   0.000  0.00  0.00    +0.053 C 
ATOM     13  C   UNL     1       2.173   4.888   0.000  0.00  0.00    +0.155 C 
ATOM     14  N   UNL     1       2.087   4.068   0.000  0.00  0.00    -0.270 N 
ATOM     15  C   UNL     1       1.280   3.896   0.000  0.00  0.00    +0.116 C 
ATOM     16  C   UNL     1       2.700   3.516   0.000  0.00  0.00    +0.237 C 
ATOM     17  O   UNL     1       2.528   2.709   0.000  0.00  0.00    -0.274 OA
ENDROOT
BRANCH  11  10
ATOM      7  N   UNL     1      -1.259   4.116   0.000  0.00  0.00    -0.161 NA
ATOM      8  C   UNL     1      -0.438   4.029   0.000  0.00  0.00    +0.343 C 
ATOM      9  O   UNL     1      -0.103   3.276   0.000  0.00  0.00    -0.249 OA
ATOM     10  N   UNL     1       0.047   4.697   0.000  0.00  0.00    -0.187 NA
BRANCH   7   6
ATOM      3  C   UNL     1      -2.714   2.113   0.000  0.00  0.00    +0.139 A 
ATOM      4  C   UNL     1      -3.049   2.867   0.000  0.00  0.00    +0.038 A 
ATOM      5  C   UNL     1      -2.564   3.534   0.000  0.00  0.00    +0.020 A 
ATOM      6  C   UNL     1      -1.744   3.448   0.000  0.00  0.00    +0.075 A 
ATOM     34  C   UNL     1      -1.408   2.695   0.000  0.00  0.00    +0.020 A 
ATOM     35  C   UNL     1      -1.893   2.027   0.000  0.00  0.00    +0.038 A 
BRANCH   3   2
ATOM      1  C   UNL     1      -2.863   0.692   0.000  0.00  0.00    +0.252 C 
ATOM      2  O   UNL     1      -3.199   1.446   0.000  0.00  0.00    -0.471 OA
ENDBRANCH   3   2
ENDBRANCH   7   6
ENDBRANCH  11  10
BRANCH  13  21
ATOM     21  C   UNL     1       2.887   5.301   0.000  0.00  0.00    +0.260 C 
ATOM     22  O   UNL     1       3.602   4.888   0.000  0.00  0.00    -0.272 OA
ATOM     23  N   UNL     1       2.887   6.126   0.000  0.00  0.00    -0.196 NA
BRANCH  23  24
ATOM     24  C   UNL     1       3.602   6.538   0.000  0.00  0.00    +0.179 C 
BRANCH  24  31
ATOM     31  C   UNL     1       4.316   6.126   0.000  0.00  0.00    +0.281 C 
ATOM     32  N   UNL     1       5.031   6.538   0.000  0.00  0.00    -0.086 NA
ATOM     33  O   UNL     1       4.316   5.301   0.000  0.00  0.00    -0.270 OA
ENDBRANCH  24  31
BRANCH  24  25
ATOM     25  C   UNL     1       3.602   7.363   0.000  0.00  0.00    +0.064 C 
BRANCH  25  26
ATOM     26  C   UNL     1       4.316   7.776   0.000  0.00  0.00    +0.010 A 
ATOM     27  C   UNL     1       4.402   8.596   0.000  0.00  0.00    +0.003 A 
ATOM     28  C   UNL     1       5.209   8.768   0.000  0.00  0.00    +0.007 A 
ATOM     29  C   UNL     1       5.622   8.053   0.000  0.00  0.00    +0.035 A 
ATOM     30  S   UNL     1       5.070   7.440   0.000  0.00  0.00    -0.091 S 
ENDBRANCH  25  26
ENDBRANCH  24  25
ENDBRANCH  23  24
ENDBRANCH  13  21
BRANCH  16  18
ATOM     18  C   UNL     1       3.484   3.771   0.000  0.00  0.00    +0.143 C 
BRANCH  18  19
ATOM     19  S   UNL     1       4.097   3.219   0.000  0.00  0.00    -0.130 S 
ATOM     20  C   UNL     1       3.926   2.412   0.000  0.00  0.00    +0.070 C 
ENDBRANCH  18  19
ENDBRANCH  16  18
TORSDOF 10
