MODEL 1
REMARK VINA RESULT:     -14.6      0.000      0.000
REMARK  Name = 
REMARK  5 active torsions:
REMARK  status: ('A' for Active; 'I' for Inactive)
REMARK    1  A    between atoms: C_2  and  C_3
REMARK    2  A    between atoms: C_11  and  C_12
REMARK    3  A    between atoms: C_12  and  C_13
REMARK    4  A    between atoms: C_18  and  C_21
REMARK    5  A    between atoms: C_31  and  C_33
REMARK                            x       y       z     vdW  Elec       q    Type
REMARK                         _______ _______ _______ _____ _____    ______ ____
ROOT
ATOM      1  C   UNL     1      -5.029   3.995  25.621  0.00  0.00    +0.005 C 
ATOM      2  C   UNL     1      -4.694   3.277  25.391  0.00  0.00    +0.059 C 
ATOM      5  C   UNL     1      -5.484   3.052  25.454  0.00  0.00    +0.154 C 
ATOM      6  O   UNL     1      -6.055   3.605  25.678  0.00  0.00    -0.223 OA
ATOM      7  C   UNL     1      -5.706   2.273  25.292  0.00  0.00    +0.033 C 
ATOM      8  C   UNL     1      -5.136   1.721  25.068  0.00  0.00    +0.003 C 
ATOM      9  C   UNL     1      -4.346   1.946  25.005  0.00  0.00    +0.006 C 
ATOM     10  C   UNL     1      -4.567   1.169  24.844  0.00  0.00    +0.000 C 
ATOM     11  C   UNL     1      -3.775   1.393  24.781  0.00  0.00    +0.050 C 
ATOM     24  C   UNL     1      -2.985   1.618  24.719  0.00  0.00    +0.063 A 
ATOM     25  C   UNL     1      -2.763   2.397  24.880  0.00  0.00    +0.023 A 
ATOM     26  C   UNL     1      -3.333   2.950  25.104  0.00  0.00    +0.034 C 
ATOM     27  C   UNL     1      -4.124   2.725  25.167  0.00  0.00    +0.010 C 
ATOM     28  S   UNL     1      -1.947   2.457  24.772  0.00  0.00    -0.054 S 
ATOM     29  C   UNL     1      -1.664   1.717  24.545  0.00  0.00    +0.186 A 
ATOM     30  N   UNL     1      -0.879   1.528  24.379  0.00  0.00    -0.148 NA
ATOM     31  C   UNL     1      -0.294   2.108  24.436  0.00  0.00    +0.305 C 
ATOM     32  O   UNL     1       0.491   1.919  24.271  0.00  0.00    -0.265 OA
ATOM     38  N   UNL     1      -2.305   1.199  24.511  0.00  0.00    -0.227 NA
ENDROOT
BRANCH  31  33
ATOM     33  C   UNL     1      -0.495   2.876  24.659  0.00  0.00    +0.201 A 
ATOM     34  C   UNL     1      -0.486   3.176  25.427  0.00  0.00    +0.046 A 
ATOM     35  C   UNL     1      -0.726   3.966  25.395  0.00  0.00    +0.044 A 
ATOM     36  C   UNL     1      -0.884   4.152  24.607  0.00  0.00    +0.180 A 
ATOM     37  O   UNL     1      -0.741   3.479  24.151  0.00  0.00    -0.446 OA
ENDBRANCH  31  33
BRANCH   2   3
ATOM      3  C   UNL     1      -4.020   3.752  25.408  0.00  0.00    +0.184 C 
ATOM      4  O   UNL     1      -4.072   4.534  25.667  0.00  0.00    -0.220 OA
ENDBRANCH   2   3
BRANCH  11  12
ATOM     12  C   UNL     1      -3.997   0.615  24.620  0.00  0.00    +0.091 C 
BRANCH  12  13
ATOM     13  C   UNL     1      -3.745   0.003  25.114  0.00  0.00    +0.226 C 
ATOM     14  O   UNL     1      -3.472   0.173  25.873  0.00  0.00    -0.275 OA
ATOM     15  N   UNL     1      -3.766  -0.776  24.847  0.00  0.00    -0.280 N 
ATOM     16  C   UNL     1      -3.514  -1.388  25.340  0.00  0.00    +0.094 C 
ATOM     17  C   UNL     1      -3.535  -2.169  25.074  0.00  0.00    +0.031 C 
ATOM     18  C   UNL     1      -3.808  -2.337  24.315  0.00  0.00    +0.083 C 
ATOM     19  C   UNL     1      -4.060  -1.726  23.820  0.00  0.00    +0.031 C 
ATOM     20  C   UNL     1      -4.039  -0.946  24.087  0.00  0.00    +0.094 C 
BRANCH  18  21
ATOM     21  C   UNL     1      -3.829  -3.118  24.048  0.00  0.00    +0.260 C 
ATOM     22  N   UNL     1      -3.223  -3.641  24.253  0.00  0.00    -0.088 NA
ATOM     23  O   UNL     1      -4.454  -3.377  23.577  0.00  0.00    -0.272 OA
ENDBRANCH  18  21
ENDBRANCH  12  13
ENDBRANCH  11  12
TORSDOF 5
ENDMDL
MODEL 2
REMARK VINA RESULT:     -12.0      1.590      4.484
REMARK  Name = 
REMARK  5 active torsions:
REMARK  status: ('A' for Active; 'I' for Inactive)
REMARK    1  A    between atoms: C_2  and  C_3
REMARK    2  A    between atoms: C_11  and  C_12
REMARK    3  A    between atoms: C_12  and  C_13
REMARK    4  A    between atoms: C_18  and  C_21
REMARK    5  A    between atoms: C_31  and  C_33
REMARK                            x       y       z     vdW  Elec       q    Type
REMARK                         _______ _______ _______ _____ _____    ______ ____
ROOT
ATOM      1  C   UNL     1      -2.678  -2.918  24.365  0.00  0.00    +0.005 C 
ATOM      2  C   UNL     1      -2.814  -2.114  24.489  0.00  0.00    +0.059 C 
ATOM      5  C   UNL     1      -3.561  -2.415  24.666  0.00  0.00    +0.154 C 
ATOM      6  O   UNL     1      -3.702  -3.227  24.619  0.00  0.00    -0.223 OA
ATOM      7  C   UNL     1      -4.169  -1.903  24.892  0.00  0.00    +0.033 C 
ATOM      8  C   UNL     1      -4.029  -1.092  24.940  0.00  0.00    +0.003 C 
ATOM      9  C   UNL     1      -3.283  -0.792  24.762  0.00  0.00    +0.006 C 
ATOM     10  C   UNL     1      -3.890  -0.282  24.987  0.00  0.00    +0.000 C 
ATOM     11  C   UNL     1      -3.142   0.020  24.810  0.00  0.00    +0.050 C 
ATOM     24  C   UNL     1      -2.395   0.321  24.633  0.00  0.00    +0.063 A 
ATOM     25  C   UNL     1      -1.787  -0.190  24.407  0.00  0.00    +0.023 A 
ATOM     26  C   UNL     1      -1.927  -1.001  24.359  0.00  0.00    +0.034 C 
ATOM     27  C   UNL     1      -2.675  -1.303  24.537  0.00  0.00    +0.010 C 
ATOM     28  S   UNL     1      -1.113   0.264  24.267  0.00  0.00    -0.054 S 
ATOM     29  C   UNL     1      -1.303   1.054  24.405  0.00  0.00    +0.186 A 
ATOM     30  N   UNL     1      -0.791   1.697  24.330  0.00  0.00    -0.148 NA
ATOM     31  C   UNL     1      -0.008   1.575  24.097  0.00  0.00    +0.305 C 
ATOM     32  O   UNL     1       0.504   2.217  24.022  0.00  0.00    -0.265 OA
ATOM     38  N   UNL     1      -2.095   1.089  24.631  0.00  0.00    -0.227 NA
ENDROOT
BRANCH  31  33
ATOM     33  C   UNL     1       0.262   0.812  23.940  0.00  0.00    +0.201 A 
ATOM     34  C   UNL     1       0.333   0.467  23.193  0.00  0.00    +0.046 A 
ATOM     35  C   UNL     1       0.624  -0.299  23.294  0.00  0.00    +0.044 A 
ATOM     36  C   UNL     1       0.732  -0.427  24.101  0.00  0.00    +0.180 A 
ATOM     37  O   UNL     1       0.508   0.259  24.501  0.00  0.00    -0.446 OA
ENDBRANCH  31  33
BRANCH   2   3
ATOM      3  C   UNL     1      -2.020  -2.093  24.269  0.00  0.00    +0.184 C 
ATOM      4  O   UNL     1      -1.619  -2.794  24.101  0.00  0.00    -0.220 OA
ENDBRANCH   2   3
BRANCH  11  12
ATOM     12  C   UNL     1      -3.750   0.531  25.035  0.00  0.00    +0.091 C 
BRANCH  12  13
ATOM     13  C   UNL     1      -4.036   1.092  24.502  0.00  0.00    +0.226 C 
ATOM     14  O   UNL     1      -3.936   0.979  23.691  0.00  0.00    -0.275 OA
ATOM     15  N   UNL     1      -4.421   1.766  24.780  0.00  0.00    -0.280 N 
ATOM     16  C   UNL     1      -4.708   2.327  24.247  0.00  0.00    +0.094 C 
ATOM     17  C   UNL     1      -5.093   3.001  24.526  0.00  0.00    +0.031 C 
ATOM     18  C   UNL     1      -5.193   3.114  25.336  0.00  0.00    +0.083 C 
ATOM     19  C   UNL     1      -4.907   2.553  25.870  0.00  0.00    +0.031 C 
ATOM     20  C   UNL     1      -4.521   1.879  25.591  0.00  0.00    +0.094 C 
BRANCH  18  21
ATOM     21  C   UNL     1      -5.579   3.788  25.614  0.00  0.00    +0.260 C 
ATOM     22  N   UNL     1      -5.153   4.484  25.743  0.00  0.00    -0.088 NA
ATOM     23  O   UNL     1      -6.390   3.768  25.764  0.00  0.00    -0.272 OA
ENDBRANCH  18  21
ENDBRANCH  12  13
ENDBRANCH  11  12
TORSDOF 5
ENDMDL
MODEL 3
REMARK VINA RESULT:     -11.9      1.693      3.568
REMARK  Name = 
REMARK  5 active torsions:
REMARK  status: ('A' for Active; 'I' for Inactive)
REMARK    1  A    between atoms: C_2  and  C_3
REMARK    2  A    between atoms: C_11  and  C_12
REMARK    3  A    between atoms: C_12  and  C_13
REMARK    4  A    between atoms: C_18  and  C_21
REMARK    5  A    between atoms: C_31  and  C_33
REMARK                            x       y       z     vdW  Elec       q    Type
REMARK                         _______ _______ _______ _____ _____    ______ ____
ROOT
ATOM      1  C   UNL     1      -1.289   5.041  25.070  0.00  0.00    +0.005 C 
ATOM      2  C   UNL     1      -1.435   4.232  25.003  0.00  0.00    +0.059 C 
ATOM      5  C   UNL     1      -0.616   4.238  24.909  0.00  0.00    +0.154 C 
ATOM      6  O   UNL     1      -0.202   4.951  24.936  0.00  0.00    -0.223 OA
ATOM      7  C   UNL     1      -0.210   3.529  24.788  0.00  0.00    +0.033 C 
ATOM      8  C   UNL     1      -0.623   2.816  24.762  0.00  0.00    +0.003 C 
ATOM      9  C   UNL     1      -1.442   2.811  24.855  0.00  0.00    +0.006 C 
ATOM     10  C   UNL     1      -1.037   2.104  24.735  0.00  0.00    +0.000 C 
ATOM     11  C   UNL     1      -1.856   2.098  24.828  0.00  0.00    +0.050 C 
ATOM     24  C   UNL     1      -2.675   2.092  24.922  0.00  0.00    +0.063 A 
ATOM     25  C   UNL     1      -3.082   2.801  25.043  0.00  0.00    +0.023 A 
ATOM     26  C   UNL     1      -2.668   3.514  25.070  0.00  0.00    +0.034 C 
ATOM     27  C   UNL     1      -1.849   3.520  24.976  0.00  0.00    +0.010 C 
ATOM     28  S   UNL     1      -3.884   2.624  25.117  0.00  0.00    -0.054 S 
ATOM     29  C   UNL     1      -3.975   1.808  25.042  0.00  0.00    +0.186 A 
ATOM     30  N   UNL     1      -4.687   1.393  25.080  0.00  0.00    -0.148 NA
ATOM     31  C   UNL     1      -5.394   1.799  25.204  0.00  0.00    +0.305 C 
ATOM     32  O   UNL     1      -6.106   1.385  25.243  0.00  0.00    -0.265 OA
ATOM     38  N   UNL     1      -3.228   1.479  24.922  0.00  0.00    -0.227 NA
ENDROOT
BRANCH  31  33
ATOM     33  C   UNL     1      -5.390   2.619  25.289  0.00  0.00    +0.201 A 
ATOM     34  C   UNL     1      -5.389   3.033  26.004  0.00  0.00    +0.046 A 
ATOM     35  C   UNL     1      -5.385   3.840  25.830  0.00  0.00    +0.044 A 
ATOM     36  C   UNL     1      -5.382   3.924  25.010  0.00  0.00    +0.180 A 
ATOM     37  O   UNL     1      -5.386   3.171  24.675  0.00  0.00    -0.446 OA
ENDBRANCH  31  33
BRANCH   2   3
ATOM      3  C   UNL     1      -2.204   4.508  25.120  0.00  0.00    +0.184 C 
ATOM      4  O   UNL     1      -2.335   5.306  25.286  0.00  0.00    -0.220 OA
ENDBRANCH   2   3
BRANCH  11  12
ATOM     12  C   UNL     1      -1.450   1.390  24.708  0.00  0.00    +0.091 C 
BRANCH  12  13
ATOM     13  C   UNL     1      -1.372   0.848  25.326  0.00  0.00    +0.226 C 
ATOM     14  O   UNL     1      -1.333   1.116  26.105  0.00  0.00    -0.275 OA
ATOM     15  N   UNL     1      -1.333   0.041  25.165  0.00  0.00    -0.280 N 
ATOM     16  C   UNL     1      -1.254  -0.500  25.782  0.00  0.00    +0.094 C 
ATOM     17  C   UNL     1      -1.215  -1.308  25.620  0.00  0.00    +0.031 C 
ATOM     18  C   UNL     1      -1.254  -1.575  24.841  0.00  0.00    +0.083 C 
ATOM     19  C   UNL     1      -1.332  -1.034  24.223  0.00  0.00    +0.031 C 
ATOM     20  C   UNL     1      -1.371  -0.226  24.384  0.00  0.00    +0.094 C 
BRANCH  18  21
ATOM     21  C   UNL     1      -1.214  -2.383  24.679  0.00  0.00    +0.260 C 
ATOM     22  N   UNL     1      -1.810  -2.745  24.238  0.00  0.00    -0.088 NA
ATOM     23  O   UNL     1      -0.579  -2.830  24.959  0.00  0.00    -0.272 OA
ENDBRANCH  18  21
ENDBRANCH  12  13
ENDBRANCH  11  12
TORSDOF 5
ENDMDL
MODEL 4
REMARK VINA RESULT:     -11.3      1.632      5.109
REMARK  Name = 
REMARK  5 active torsions:
REMARK  status: ('A' for Active; 'I' for Inactive)
REMARK    1  A    between atoms: C_2  and  C_3
REMARK    2  A    between atoms: C_11  and  C_12
REMARK    3  A    between atoms: C_12  and  C_13
REMARK    4  A    between atoms: C_18  and  C_21
REMARK    5  A    between atoms: C_31  and  C_33
REMARK                            x       y       z     vdW  Elec       q    Type
REMARK                         _______ _______ _______ _____ _____    ______ ____
ROOT
ATOM      1  C   UNL     1       0.913   0.922  23.860  0.00  0.00    +0.005 C 
ATOM      2  C   UNL     1       0.135   1.049  24.101  0.00  0.00    +0.059 C 
ATOM      5  C   UNL     1       0.400   1.828  24.060  0.00  0.00    +0.154 C 
ATOM      6  O   UNL     1       1.177   1.989  23.833  0.00  0.00    -0.223 OA
ATOM      7  C   UNL     1      -0.112   2.449  24.246  0.00  0.00    +0.033 C 
ATOM      8  C   UNL     1      -0.888   2.290  24.473  0.00  0.00    +0.003 C 
ATOM      9  C   UNL     1      -1.154   1.510  24.514  0.00  0.00    +0.006 C 
ATOM     10  C   UNL     1      -1.664   2.130  24.699  0.00  0.00    +0.000 C 
ATOM     11  C   UNL     1      -1.931   1.350  24.741  0.00  0.00    +0.050 C 
ATOM     24  C   UNL     1      -2.196   0.571  24.782  0.00  0.00    +0.063 A 
ATOM     25  C   UNL     1      -1.684  -0.050  24.596  0.00  0.00    +0.023 A 
ATOM     26  C   UNL     1      -0.908   0.109  24.369  0.00  0.00    +0.034 C 
ATOM     27  C   UNL     1      -0.642   0.889  24.328  0.00  0.00    +0.010 C 
ATOM     28  S   UNL     1      -2.100  -0.757  24.686  0.00  0.00    -0.054 S 
ATOM     29  C   UNL     1      -2.867  -0.575  24.927  0.00  0.00    +0.186 A 
ATOM     30  N   UNL     1      -3.469  -1.117  25.082  0.00  0.00    -0.148 NA
ATOM     31  C   UNL     1      -3.327  -1.926  24.998  0.00  0.00    +0.305 C 
ATOM     32  O   UNL     1      -3.929  -2.468  25.153  0.00  0.00    -0.265 OA
ATOM     38  N   UNL     1      -2.927   0.246  24.986  0.00  0.00    -0.227 NA
ENDROOT
BRANCH  31  33
ATOM     33  C   UNL     1      -2.584  -2.192  24.760  0.00  0.00    +0.201 A 
ATOM     34  C   UNL     1      -1.962  -2.404  25.260  0.00  0.00    +0.046 A 
ATOM     35  C   UNL     1      -1.325  -2.636  24.788  0.00  0.00    +0.044 A 
ATOM     36  C   UNL     1      -1.554  -2.567  23.999  0.00  0.00    +0.180 A 
ATOM     37  O   UNL     1      -2.331  -2.292  23.981  0.00  0.00    -0.446 OA
ENDBRANCH  31  33
BRANCH   2   3
ATOM      3  C   UNL     1       0.139   0.225  24.058  0.00  0.00    +0.184 C 
ATOM      4  O   UNL     1       0.781  -0.167  23.717  0.00  0.00    -0.220 OA
ENDBRANCH   2   3
BRANCH  11  12
ATOM     12  C   UNL     1      -2.442   1.970  24.926  0.00  0.00    +0.091 C 
BRANCH  12  13
ATOM     13  C   UNL     1      -3.099   2.121  24.450  0.00  0.00    +0.226 C 
ATOM     14  O   UNL     1      -3.096   1.886  23.659  0.00  0.00    -0.275 OA
ATOM     15  N   UNL     1      -3.757   2.506  24.763  0.00  0.00    -0.280 N 
ATOM     16  C   UNL     1      -4.413   2.656  24.287  0.00  0.00    +0.094 C 
ATOM     17  C   UNL     1      -5.071   3.042  24.602  0.00  0.00    +0.031 C 
ATOM     18  C   UNL     1      -5.073   3.276  25.392  0.00  0.00    +0.083 C 
ATOM     19  C   UNL     1      -4.417   3.126  25.869  0.00  0.00    +0.031 C 
ATOM     20  C   UNL     1      -3.759   2.741  25.555  0.00  0.00    +0.094 C 
BRANCH  18  21
ATOM     21  C   UNL     1      -5.732   3.662  25.706  0.00  0.00    +0.260 C 
ATOM     22  N   UNL     1      -6.307   3.231  26.112  0.00  0.00    -0.088 NA
ATOM     23  O   UNL     1      -5.816   4.477  25.614  0.00  0.00    -0.272 OA
ENDBRANCH  18  21
ENDBRANCH  12  13
ENDBRANCH  11  12
TORSDOF 5
ENDMDL
MODEL 5
REMARK VINA RESULT:     -10.7      1.954      4.527
REMARK  Name = 
REMARK  5 active torsions:
REMARK  status: ('A' for Active; 'I' for Inactive)
REMARK    1  A    between atoms: C_2  and  C_3
REMARK    2  A    between atoms: C_11  and  C_12
REMARK    3  A    between atoms: C_12  and  C_13
REMARK    4  A    between atoms: C_18  and  C_21
REMARK    5  A    between atoms: C_31  and  C_33
REMARK                            x       y       z     vdW  Elec       q    Type
REMARK                         _______ _______ _______ _____ _____    ______ ____
ROOT
ATOM      1  C   UNL     1      -3.821  -1.516  25.648  0.00  0.00    +0.005 C 
ATOM      2  C   UNL     1      -3.249  -1.074  25.252  0.00  0.00    +0.059 C 
ATOM      5  C   UNL     1      -2.886  -1.814  25.247  0.00  0.00    +0.154 C 
ATOM      6  O   UNL     1      -3.263  -2.461  25.594  0.00  0.00    -0.223 OA
ATOM      7  C   UNL     1      -2.145  -1.908  24.894  0.00  0.00    +0.033 C 
ATOM      8  C   UNL     1      -1.769  -1.262  24.547  0.00  0.00    +0.003 C 
ATOM      9  C   UNL     1      -2.132  -0.522  24.552  0.00  0.00    +0.006 C 
ATOM     10  C   UNL     1      -1.392  -0.616  24.200  0.00  0.00    +0.000 C 
ATOM     11  C   UNL     1      -1.755   0.125  24.205  0.00  0.00    +0.050 C 
ATOM     24  C   UNL     1      -2.118   0.865  24.210  0.00  0.00    +0.063 A 
ATOM     25  C   UNL     1      -2.859   0.960  24.562  0.00  0.00    +0.023 A 
ATOM     26  C   UNL     1      -3.235   0.313  24.909  0.00  0.00    +0.034 C 
ATOM     27  C   UNL     1      -2.873  -0.428  24.905  0.00  0.00    +0.010 C 
ATOM     28  S   UNL     1      -3.079   1.751  24.483  0.00  0.00    -0.054 S 
ATOM     29  C   UNL     1      -2.476   2.145  24.082  0.00  0.00    +0.186 A 
ATOM     30  N   UNL     1      -2.468   2.946  23.884  0.00  0.00    -0.148 NA
ATOM     31  C   UNL     1      -3.106   3.428  24.091  0.00  0.00    +0.305 C 
ATOM     32  O   UNL     1      -3.098   4.229  23.893  0.00  0.00    -0.265 OA
ATOM     38  N   UNL     1      -1.882   1.598  23.913  0.00  0.00    -0.227 NA
ENDROOT
BRANCH  31  33
ATOM     33  C   UNL     1      -3.750   3.110  24.494  0.00  0.00    +0.201 A 
ATOM     34  C   UNL     1      -3.866   3.124  25.311  0.00  0.00    +0.046 A 
ATOM     35  C   UNL     1      -4.581   2.743  25.473  0.00  0.00    +0.044 A 
ATOM     36  C   UNL     1      -4.905   2.494  24.757  0.00  0.00    +0.180 A 
ATOM     37  O   UNL     1      -4.392   2.720  24.151  0.00  0.00    -0.446 OA
ENDBRANCH  31  33
BRANCH   2   3
ATOM      3  C   UNL     1      -3.811  -0.487  25.394  0.00  0.00    +0.184 C 
ATOM      4  O   UNL     1      -4.498  -0.667  25.814  0.00  0.00    -0.220 OA
ENDBRANCH   2   3
BRANCH  11  12
ATOM     12  C   UNL     1      -1.015   0.031  23.853  0.00  0.00    +0.091 C 
BRANCH  12  13
ATOM     13  C   UNL     1      -0.360   0.434  24.153  0.00  0.00    +0.226 C 
ATOM     14  O   UNL     1      -0.421   0.844  24.866  0.00  0.00    -0.275 OA
ATOM     15  N   UNL     1       0.353   0.427  23.741  0.00  0.00    -0.280 N 
ATOM     16  C   UNL     1       1.008   0.830  24.041  0.00  0.00    +0.094 C 
ATOM     17  C   UNL     1       1.722   0.822  23.628  0.00  0.00    +0.031 C 
ATOM     18  C   UNL     1       1.782   0.412  22.916  0.00  0.00    +0.083 C 
ATOM     19  C   UNL     1       1.128   0.009  22.615  0.00  0.00    +0.031 C 
ATOM     20  C   UNL     1       0.414   0.016  23.027  0.00  0.00    +0.094 C 
BRANCH  18  21
ATOM     21  C   UNL     1       2.496   0.405  22.503  0.00  0.00    +0.260 C 
ATOM     22  N   UNL     1       3.150   0.811  22.802  0.00  0.00    -0.088 NA
ATOM     23  O   UNL     1       2.558  -0.008  21.791  0.00  0.00    -0.272 OA
ENDBRANCH  18  21
ENDBRANCH  12  13
ENDBRANCH  11  12
TORSDOF 5
ENDMDL
