MODEL 1
REMARK VINA RESULT:     -11.0      0.000      0.000
REMARK  Name = 
REMARK  8 active torsions:
REMARK  status: ('A' for Active; 'I' for Inactive)
REMARK    1  A    between atoms: O_2  and  C_3
REMARK    2  A    between atoms: C_6  and  C_7
REMARK    3  A    between atoms: C_7  and  N_8
REMARK    4  A    between atoms: N_8  and  C_9
REMARK    5  A    between atoms: C_15  and  N_18
REMARK    6  A    between atoms: N_18  and  C_20
REMARK    7  A    between atoms: C_20  and  C_21
REMARK    8  A    between atoms: C_21  and  C_22
REMARK                            x       y       z     vdW  Elec       q    Type
REMARK                         _______ _______ _______ _____ _____    ______ ____
ROOT
ATOM      9  C   UNL     1      -4.380   1.577  24.709  0.00  0.00    +0.135 C 
ATOM     10  C   UNL     1      -4.778   2.165  25.308  0.00  0.00    +0.166 C 
ATOM     11  C   UNL     1      -4.606   2.916  25.198  0.00  0.00    +0.176 C 
ATOM     12  O   UNL     1      -4.710   3.594  25.434  0.00  0.00    -0.327 OA
ATOM     13  C   UNL     1      -4.797   2.716  25.414  0.00  0.00    +0.253 C 
ATOM     14  O   UNL     1      -5.215   2.171  25.870  0.00  0.00    -0.328 OA
ATOM     15  C   UNL     1      -4.374   2.113  24.782  0.00  0.00    +0.147 C 
ATOM     16  C   UNL     1      -3.961   2.127  24.253  0.00  0.00    +0.190 C 
ATOM     17  O   UNL     1      -3.467   2.427  23.664  0.00  0.00    -0.220 OA
ENDROOT
BRANCH  15  18
ATOM     18  N   UNL     1      -4.155   2.891  24.616  0.00  0.00    -0.266 NA
ATOM     19  C   UNL     1      -4.669   3.386  24.202  0.00  0.00    +0.090 C 
BRANCH  18  20
ATOM     20  C   UNL     1      -3.421   3.175  24.865  0.00  0.00    +0.079 C 
BRANCH  20  21
ATOM     21  C   UNL     1      -3.091   3.839  24.502  0.00  0.00    +0.063 C 
BRANCH  21  22
ATOM     22  C   UNL     1      -2.346   4.107  24.735  0.00  0.00    +0.060 A 
ATOM     23  N   UNL     1      -1.689   3.613  24.667  0.00  0.00    -0.248 NA
ATOM     24  C   UNL     1      -0.945   3.882  24.899  0.00  0.00    +0.098 A 
ATOM     25  C   UNL     1      -0.857   4.644  25.199  0.00  0.00    +0.021 A 
ATOM     26  C   UNL     1      -1.513   5.139  25.268  0.00  0.00    +0.003 A 
ATOM     27  C   UNL     1      -2.259   4.871  25.036  0.00  0.00    +0.015 A 
ENDBRANCH  21  22
ENDBRANCH  20  21
ENDBRANCH  18  20
ENDBRANCH  15  18
BRANCH   9   8
ATOM      8  N   UNL     1      -4.429   0.754  24.650  0.00  0.00    -0.209 NA
BRANCH   8   7
ATOM      7  C   UNL     1      -3.742   0.305  24.566  0.00  0.00    +0.115 C 
BRANCH   7   6
ATOM      3  C   UNL     1      -3.874  -2.165  24.560  0.00  0.00    +0.139 A 
ATOM      4  C   UNL     1      -3.551  -1.771  25.209  0.00  0.00    +0.037 A 
ATOM      5  C   UNL     1      -3.508  -0.948  25.211  0.00  0.00    +0.000 A 
ATOM      6  C   UNL     1      -3.786  -0.518  24.564  0.00  0.00    -0.005 A 
ATOM     28  C   UNL     1      -4.108  -0.913  23.915  0.00  0.00    +0.000 A 
ATOM     29  C   UNL     1      -4.152  -1.737  23.913  0.00  0.00    +0.037 A 
BRANCH   3   2
ATOM      1  C   UNL     1      -3.235  -3.439  24.439  0.00  0.00    +0.252 C 
ATOM      2  O   UNL     1      -3.917  -2.990  24.559  0.00  0.00    -0.471 OA
ENDBRANCH   3   2
ENDBRANCH   7   6
ENDBRANCH   8   7
ENDBRANCH   9   8
TORSDOF 8
ENDMDL
MODEL 2
REMARK VINA RESULT:     -10.5      2.408      5.918
REMARK  Name = 
REMARK  8 active torsions:
REMARK  status: ('A' for Active; 'I' for Inactive)
REMARK    1  A    between atoms: O_2  and  C_3
REMARK    2  A    between atoms: C_6  and  C_7
REMARK    3  A    between atoms: C_7  and  N_8
REMARK    4  A    between atoms: N_8  and  C_9
REMARK    5  A    between atoms: C_15  and  N_18
REMARK    6  A    between atoms: N_18  and  C_20
REMARK    7  A    between atoms: C_20  and  C_21
REMARK    8  A    between atoms: C_21  and  C_22
REMARK                            x       y       z     vdW  Elec       q    Type
REMARK                         _______ _______ _______ _____ _____    ______ ____
ROOT
ATOM      9  C   UNL     1      -0.820   0.591  24.950  0.00  0.00    +0.135 C 
ATOM     10  C   UNL     1      -0.412  -0.020  24.381  0.00  0.00    +0.166 C 
ATOM     11  C   UNL     1      -0.642  -0.758  24.467  0.00  0.00    +0.176 C 
ATOM     12  O   UNL     1      -0.563  -1.441  24.235  0.00  0.00    -0.327 OA
ATOM     13  C   UNL     1      -0.420  -0.571  24.271  0.00  0.00    +0.253 C 
ATOM     14  O   UNL     1       0.071  -0.052  23.859  0.00  0.00    -0.328 OA
ATOM     15  C   UNL     1      -0.855   0.056  24.871  0.00  0.00    +0.147 C 
ATOM     16  C   UNL     1      -1.313   0.068  25.362  0.00  0.00    +0.190 C 
ATOM     17  O   UNL     1      -1.874  -0.202  25.903  0.00  0.00    -0.220 OA
ENDROOT
BRANCH  15  18
ATOM     18  N   UNL     1      -1.139  -0.706  25.009  0.00  0.00    -0.266 NA
ATOM     19  C   UNL     1      -0.716  -1.223  25.494  0.00  0.00    +0.090 C 
BRANCH  18  20
ATOM     20  C   UNL     1      -1.846  -0.952  24.662  0.00  0.00    +0.079 C 
BRANCH  20  21
ATOM     21  C   UNL     1      -2.291  -1.551  25.013  0.00  0.00    +0.063 C 
BRANCH  21  22
ATOM     22  C   UNL     1      -2.975  -1.827  24.644  0.00  0.00    +0.060 A 
ATOM     23  N   UNL     1      -3.543  -1.293  24.373  0.00  0.00    -0.248 NA
ATOM     24  C   UNL     1      -4.227  -1.568  24.004  0.00  0.00    +0.098 A 
ATOM     25  C   UNL     1      -4.343  -2.378  23.904  0.00  0.00    +0.021 A 
ATOM     26  C   UNL     1      -3.776  -2.913  24.173  0.00  0.00    +0.003 A 
ATOM     27  C   UNL     1      -3.092  -2.638  24.543  0.00  0.00    +0.015 A 
ENDBRANCH  21  22
ENDBRANCH  20  21
ENDBRANCH  18  20
ENDBRANCH  15  18
BRANCH   9   8
ATOM      8  N   UNL     1      -0.722   1.408  25.022  0.00  0.00    -0.209 NA
BRANCH   8   7
ATOM      7  C   UNL     1      -1.352   1.915  24.858  0.00  0.00    +0.115 C 
BRANCH   7   6
ATOM      3  C   UNL     1      -1.055   4.363  25.066  0.00  0.00    +0.139 A 
ATOM      4  C   UNL     1      -0.555   3.927  24.576  0.00  0.00    +0.037 A 
ATOM      5  C   UNL     1      -0.654   3.111  24.507  0.00  0.00    +0.000 A 
ATOM      6  C   UNL     1      -1.253   2.731  24.927  0.00  0.00    -0.005 A 
ATOM     28  C   UNL     1      -1.753   3.167  25.417  0.00  0.00    +0.000 A 
ATOM     29  C   UNL     1      -1.655   3.983  25.487  0.00  0.00    +0.037 A 
BRANCH   3   2
ATOM      1  C   UNL     1      -1.610   5.680  25.083  0.00  0.00    +0.252 C 
ATOM      2  O   UNL     1      -0.956   5.180  25.135  0.00  0.00    -0.471 OA
ENDBRANCH   3   2
ENDBRANCH   7   6
ENDBRANCH   8   7
ENDBRANCH   9   8
TORSDOF 8
ENDMDL
MODEL 3
REMARK VINA RESULT:     -10.0      2.196      3.105
REMARK  Name = 
REMARK  8 active torsions:
REMARK  status: ('A' for Active; 'I' for Inactive)
REMARK    1  A    between atoms: O_2  and  C_3
REMARK    2  A    between atoms: C_6  and  C_7
REMARK    3  A    between atoms: C_7  and  N_8
REMARK    4  A    between atoms: N_8  and  C_9
REMARK    5  A    between atoms: C_15  and  N_18
REMARK    6  A    between atoms: N_18  and  C_20
REMARK    7  A    between atoms: C_20  and  C_21
REMARK    8  A    between atoms: C_21  and  C_22
REMARK                            x       y       z     vdW  Elec       q    Type
REMARK                         _______ _______ _______ _____ _____    ______ ____
ROOT
ATOM      9  C   UNL     1      -0.956   0.575  24.795  0.00  0.00    +0.135 C 
ATOM     10  C   UNL     1      -0.414   0.960  24.146  0.00  0.00    +0.166 C 
ATOM     11  C   UNL     1      -0.106   1.648  24.338  0.00  0.00    +0.176 C 
ATOM     12  O   UNL     1       0.319   2.195  24.121  0.00  0.00    -0.327 OA
ATOM     13  C   UNL     1      -0.106   1.423  24.069  0.00  0.00    +0.253 C 
ATOM     14  O   UNL     1      -0.164   0.837  23.491  0.00  0.00    -0.328 OA
ATOM     15  C   UNL     1      -0.670   1.033  24.756  0.00  0.00    +0.147 C 
ATOM     16  C   UNL     1      -0.896   1.164  25.374  0.00  0.00    +0.190 C 
ATOM     17  O   UNL     1      -1.013   1.563  26.087  0.00  0.00    -0.220 OA
ENDROOT
BRANCH  15  18
ATOM     18  N   UNL     1      -0.374   1.758  25.015  0.00  0.00    -0.266 NA
ATOM     19  C   UNL     1       0.397   1.809  25.306  0.00  0.00    +0.090 C 
BRANCH  18  20
ATOM     20  C   UNL     1      -0.848   2.432  24.983  0.00  0.00    +0.079 C 
BRANCH  20  21
ATOM     21  C   UNL     1      -0.642   3.103  25.417  0.00  0.00    +0.063 C 
BRANCH  21  22
ATOM     22  C   UNL     1      -1.103   3.785  25.367  0.00  0.00    +0.060 A 
ATOM     23  N   UNL     1      -1.881   3.777  25.642  0.00  0.00    -0.248 NA
ATOM     24  C   UNL     1      -2.343   4.459  25.592  0.00  0.00    +0.098 A 
ATOM     25  C   UNL     1      -2.028   5.147  25.267  0.00  0.00    +0.021 A 
ATOM     26  C   UNL     1      -1.250   5.155  24.992  0.00  0.00    +0.003 A 
ATOM     27  C   UNL     1      -0.788   4.474  25.042  0.00  0.00    +0.015 A 
ENDBRANCH  21  22
ENDBRANCH  20  21
ENDBRANCH  18  20
ENDBRANCH  15  18
BRANCH   9   8
ATOM      8  N   UNL     1      -1.372  -0.139  24.794  0.00  0.00    -0.209 NA
BRANCH   8   7
ATOM      7  C   UNL     1      -2.156  -0.159  25.051  0.00  0.00    +0.115 C 
BRANCH   7   6
ATOM      3  C   UNL     1      -3.556  -2.147  24.589  0.00  0.00    +0.139 A 
ATOM      4  C   UNL     1      -3.835  -1.393  24.402  0.00  0.00    +0.037 A 
ATOM      5  C   UNL     1      -3.368  -0.731  24.556  0.00  0.00    +0.000 A 
ATOM      6  C   UNL     1      -2.623  -0.821  24.897  0.00  0.00    -0.005 A 
ATOM     28  C   UNL     1      -2.344  -1.575  25.084  0.00  0.00    +0.000 A 
ATOM     29  C   UNL     1      -2.810  -2.238  24.930  0.00  0.00    +0.037 A 
BRANCH   3   2
ATOM      1  C   UNL     1      -4.315  -2.941  23.674  0.00  0.00    +0.252 C 
ATOM      2  O   UNL     1      -4.023  -2.810  24.435  0.00  0.00    -0.471 OA
ENDBRANCH   3   2
ENDBRANCH   7   6
ENDBRANCH   8   7
ENDBRANCH   9   8
TORSDOF 8
ENDMDL
MODEL 4
REMARK VINA RESULT:      -9.8      1.191      4.856
REMARK  Name = 
REMARK  8 active torsions:
REMARK  status: ('A' for Active; 'I' for Inactive)
REMARK    1  A    between atoms: O_2  and  C_3
REMARK    2  A    between atoms: C_6  and  C_7
REMARK    3  A    between atoms: C_7  and  N_8
REMARK    4  A    between atoms: N_8  and  C_9
REMARK    5  A    between atoms: C_15  and  N_18
REMARK    6  A    between atoms: N_18  and  C_20
REMARK    7  A    between atoms: C_20  and  C_21
REMARK    8  A    between atoms: C_21  and  C_22
REMARK                            x       y       z     vdW  Elec       q    Type
REMARK                         _______ _______ _______ _____ _____    ______ ____
ROOT
ATOM      9  C   UNL     1      -4.237   2.721  25.111  0.00  0.00    +0.135 C 
ATOM     10  C   UNL     1      -4.997   2.502  25.598  0.00  0.00    +0.166 C 
ATOM     11  C   UNL     1      -5.335   1.830  25.400  0.00  0.00    +0.176 C 
ATOM     12  O   UNL     1      -5.882   1.373  25.534  0.00  0.00    -0.327 OA
ATOM     13  C   UNL     1      -5.381   2.092  25.628  0.00  0.00    +0.253 C 
ATOM     14  O   UNL     1      -5.407   2.750  26.125  0.00  0.00    -0.328 OA
ATOM     15  C   UNL     1      -4.588   2.308  25.110  0.00  0.00    +0.147 C 
ATOM     16  C   UNL     1      -4.213   2.060  24.612  0.00  0.00    +0.190 C 
ATOM     17  O   UNL     1      -3.954   1.546  24.021  0.00  0.00    -0.220 OA
ENDROOT
BRANCH  15  18
ATOM     18  N   UNL     1      -4.901   1.589  24.856  0.00  0.00    -0.266 NA
ATOM     19  C   UNL     1      -5.613   1.572  24.439  0.00  0.00    +0.090 C 
BRANCH  18  20
ATOM     20  C   UNL     1      -4.502   0.885  25.018  0.00  0.00    +0.079 C 
BRANCH  20  21
ATOM     21  C   UNL     1      -4.764   0.176  24.686  0.00  0.00    +0.063 C 
BRANCH  21  22
ATOM     22  C   UNL     1      -4.328  -0.515  24.795  0.00  0.00    +0.060 A 
ATOM     23  N   UNL     1      -3.951  -0.657  25.515  0.00  0.00    -0.248 NA
ATOM     24  C   UNL     1      -3.515  -1.349  25.624  0.00  0.00    +0.098 A 
ATOM     25  C   UNL     1      -3.455  -1.898  25.012  0.00  0.00    +0.021 A 
ATOM     26  C   UNL     1      -3.831  -1.757  24.292  0.00  0.00    +0.003 A 
ATOM     27  C   UNL     1      -4.268  -1.066  24.183  0.00  0.00    +0.015 A 
ENDBRANCH  21  22
ENDBRANCH  20  21
ENDBRANCH  18  20
ENDBRANCH  15  18
BRANCH   9   8
ATOM      8  N   UNL     1      -3.737   3.377  25.160  0.00  0.00    -0.209 NA
BRANCH   8   7
ATOM      7  C   UNL     1      -3.061   3.345  25.631  0.00  0.00    +0.115 C 
BRANCH   7   6
ATOM      3  C   UNL     1      -1.128   4.803  25.121  0.00  0.00    +0.139 A 
ATOM      4  C   UNL     1      -1.017   3.992  25.227  0.00  0.00    +0.037 A 
ATOM      5  C   UNL     1      -1.661   3.507  25.397  0.00  0.00    +0.000 A 
ATOM      6  C   UNL     1      -2.417   3.831  25.461  0.00  0.00    -0.005 A 
ATOM     28  C   UNL     1      -2.528   4.641  25.355  0.00  0.00    +0.000 A 
ATOM     29  C   UNL     1      -1.884   5.128  25.185  0.00  0.00    +0.037 A 
BRANCH   3   2
ATOM      1  C   UNL     1      -0.145   5.277  24.198  0.00  0.00    +0.252 C 
ATOM      2  O   UNL     1      -0.483   5.289  24.951  0.00  0.00    -0.471 OA
ENDBRANCH   3   2
ENDBRANCH   7   6
ENDBRANCH   8   7
ENDBRANCH   9   8
TORSDOF 8
ENDMDL
MODEL 5
REMARK VINA RESULT:      -9.2      2.599      4.039
REMARK  Name = 
REMARK  8 active torsions:
REMARK  status: ('A' for Active; 'I' for Inactive)
REMARK    1  A    between atoms: O_2  and  C_3
REMARK    2  A    between atoms: C_6  and  C_7
REMARK    3  A    between atoms: C_7  and  N_8
REMARK    4  A    between atoms: N_8  and  C_9
REMARK    5  A    between atoms: C_15  and  N_18
REMARK    6  A    between atoms: N_18  and  C_20
REMARK    7  A    between atoms: C_20  and  C_21
REMARK    8  A    between atoms: C_21  and  C_22
REMARK                            x       y       z     vdW  Elec       q    Type
REMARK                         _______ _______ _______ _____ _____    ______ ____
ROOT
ATOM      9  C   UNL     1      -2.492  -0.311  24.541  0.00  0.00    +0.135 C 
ATOM     10  C   UNL     1      -2.944  -0.646  25.280  0.00  0.00    +0.166 C 
ATOM     11  C   UNL     1      -3.699  -0.460  25.319  0.00  0.00    +0.176 C 
ATOM     12  O   UNL     1      -4.313  -0.526  25.700  0.00  0.00    -0.327 OA
ATOM     13  C   UNL     1      -3.460  -0.641  25.502  0.00  0.00    +0.253 C 
ATOM     14  O   UNL     1      -2.835  -1.041  25.862  0.00  0.00    -0.328 OA
ATOM     15  C   UNL     1      -3.001  -0.283  24.725  0.00  0.00    +0.147 C 
ATOM     16  C   UNL     1      -3.121   0.090  24.181  0.00  0.00    +0.190 C 
ATOM     17  O   UNL     1      -3.534   0.549  23.632  0.00  0.00    -0.220 OA
ENDROOT
BRANCH  15  18
ATOM     18  N   UNL     1      -3.793  -0.054  24.712  0.00  0.00    -0.266 NA
ATOM     19  C   UNL     1      -4.368  -0.571  24.425  0.00  0.00    +0.090 C 
BRANCH  18  20
ATOM     20  C   UNL     1      -4.011   0.694  24.985  0.00  0.00    +0.079 C 
BRANCH  20  21
ATOM     21  C   UNL     1      -4.726   1.028  24.747  0.00  0.00    +0.063 C 
BRANCH  21  22
ATOM     22  C   UNL     1      -4.953   1.766  25.037  0.00  0.00    +0.060 A 
ATOM     23  N   UNL     1      -4.495   2.433  24.874  0.00  0.00    -0.248 NA
ATOM     24  C   UNL     1      -4.722   3.171  25.164  0.00  0.00    +0.098 A 
ATOM     25  C   UNL     1      -5.406   3.242  25.618  0.00  0.00    +0.021 A 
ATOM     26  C   UNL     1      -5.864   2.576  25.782  0.00  0.00    +0.003 A 
ATOM     27  C   UNL     1      -5.638   1.838  25.492  0.00  0.00    +0.015 A 
ENDBRANCH  21  22
ENDBRANCH  20  21
ENDBRANCH  18  20
ENDBRANCH  15  18
BRANCH   9   8
ATOM      8  N   UNL     1      -1.702  -0.389  24.312  0.00  0.00    -0.209 NA
BRANCH   8   7
ATOM      7  C   UNL     1      -1.173   0.231  24.441  0.00  0.00    +0.115 C 
BRANCH   7   6
ATOM      3  C   UNL     1       1.035   0.221  23.324  0.00  0.00    +0.139 A 
ATOM      4  C   UNL     1       0.677   0.937  23.523  0.00  0.00    +0.037 A 
ATOM      5  C   UNL     1      -0.059   0.940  23.895  0.00  0.00    +0.000 A 
ATOM      6  C   UNL     1      -0.437   0.228  24.069  0.00  0.00    -0.005 A 
ATOM     28  C   UNL     1      -0.078  -0.488  23.869  0.00  0.00    +0.000 A 
ATOM     29  C   UNL     1       0.658  -0.492  23.497  0.00  0.00    +0.037 A 
BRANCH   3   2
ATOM      1  C   UNL     1       1.857  -0.131  22.209  0.00  0.00    +0.252 C 
ATOM      2  O   UNL     1       1.772   0.219  22.951  0.00  0.00    -0.471 OA
ENDBRANCH   3   2
ENDBRANCH   7   6
ENDBRANCH   8   7
ENDBRANCH   9   8
TORSDOF 8
ENDMDL
MODEL 6
REMARK VINA RESULT:      -9.0      2.489      3.833
REMARK  Name = 
REMARK  8 active torsions:
REMARK  status: ('A' for Active; 'I' for Inactive)
REMARK    1  A    between atoms: O_2  and  C_3
REMARK    2  A    between atoms: C_6  and  C_7
REMARK    3  A    between atoms: C_7  and  N_8
REMARK    4  A    between atoms: N_8  and  C_9
REMARK    5  A    between atoms: C_15  and  N_18
REMARK    6  A    between atoms: N_18  and  C_20
REMARK    7  A    between atoms: C_20  and  C_21
REMARK    8  A    between atoms: C_21  and  C_22
REMARK                            x       y       z     vdW  Elec       q    Type
REMARK                         _______ _______ _______ _____ _____    ______ ____
ROOT
ATOM      9  C   UNL     1      -1.611   2.745  24.783  0.00  0.00    +0.135 C 
ATOM     10  C   UNL     1      -1.723   3.238  25.563  0.00  0.00    +0.166 C 
ATOM     11  C   UNL     1      -2.403   3.611  25.624  0.00  0.00    +0.176 C 
ATOM     12  O   UNL     1      -2.813   4.045  26.036  0.00  0.00    -0.327 OA
ATOM     13  C   UNL     1      -2.108   3.566  25.807  0.00  0.00    +0.253 C 
ATOM     14  O   UNL     1      -1.382   3.405  26.165  0.00  0.00    -0.328 OA
ATOM     15  C   UNL     1      -2.005   3.056  24.988  0.00  0.00    +0.147 C 
ATOM     16  C   UNL     1      -2.341   2.909  24.426  0.00  0.00    +0.190 C 
ATOM     17  O   UNL     1      -2.948   2.899  23.867  0.00  0.00    -0.220 OA
ENDROOT
BRANCH  15  18
ATOM     18  N   UNL     1      -2.741   3.427  24.995  0.00  0.00    -0.266 NA
ATOM     19  C   UNL     1      -2.804   4.224  24.790  0.00  0.00    +0.090 C 
BRANCH  18  20
ATOM     20  C   UNL     1      -3.416   3.002  25.209  0.00  0.00    +0.079 C 
BRANCH  20  21
ATOM     21  C   UNL     1      -4.162   3.269  24.978  0.00  0.00    +0.063 C 
BRANCH  21  22
ATOM     22  C   UNL     1      -4.835   2.839  25.186  0.00  0.00    +0.060 A 
ATOM     23  N   UNL     1      -5.194   2.963  25.918  0.00  0.00    -0.248 NA
ATOM     24  C   UNL     1      -5.867   2.534  26.126  0.00  0.00    +0.098 A 
ATOM     25  C   UNL     1      -6.181   1.981  25.601  0.00  0.00    +0.021 A 
ATOM     26  C   UNL     1      -5.822   1.857  24.869  0.00  0.00    +0.003 A 
ATOM     27  C   UNL     1      -5.149   2.286  24.661  0.00  0.00    +0.015 A 
ENDBRANCH  21  22
ENDBRANCH  20  21
ENDBRANCH  18  20
ENDBRANCH  15  18
BRANCH   9   8
ATOM      8  N   UNL     1      -0.976   2.284  24.524  0.00  0.00    -0.209 NA
BRANCH   8   7
ATOM      7  C   UNL     1      -1.022   1.461  24.562  0.00  0.00    +0.115 C 
BRANCH   7   6
ATOM      3  C   UNL     1       0.682   0.074  23.424  0.00  0.00    +0.139 A 
ATOM      4  C   UNL     1       0.805   0.885  23.518  0.00  0.00    +0.037 A 
ATOM      5  C   UNL     1       0.237   1.347  23.897  0.00  0.00    +0.000 A 
ATOM      6  C   UNL     1      -0.454   0.999  24.183  0.00  0.00    -0.005 A 
ATOM     28  C   UNL     1      -0.578   0.189  24.088  0.00  0.00    +0.000 A 
ATOM     29  C   UNL     1      -0.010  -0.274  23.709  0.00  0.00    +0.037 A 
BRANCH   3   2
ATOM      1  C   UNL     1       1.830  -0.030  22.580  0.00  0.00    +0.252 C 
ATOM      2  O   UNL     1       1.250  -0.388  23.044  0.00  0.00    -0.471 OA
ENDBRANCH   3   2
ENDBRANCH   7   6
ENDBRANCH   8   7
ENDBRANCH   9   8
TORSDOF 8
ENDMDL
