MODEL 1
REMARK VINA RESULT:     -12.9      0.000      0.000
REMARK  Name = 
REMARK  5 active torsions:
REMARK  status: ('A' for Active; 'I' for Inactive)
REMARK    1  A    between atoms: C_2  and  C_5
REMARK    2  A    between atoms: C_8  and  C_9
REMARK    3  A    between atoms: C_9  and  N_10
REMARK    4  A    between atoms: C_13  and  C_15
REMARK    5  A    between atoms: C_21  and  C_24
REMARK                            x       y       z     vdW  Elec       q    Type
REMARK                         _______ _______ _______ _____ _____    ______ ____
ROOT
ATOM     10  N   UNL     1      -4.322   2.770  25.317  0.00  0.00    -0.269 NA
ATOM     11  C   UNL     1      -4.989   2.662  24.844  0.00  0.00    +0.073 C 
ATOM     12  C   UNL     1      -4.986   1.883  24.573  0.00  0.00    +0.026 C 
ATOM     13  C   UNL     1      -4.317   1.509  24.879  0.00  0.00    +0.076 C 
ATOM     14  C   UNL     1      -3.907   2.057  25.339  0.00  0.00    +0.080 C 
ENDROOT
BRANCH  13  15
ATOM     15  C   UNL     1      -4.097   0.725  24.748  0.00  0.00    +0.140 A 
ATOM     16  N   UNL     1      -4.582   0.128  24.450  0.00  0.00    -0.229 NA
ATOM     17  C   UNL     1      -4.138  -0.565  24.410  0.00  0.00    +0.100 A 
ATOM     18  C   UNL     1      -3.378  -0.398  24.683  0.00  0.00    +0.101 A 
ATOM     19  N   UNL     1      -3.352   0.399  24.892  0.00  0.00    -0.229 NA
ATOM     20  C   UNL     1      -2.808  -0.994  24.706  0.00  0.00    +0.031 A 
ATOM     21  C   UNL     1      -2.997  -1.756  24.456  0.00  0.00    +0.070 A 
ATOM     22  C   UNL     1      -3.757  -1.924  24.183  0.00  0.00    +0.012 A 
ATOM     23  C   UNL     1      -4.328  -1.329  24.159  0.00  0.00    +0.021 A 
BRANCH  21  24
ATOM     24  C   UNL     1      -2.427  -2.351  24.480  0.00  0.00    +0.100 C 
ATOM     25  N   UNL     1      -1.856  -2.947  24.503  0.00  0.00    -0.191 NA
ENDBRANCH  21  24
ENDBRANCH  13  15
BRANCH  10   9
ATOM      9  C   UNL     1      -4.108   3.468  25.701  0.00  0.00    +0.099 C 
BRANCH   9   8
ATOM      5  C   UNL     1      -1.919   4.521  25.227  0.00  0.00    +0.071 A 
ATOM      6  C   UNL     1      -2.050   4.151  25.953  0.00  0.00    +0.004 A 
ATOM      7  C   UNL     1      -2.780   3.800  26.111  0.00  0.00    -0.003 A 
ATOM      8  C   UNL     1      -3.378   3.819  25.543  0.00  0.00    -0.006 A 
ATOM     26  C   UNL     1      -3.247   4.189  24.818  0.00  0.00    -0.003 A 
ATOM     27  C   UNL     1      -2.517   4.540  24.660  0.00  0.00    +0.004 A 
BRANCH   5   2
ATOM      1  F   UNL     1      -0.459   5.222  24.911  0.00  0.00    -0.166 F 
ATOM      2  C   UNL     1      -1.189   4.872  25.069  0.00  0.00    +0.419 C 
ATOM      3  F   UNL     1      -0.920   4.164  24.741  0.00  0.00    -0.166 F 
ATOM      4  F   UNL     1      -1.458   5.579  25.397  0.00  0.00    -0.166 F 
ENDBRANCH   5   2
ENDBRANCH   9   8
ENDBRANCH  10   9
TORSDOF 5
ENDMDL
MODEL 2
REMARK VINA RESULT:     -12.3      3.249      6.087
REMARK  Name = 
REMARK  5 active torsions:
REMARK  status: ('A' for Active; 'I' for Inactive)
REMARK    1  A    between atoms: C_2  and  C_5
REMARK    2  A    between atoms: C_8  and  C_9
REMARK    3  A    between atoms: C_9  and  N_10
REMARK    4  A    between atoms: C_13  and  C_15
REMARK    5  A    between atoms: C_21  and  C_24
REMARK                            x       y       z     vdW  Elec       q    Type
REMARK                         _______ _______ _______ _____ _____    ______ ____
ROOT
ATOM     10  N   UNL     1      -1.262  -0.517  25.276  0.00  0.00    -0.269 NA
ATOM     11  C   UNL     1      -0.596  -0.560  24.791  0.00  0.00    +0.073 C 
ATOM     12  C   UNL     1      -0.370   0.211  24.600  0.00  0.00    +0.026 C 
ATOM     13  C   UNL     1      -0.897   0.729  24.967  0.00  0.00    +0.076 C 
ATOM     14  C   UNL     1      -1.448   0.279  25.384  0.00  0.00    +0.080 C 
ENDROOT
BRANCH  13  15
ATOM     15  C   UNL     1      -0.876   1.553  24.924  0.00  0.00    +0.140 A 
ATOM     16  N   UNL     1      -0.283   2.005  24.572  0.00  0.00    -0.229 NA
ATOM     17  C   UNL     1      -0.485   2.800  24.656  0.00  0.00    +0.100 A 
ATOM     18  C   UNL     1      -1.203   2.840  25.060  0.00  0.00    +0.101 A 
ATOM     19  N   UNL     1      -1.445   2.069  25.226  0.00  0.00    -0.229 NA
ATOM     20  C   UNL     1      -1.544   3.573  25.225  0.00  0.00    +0.031 A 
ATOM     21  C   UNL     1      -1.167   4.266  24.986  0.00  0.00    +0.070 A 
ATOM     22  C   UNL     1      -0.449   4.227  24.581  0.00  0.00    +0.012 A 
ATOM     23  C   UNL     1      -0.108   3.494  24.416  0.00  0.00    +0.021 A 
BRANCH  21  24
ATOM     24  C   UNL     1      -1.508   4.999  25.150  0.00  0.00    +0.100 C 
ATOM     25  N   UNL     1      -1.849   5.732  25.315  0.00  0.00    -0.191 NA
ENDBRANCH  21  24
ENDBRANCH  13  15
BRANCH  10   9
ATOM      9  C   UNL     1      -1.671  -1.158  25.595  0.00  0.00    +0.099 C 
BRANCH   9   8
ATOM      5  C   UNL     1      -3.565  -2.161  24.358  0.00  0.00    +0.071 A 
ATOM      6  C   UNL     1      -2.801  -2.451  24.248  0.00  0.00    +0.004 A 
ATOM      7  C   UNL     1      -2.169  -2.117  24.660  0.00  0.00    -0.003 A 
ATOM      8  C   UNL     1      -2.302  -1.492  25.183  0.00  0.00    -0.006 A 
ATOM     26  C   UNL     1      -3.066  -1.202  25.293  0.00  0.00    -0.003 A 
ATOM     27  C   UNL     1      -3.698  -1.537  24.880  0.00  0.00    +0.004 A 
BRANCH   5   2
ATOM      1  F   UNL     1      -4.828  -2.830  23.532  0.00  0.00    -0.166 F 
ATOM      2  C   UNL     1      -4.196  -2.496  23.945  0.00  0.00    +0.419 C 
ATOM      3  F   UNL     1      -4.350  -1.767  23.589  0.00  0.00    -0.166 F 
ATOM      4  F   UNL     1      -4.043  -3.224  24.300  0.00  0.00    -0.166 F 
ENDBRANCH   5   2
ENDBRANCH   9   8
ENDBRANCH  10   9
TORSDOF 5
ENDMDL
MODEL 3
REMARK VINA RESULT:     -12.3      2.621      5.417
REMARK  Name = 
REMARK  5 active torsions:
REMARK  status: ('A' for Active; 'I' for Inactive)
REMARK    1  A    between atoms: C_2  and  C_5
REMARK    2  A    between atoms: C_8  and  C_9
REMARK    3  A    between atoms: C_9  and  N_10
REMARK    4  A    between atoms: C_13  and  C_15
REMARK    5  A    between atoms: C_21  and  C_24
REMARK                            x       y       z     vdW  Elec       q    Type
REMARK                         _______ _______ _______ _____ _____    ______ ____
ROOT
ATOM     10  N   UNL     1      -4.535   0.631  25.062  0.00  0.00    -0.269 NA
ATOM     11  C   UNL     1      -5.003   1.064  24.538  0.00  0.00    +0.073 C 
ATOM     12  C   UNL     1      -4.680   1.821  24.475  0.00  0.00    +0.026 C 
ATOM     13  C   UNL     1      -4.013   1.856  24.960  0.00  0.00    +0.076 C 
ATOM     14  C   UNL     1      -3.924   1.120  25.323  0.00  0.00    +0.080 C 
ENDROOT
BRANCH  13  15
ATOM     15  C   UNL     1      -3.523   2.511  25.063  0.00  0.00    +0.140 A 
ATOM     16  N   UNL     1      -3.650   3.134  25.588  0.00  0.00    -0.229 NA
ATOM     17  C   UNL     1      -3.025   3.666  25.509  0.00  0.00    +0.100 A 
ATOM     18  C   UNL     1      -2.511   3.371  24.935  0.00  0.00    +0.101 A 
ATOM     19  N   UNL     1      -2.818   2.658  24.660  0.00  0.00    -0.229 NA
ATOM     20  C   UNL     1      -1.829   3.792  24.739  0.00  0.00    +0.031 A 
ATOM     21  C   UNL     1      -1.661   4.506  25.115  0.00  0.00    +0.070 A 
ATOM     22  C   UNL     1      -2.176   4.801  25.689  0.00  0.00    +0.012 A 
ATOM     23  C   UNL     1      -2.858   4.381  25.887  0.00  0.00    +0.021 A 
BRANCH  21  24
ATOM     24  C   UNL     1      -0.980   4.926  24.918  0.00  0.00    +0.100 C 
ATOM     25  N   UNL     1      -0.297   5.347  24.721  0.00  0.00    -0.191 NA
ENDBRANCH  21  24
ENDBRANCH  13  15
BRANCH  10   9
ATOM      9  C   UNL     1      -4.657  -0.153  25.286  0.00  0.00    +0.099 C 
BRANCH   9   8
ATOM      5  C   UNL     1      -3.063  -1.907  24.572  0.00  0.00    +0.071 A 
ATOM      6  C   UNL     1      -3.002  -1.577  25.325  0.00  0.00    +0.004 A 
ATOM      7  C   UNL     1      -3.534  -0.992  25.564  0.00  0.00    -0.003 A 
ATOM      8  C   UNL     1      -4.126  -0.738  25.048  0.00  0.00    -0.006 A 
ATOM     26  C   UNL     1      -4.186  -1.068  24.294  0.00  0.00    -0.003 A 
ATOM     27  C   UNL     1      -3.655  -1.653  24.057  0.00  0.00    +0.004 A 
BRANCH   5   2
ATOM      1  F   UNL     1      -2.001  -3.077  24.097  0.00  0.00    -0.166 F 
ATOM      2  C   UNL     1      -2.532  -2.492  24.334  0.00  0.00    +0.419 C 
ATOM      3  F   UNL     1      -3.122  -3.063  24.418  0.00  0.00    -0.166 F 
ATOM      4  F   UNL     1      -1.942  -1.922  24.251  0.00  0.00    -0.166 F 
ENDBRANCH   5   2
ENDBRANCH   9   8
ENDBRANCH  10   9
TORSDOF 5
ENDMDL
MODEL 4
REMARK VINA RESULT:     -12.2      1.940      2.674
REMARK  Name = 
REMARK  5 active torsions:
REMARK  status: ('A' for Active; 'I' for Inactive)
REMARK    1  A    between atoms: C_2  and  C_5
REMARK    2  A    between atoms: C_8  and  C_9
REMARK    3  A    between atoms: C_9  and  N_10
REMARK    4  A    between atoms: C_13  and  C_15
REMARK    5  A    between atoms: C_21  and  C_24
REMARK                            x       y       z     vdW  Elec       q    Type
REMARK                         _______ _______ _______ _____ _____    ______ ____
ROOT
ATOM     10  N   UNL     1      -0.338   1.683  25.344  0.00  0.00    -0.269 NA
ATOM     11  C   UNL     1       0.108   1.474  24.682  0.00  0.00    +0.073 C 
ATOM     12  C   UNL     1      -0.196   0.768  24.383  0.00  0.00    +0.026 C 
ATOM     13  C   UNL     1      -0.831   0.541  24.860  0.00  0.00    +0.076 C 
ATOM     14  C   UNL     1      -0.918   1.107  25.453  0.00  0.00    +0.080 C 
ENDROOT
BRANCH  13  15
ATOM     15  C   UNL     1      -1.296  -0.133  24.760  0.00  0.00    +0.140 A 
ATOM     16  N   UNL     1      -1.054  -0.912  24.882  0.00  0.00    -0.229 NA
ATOM     17  C   UNL     1      -1.693  -1.406  24.718  0.00  0.00    +0.100 A 
ATOM     18  C   UNL     1      -2.331  -0.933  24.494  0.00  0.00    +0.101 A 
ATOM     19  N   UNL     1      -2.086  -0.146  24.520  0.00  0.00    -0.229 NA
ATOM     20  C   UNL     1      -3.052  -1.281  24.296  0.00  0.00    +0.031 A 
ATOM     21  C   UNL     1      -3.136  -2.101  24.321  0.00  0.00    +0.070 A 
ATOM     22  C   UNL     1      -2.498  -2.574  24.544  0.00  0.00    +0.012 A 
ATOM     23  C   UNL     1      -1.777  -2.227  24.743  0.00  0.00    +0.021 A 
BRANCH  21  24
ATOM     24  C   UNL     1      -3.857  -2.448  24.123  0.00  0.00    +0.100 C 
ATOM     25  N   UNL     1      -4.579  -2.796  23.924  0.00  0.00    -0.191 NA
ENDBRANCH  21  24
ENDBRANCH  13  15
BRANCH  10   9
ATOM      9  C   UNL     1      -0.224   2.351  25.814  0.00  0.00    +0.099 C 
BRANCH   9   8
ATOM      5  C   UNL     1      -1.368   4.472  25.249  0.00  0.00    +0.071 A 
ATOM      6  C   UNL     1      -1.712   3.948  25.785  0.00  0.00    +0.004 A 
ATOM      7  C   UNL     1      -1.331   3.241  25.973  0.00  0.00    -0.003 A 
ATOM      8  C   UNL     1      -0.605   3.059  25.625  0.00  0.00    -0.006 A 
ATOM     26  C   UNL     1      -0.261   3.583  25.089  0.00  0.00    -0.003 A 
ATOM     27  C   UNL     1      -0.643   4.290  24.901  0.00  0.00    +0.004 A 
BRANCH   5   2
ATOM      1  F   UNL     1      -2.131   5.886  24.873  0.00  0.00    -0.166 F 
ATOM      2  C   UNL     1      -1.750   5.179  25.061  0.00  0.00    +0.419 C 
ATOM      3  F   UNL     1      -1.112   5.605  25.365  0.00  0.00    -0.166 F 
ATOM      4  F   UNL     1      -2.388   4.754  24.757  0.00  0.00    -0.166 F 
ENDBRANCH   5   2
ENDBRANCH   9   8
ENDBRANCH  10   9
TORSDOF 5
ENDMDL
MODEL 5
REMARK VINA RESULT:     -10.9      3.092      5.824
REMARK  Name = 
REMARK  5 active torsions:
REMARK  status: ('A' for Active; 'I' for Inactive)
REMARK    1  A    between atoms: C_2  and  C_5
REMARK    2  A    between atoms: C_8  and  C_9
REMARK    3  A    between atoms: C_9  and  N_10
REMARK    4  A    between atoms: C_13  and  C_15
REMARK    5  A    between atoms: C_21  and  C_24
REMARK                            x       y       z     vdW  Elec       q    Type
REMARK                         _______ _______ _______ _____ _____    ______ ____
ROOT
ATOM     10  N   UNL     1      -1.292   0.014  24.955  0.00  0.00    -0.269 NA
ATOM     11  C   UNL     1      -0.837   0.477  24.446  0.00  0.00    +0.073 C 
ATOM     12  C   UNL     1      -1.168   1.233  24.423  0.00  0.00    +0.026 C 
ATOM     13  C   UNL     1      -1.829   1.236  24.918  0.00  0.00    +0.076 C 
ATOM     14  C   UNL     1      -1.906   0.483  25.246  0.00  0.00    +0.080 C 
ENDROOT
BRANCH  13  15
ATOM     15  C   UNL     1      -2.326   1.880  25.058  0.00  0.00    +0.140 A 
ATOM     16  N   UNL     1      -2.086   2.644  25.252  0.00  0.00    -0.229 NA
ATOM     17  C   UNL     1      -2.761   3.108  25.343  0.00  0.00    +0.100 A 
ATOM     18  C   UNL     1      -3.419   2.630  25.206  0.00  0.00    +0.101 A 
ATOM     19  N   UNL     1      -3.151   1.871  25.029  0.00  0.00    -0.229 NA
ATOM     20  C   UNL     1      -4.179   2.950  25.259  0.00  0.00    +0.031 A 
ATOM     21  C   UNL     1      -4.280   3.745  25.449  0.00  0.00    +0.070 A 
ATOM     22  C   UNL     1      -3.621   4.223  25.587  0.00  0.00    +0.012 A 
ATOM     23  C   UNL     1      -2.862   3.905  25.534  0.00  0.00    +0.021 A 
BRANCH  21  24
ATOM     24  C   UNL     1      -5.038   4.063  25.502  0.00  0.00    +0.100 C 
ATOM     25  N   UNL     1      -5.798   4.382  25.555  0.00  0.00    -0.191 NA
ENDBRANCH  21  24
ENDBRANCH  13  15
BRANCH  10   9
ATOM      9  C   UNL     1      -1.159  -0.778  25.140  0.00  0.00    +0.099 C 
BRANCH   9   8
ATOM      5  C   UNL     1      -2.917  -2.465  24.705  0.00  0.00    +0.071 A 
ATOM      6  C   UNL     1      -2.271  -2.402  24.196  0.00  0.00    +0.004 A 
ATOM      7  C   UNL     1      -1.685  -1.840  24.341  0.00  0.00    -0.003 A 
ATOM      8  C   UNL     1      -1.745  -1.340  24.996  0.00  0.00    -0.006 A 
ATOM     26  C   UNL     1      -2.391  -1.403  25.505  0.00  0.00    -0.003 A 
ATOM     27  C   UNL     1      -2.977  -1.966  25.359  0.00  0.00    +0.004 A 
BRANCH   5   2
ATOM      1  F   UNL     1      -4.089  -3.590  24.414  0.00  0.00    -0.166 F 
ATOM      2  C   UNL     1      -3.503  -3.028  24.560  0.00  0.00    +0.419 C 
ATOM      3  F   UNL     1      -3.593  -2.736  23.793  0.00  0.00    -0.166 F 
ATOM      4  F   UNL     1      -3.414  -3.319  25.326  0.00  0.00    -0.166 F 
ENDBRANCH   5   2
ENDBRANCH   9   8
ENDBRANCH  10   9
TORSDOF 5
ENDMDL
MODEL 6
REMARK VINA RESULT:     -10.9      2.048      2.837
REMARK  Name = 
REMARK  5 active torsions:
REMARK  status: ('A' for Active; 'I' for Inactive)
REMARK    1  A    between atoms: C_2  and  C_5
REMARK    2  A    between atoms: C_8  and  C_9
REMARK    3  A    between atoms: C_9  and  N_10
REMARK    4  A    between atoms: C_13  and  C_15
REMARK    5  A    between atoms: C_21  and  C_24
REMARK                            x       y       z     vdW  Elec       q    Type
REMARK                         _______ _______ _______ _____ _____    ______ ____
ROOT
ATOM     10  N   UNL     1      -1.817   2.554  25.034  0.00  0.00    -0.269 NA
ATOM     11  C   UNL     1      -1.118   2.404  25.446  0.00  0.00    +0.073 C 
ATOM     12  C   UNL     1      -1.010   1.586  25.474  0.00  0.00    +0.026 C 
ATOM     13  C   UNL     1      -1.642   1.231  25.080  0.00  0.00    +0.076 C 
ATOM     14  C   UNL     1      -2.141   1.829  24.809  0.00  0.00    +0.080 C 
ENDROOT
BRANCH  13  15
ATOM     15  C   UNL     1      -1.755   0.420  24.976  0.00  0.00    +0.140 A 
ATOM     16  N   UNL     1      -1.161  -0.148  24.913  0.00  0.00    -0.229 NA
ATOM     17  C   UNL     1      -1.521  -0.883  24.816  0.00  0.00    +0.100 A 
ATOM     18  C   UNL     1      -2.338  -0.770  24.818  0.00  0.00    +0.101 A 
ATOM     19  N   UNL     1      -2.483   0.036  24.918  0.00  0.00    -0.229 NA
ATOM     20  C   UNL     1      -2.844  -1.416  24.729  0.00  0.00    +0.031 A 
ATOM     21  C   UNL     1      -2.534  -2.174  24.638  0.00  0.00    +0.070 A 
ATOM     22  C   UNL     1      -1.717  -2.287  24.636  0.00  0.00    +0.012 A 
ATOM     23  C   UNL     1      -1.210  -1.643  24.724  0.00  0.00    +0.021 A 
BRANCH  21  24
ATOM     24  C   UNL     1      -3.040  -2.819  24.550  0.00  0.00    +0.100 C 
ATOM     25  N   UNL     1      -3.546  -3.465  24.461  0.00  0.00    -0.191 NA
ENDBRANCH  21  24
ENDBRANCH  13  15
BRANCH  10   9
ATOM      9  C   UNL     1      -2.137   3.297  24.877  0.00  0.00    +0.099 C 
BRANCH   9   8
ATOM      5  C   UNL     1      -4.525   3.745  25.350  0.00  0.00    +0.071 A 
ATOM      6  C   UNL     1      -4.289   3.528  24.590  0.00  0.00    +0.004 A 
ATOM      7  C   UNL     1      -3.493   3.379  24.432  0.00  0.00    -0.003 A 
ATOM      8  C   UNL     1      -2.933   3.447  25.035  0.00  0.00    -0.006 A 
ATOM     26  C   UNL     1      -3.169   3.663  25.795  0.00  0.00    -0.003 A 
ATOM     27  C   UNL     1      -3.966   3.812  25.952  0.00  0.00    +0.004 A 
BRANCH   5   2
ATOM      1  F   UNL     1      -6.117   4.044  25.665  0.00  0.00    -0.166 F 
ATOM      2  C   UNL     1      -5.321   3.894  25.507  0.00  0.00    +0.419 C 
ATOM      3  F   UNL     1      -5.200   4.697  25.357  0.00  0.00    -0.166 F 
ATOM      4  F   UNL     1      -5.442   3.093  25.658  0.00  0.00    -0.166 F 
ENDBRANCH   5   2
ENDBRANCH   9   8
ENDBRANCH  10   9
TORSDOF 5
ENDMDL
MODEL 7
REMARK VINA RESULT:     -10.7      3.232      4.022
REMARK  Name = 
REMARK  5 active torsions:
REMARK  status: ('A' for Active; 'I' for Inactive)
REMARK    1  A    between atoms: C_2  and  C_5
REMARK    2  A    between atoms: C_8  and  C_9
REMARK    3  A    between atoms: C_9  and  N_10
REMARK    4  A    between atoms: C_13  and  C_15
REMARK    5  A    between atoms: C_21  and  C_24
REMARK                            x       y       z     vdW  Elec       q    Type
REMARK                         _______ _______ _______ _____ _____    ______ ____
ROOT
ATOM     10  N   UNL     1      -2.351   3.268  25.132  0.00  0.00    -0.269 NA
ATOM     11  C   UNL     1      -1.837   3.315  25.775  0.00  0.00    +0.073 C 
ATOM     12  C   UNL     1      -1.217   2.785  25.645  0.00  0.00    +0.026 C 
ATOM     13  C   UNL     1      -1.349   2.411  24.921  0.00  0.00    +0.076 C 
ATOM     14  C   UNL     1      -2.049   2.710  24.604  0.00  0.00    +0.080 C 
ENDROOT
BRANCH  13  15
ATOM     15  C   UNL     1      -0.865   1.840  24.576  0.00  0.00    +0.140 A 
ATOM     16  N   UNL     1      -1.000   1.026  24.575  0.00  0.00    -0.229 NA
ATOM     17  C   UNL     1      -0.380   0.665  24.169  0.00  0.00    +0.100 A 
ATOM     18  C   UNL     1       0.139   1.256  23.919  0.00  0.00    +0.101 A 
ATOM     19  N   UNL     1      -0.160   1.982  24.170  0.00  0.00    -0.229 NA
ATOM     20  C   UNL     1       0.818   1.055  23.494  0.00  0.00    +0.031 A 
ATOM     21  C   UNL     1       0.978   0.265  23.321  0.00  0.00    +0.070 A 
ATOM     22  C   UNL     1       0.459  -0.325  23.571  0.00  0.00    +0.012 A 
ATOM     23  C   UNL     1      -0.220  -0.126  23.995  0.00  0.00    +0.021 A 
BRANCH  21  24
ATOM     24  C   UNL     1       1.656   0.065  22.896  0.00  0.00    +0.100 C 
ATOM     25  N   UNL     1       2.335  -0.135  22.472  0.00  0.00    -0.191 NA
ENDBRANCH  21  24
ENDBRANCH  13  15
BRANCH  10   9
ATOM      9  C   UNL     1      -3.045   3.703  25.033  0.00  0.00    +0.099 C 
BRANCH   9   8
ATOM      5  C   UNL     1      -5.239   2.559  25.064  0.00  0.00    +0.071 A 
ATOM      6  C   UNL     1      -4.932   2.882  25.758  0.00  0.00    +0.004 A 
ATOM      7  C   UNL     1      -4.201   3.263  25.748  0.00  0.00    -0.003 A 
ATOM      8  C   UNL     1      -3.776   3.322  25.043  0.00  0.00    -0.006 A 
ATOM     26  C   UNL     1      -4.083   2.999  24.349  0.00  0.00    -0.003 A 
ATOM     27  C   UNL     1      -4.815   2.618  24.359  0.00  0.00    +0.004 A 
BRANCH   5   2
ATOM      1  F   UNL     1      -6.703   1.797  25.086  0.00  0.00    -0.166 F 
ATOM      2  C   UNL     1      -5.971   2.178  25.075  0.00  0.00    +0.419 C 
ATOM      3  F   UNL     1      -6.334   2.881  25.308  0.00  0.00    -0.166 F 
ATOM      4  F   UNL     1      -5.608   1.475  24.843  0.00  0.00    -0.166 F 
ENDBRANCH   5   2
ENDBRANCH   9   8
ENDBRANCH  10   9
TORSDOF 5
ENDMDL
MODEL 8
REMARK VINA RESULT:     -10.3      2.965      4.004
REMARK  Name = 
REMARK  5 active torsions:
REMARK  status: ('A' for Active; 'I' for Inactive)
REMARK    1  A    between atoms: C_2  and  C_5
REMARK    2  A    between atoms: C_8  and  C_9
REMARK    3  A    between atoms: C_9  and  N_10
REMARK    4  A    between atoms: C_13  and  C_15
REMARK    5  A    between atoms: C_21  and  C_24
REMARK                            x       y       z     vdW  Elec       q    Type
REMARK                         _______ _______ _______ _____ _____    ______ ____
ROOT
ATOM     10  N   UNL     1      -3.538   0.376  24.628  0.00  0.00    -0.269 NA
ATOM     11  C   UNL     1      -3.272  -0.118  25.234  0.00  0.00    +0.073 C 
ATOM     12  C   UNL     1      -2.449  -0.155  25.190  0.00  0.00    +0.026 C 
ATOM     13  C   UNL     1      -2.206   0.316  24.557  0.00  0.00    +0.076 C 
ATOM     14  C   UNL     1      -2.879   0.644  24.210  0.00  0.00    +0.080 C 
ENDROOT
BRANCH  13  15
ATOM     15  C   UNL     1      -1.427   0.438  24.314  0.00  0.00    +0.140 A 
ATOM     16  N   UNL     1      -0.964   1.099  24.482  0.00  0.00    -0.229 NA
ATOM     17  C   UNL     1      -0.226   0.989  24.132  0.00  0.00    +0.100 A 
ATOM     18  C   UNL     1      -0.232   0.259  23.748  0.00  0.00    +0.101 A 
ATOM     19  N   UNL     1      -0.974  -0.082  23.860  0.00  0.00    -0.229 NA
ATOM     20  C   UNL     1       0.440   0.000  23.345  0.00  0.00    +0.031 A 
ATOM     21  C   UNL     1       1.118   0.470  23.327  0.00  0.00    +0.070 A 
ATOM     22  C   UNL     1       1.124   1.200  23.711  0.00  0.00    +0.012 A 
ATOM     23  C   UNL     1       0.452   1.460  24.114  0.00  0.00    +0.021 A 
BRANCH  21  24
ATOM     24  C   UNL     1       1.789   0.210  22.925  0.00  0.00    +0.100 C 
ATOM     25  N   UNL     1       2.461  -0.049  22.522  0.00  0.00    -0.191 NA
ENDBRANCH  21  24
ENDBRANCH  13  15
BRANCH  10   9
ATOM      9  C   UNL     1      -4.324   0.567  24.469  0.00  0.00    +0.099 C 
BRANCH   9   8
ATOM      5  C   UNL     1      -5.241   2.745  25.204  0.00  0.00    +0.071 A 
ATOM      6  C   UNL     1      -4.766   2.704  24.531  0.00  0.00    +0.004 A 
ATOM      7  C   UNL     1      -4.460   1.978  24.286  0.00  0.00    -0.003 A 
ATOM      8  C   UNL     1      -4.630   1.293  24.714  0.00  0.00    -0.006 A 
ATOM     26  C   UNL     1      -5.105   1.335  25.387  0.00  0.00    -0.003 A 
ATOM     27  C   UNL     1      -5.410   2.061  25.632  0.00  0.00    +0.004 A 
BRANCH   5   2
ATOM      1  F   UNL     1      -5.852   4.198  25.694  0.00  0.00    -0.166 F 
ATOM      2  C   UNL     1      -5.546   3.472  25.449  0.00  0.00    +0.419 C 
ATOM      3  F   UNL     1      -6.307   3.151  25.451  0.00  0.00    -0.166 F 
ATOM      4  F   UNL     1      -4.787   3.792  25.448  0.00  0.00    -0.166 F 
ENDBRANCH   5   2
ENDBRANCH   9   8
ENDBRANCH  10   9
TORSDOF 5
ENDMDL
MODEL 9
REMARK VINA RESULT:      -9.5      2.952      4.525
REMARK  Name = 
REMARK  5 active torsions:
REMARK  status: ('A' for Active; 'I' for Inactive)
REMARK    1  A    between atoms: C_2  and  C_5
REMARK    2  A    between atoms: C_8  and  C_9
REMARK    3  A    between atoms: C_9  and  N_10
REMARK    4  A    between atoms: C_13  and  C_15
REMARK    5  A    between atoms: C_21  and  C_24
REMARK                            x       y       z     vdW  Elec       q    Type
REMARK                         _______ _______ _______ _____ _____    ______ ____
ROOT
ATOM     10  N   UNL     1      -0.846   3.025  25.403  0.00  0.00    -0.269 NA
ATOM     11  C   UNL     1      -0.936   3.838  25.294  0.00  0.00    +0.073 C 
ATOM     12  C   UNL     1      -1.744   4.004  25.267  0.00  0.00    +0.026 C 
ATOM     13  C   UNL     1      -2.153   3.293  25.359  0.00  0.00    +0.076 C 
ATOM     14  C   UNL     1      -1.598   2.689  25.444  0.00  0.00    +0.080 C 
ENDROOT
BRANCH  13  15
ATOM     15  C   UNL     1      -2.973   3.204  25.366  0.00  0.00    +0.140 A 
ATOM     16  N   UNL     1      -3.518   3.751  25.655  0.00  0.00    -0.229 NA
ATOM     17  C   UNL     1      -4.274   3.436  25.552  0.00  0.00    +0.100 A 
ATOM     18  C   UNL     1      -4.195   2.694  25.200  0.00  0.00    +0.101 A 
ATOM     19  N   UNL     1      -3.392   2.550  25.084  0.00  0.00    -0.229 NA
ATOM     20  C   UNL     1      -4.867   2.246  25.030  0.00  0.00    +0.031 A 
ATOM     21  C   UNL     1      -5.616   2.539  25.211  0.00  0.00    +0.070 A 
ATOM     22  C   UNL     1      -5.694   3.281  25.564  0.00  0.00    +0.012 A 
ATOM     23  C   UNL     1      -5.024   3.730  25.734  0.00  0.00    +0.021 A 
BRANCH  21  24
ATOM     24  C   UNL     1      -6.287   2.091  25.041  0.00  0.00    +0.100 C 
ATOM     25  N   UNL     1      -6.958   1.642  24.870  0.00  0.00    -0.191 NA
ENDBRANCH  21  24
ENDBRANCH  13  15
BRANCH  10   9
ATOM      9  C   UNL     1      -0.130   2.620  25.462  0.00  0.00    +0.099 C 
BRANCH   9   8
ATOM      5  C   UNL     1       0.379   0.773  23.897  0.00  0.00    +0.071 A 
ATOM      6  C   UNL     1       0.612   1.543  23.715  0.00  0.00    +0.004 A 
ATOM      7  C   UNL     1       0.442   2.159  24.237  0.00  0.00    -0.003 A 
ATOM      8  C   UNL     1       0.040   2.004  24.941  0.00  0.00    -0.006 A 
ATOM     26  C   UNL     1      -0.193   1.234  25.122  0.00  0.00    -0.003 A 
ATOM     27  C   UNL     1      -0.023   0.618  24.600  0.00  0.00    +0.004 A 
BRANCH   5   2
ATOM      1  F   UNL     1       0.720  -0.459  22.852  0.00  0.00    -0.166 F 
ATOM      2  C   UNL     1       0.549   0.157  23.374  0.00  0.00    +0.419 C 
ATOM      3  F   UNL     1       1.310   0.459  23.266  0.00  0.00    -0.166 F 
ATOM      4  F   UNL     1      -0.210  -0.145  23.482  0.00  0.00    -0.166 F 
ENDBRANCH   5   2
ENDBRANCH   9   8
ENDBRANCH  10   9
TORSDOF 5
ENDMDL
MODEL 10
REMARK VINA RESULT:      -9.2      2.522      5.371
REMARK  Name = 
REMARK  5 active torsions:
REMARK  status: ('A' for Active; 'I' for Inactive)
REMARK    1  A    between atoms: C_2  and  C_5
REMARK    2  A    between atoms: C_8  and  C_9
REMARK    3  A    between atoms: C_9  and  N_10
REMARK    4  A    between atoms: C_13  and  C_15
REMARK    5  A    between atoms: C_21  and  C_24
REMARK                            x       y       z     vdW  Elec       q    Type
REMARK                         _______ _______ _______ _____ _____    ______ ____
ROOT
ATOM     10  N   UNL     1      -3.605  -0.788  24.169  0.00  0.00    -0.269 NA
ATOM     11  C   UNL     1      -4.324  -0.990  24.520  0.00  0.00    +0.073 C 
ATOM     12  C   UNL     1      -4.682  -0.296  24.787  0.00  0.00    +0.026 C 
ATOM     13  C   UNL     1      -4.184   0.335  24.600  0.00  0.00    +0.076 C 
ATOM     14  C   UNL     1      -3.519   0.031  24.219  0.00  0.00    +0.080 C 
ENDROOT
BRANCH  13  15
ATOM     15  C   UNL     1      -4.326   1.131  24.767  0.00  0.00    +0.140 A 
ATOM     16  N   UNL     1      -3.766   1.736  24.757  0.00  0.00    -0.229 NA
ATOM     17  C   UNL     1      -4.148   2.439  24.956  0.00  0.00    +0.100 A 
ATOM     18  C   UNL     1      -4.944   2.269  25.089  0.00  0.00    +0.101 A 
ATOM     19  N   UNL     1      -5.054   1.460  24.972  0.00  0.00    -0.229 NA
ATOM     20  C   UNL     1      -5.465   2.873  25.300  0.00  0.00    +0.031 A 
ATOM     21  C   UNL     1      -5.191   3.647  25.377  0.00  0.00    +0.070 A 
ATOM     22  C   UNL     1      -4.394   3.817  25.244  0.00  0.00    +0.012 A 
ATOM     23  C   UNL     1      -3.873   3.214  25.033  0.00  0.00    +0.021 A 
BRANCH  21  24
ATOM     24  C   UNL     1      -5.711   4.250  25.587  0.00  0.00    +0.100 C 
ATOM     25  N   UNL     1      -6.233   4.854  25.798  0.00  0.00    -0.191 NA
ENDBRANCH  21  24
ENDBRANCH  13  15
BRANCH  10   9
ATOM      9  C   UNL     1      -3.068  -1.313  23.829  0.00  0.00    +0.099 C 
BRANCH   9   8
ATOM      5  C   UNL     1      -0.994  -1.918  25.036  0.00  0.00    +0.071 A 
ATOM      6  C   UNL     1      -1.679  -2.365  25.143  0.00  0.00    +0.004 A 
ATOM      7  C   UNL     1      -2.371  -2.163  24.741  0.00  0.00    -0.003 A 
ATOM      8  C   UNL     1      -2.376  -1.514  24.231  0.00  0.00    -0.006 A 
ATOM     26  C   UNL     1      -1.691  -1.068  24.124  0.00  0.00    -0.003 A 
ATOM     27  C   UNL     1      -1.000  -1.270  24.527  0.00  0.00    +0.004 A 
BRANCH   5   2
ATOM      1  F   UNL     1       0.388  -2.322  25.842  0.00  0.00    -0.166 F 
ATOM      2  C   UNL     1      -0.303  -2.121  25.439  0.00  0.00    +0.419 C 
ATOM      3  F   UNL     1      -0.168  -1.324  25.607  0.00  0.00    -0.166 F 
ATOM      4  F   UNL     1      -0.437  -2.916  25.271  0.00  0.00    -0.166 F 
ENDBRANCH   5   2
ENDBRANCH   9   8
ENDBRANCH  10   9
TORSDOF 5
ENDMDL
