MODEL 1
REMARK VINA RESULT:      -8.5      0.000      0.000
REMARK  Name = 
REMARK  7 active torsions:
REMARK  status: ('A' for Active; 'I' for Inactive)
REMARK    1  A    between atoms: N_6  and  C_7
REMARK    2  A    between atoms: C_7  and  C_8
REMARK    3  A    between atoms: C_18  and  C_19
REMARK    4  A    between atoms: C_19  and  C_20
REMARK    5  A    between atoms: C_20  and  C_21
REMARK    6  A    between atoms: N_23  and  C_24
REMARK    7  A    between atoms: C_24  and  C_25
REMARK                            x       y       z     vdW  Elec       q    Type
REMARK                         _______ _______ _______ _____ _____    ______ ____
ROOT
ATOM      1  C   UNL     1      -1.468  -0.298  24.496  0.00  0.00    +0.090 C 
ATOM      2  N   UNL     1      -1.579   0.493  24.293  0.00  0.00    -0.271 NA
ATOM      3  C   UNL     1      -2.309   0.818  24.500  0.00  0.00    +0.083 C 
ATOM      4  C   UNL     1      -2.902   0.393  24.886  0.00  0.00    +0.035 C 
ATOM      5  C   UNL     1      -3.544   0.898  24.999  0.00  0.00    +0.074 C 
ATOM      6  N   UNL     1      -3.349   1.635  24.683  0.00  0.00    -0.259 NA
ATOM     13  C   UNL     1      -2.585   1.585  24.375  0.00  0.00    +0.152 C 
ATOM     14  C   UNL     1      -2.200   2.217  24.011  0.00  0.00    +0.257 C 
ATOM     15  O   UNL     1      -2.628   2.922  23.970  0.00  0.00    -0.272 OA
ATOM     16  N   UNL     1      -1.443   2.239  23.683  0.00  0.00    -0.203 NA
ATOM     17  C   UNL     1      -0.885   1.632  23.638  0.00  0.00    +0.131 C 
ATOM     18  C   UNL     1      -0.945   0.857  23.909  0.00  0.00    +0.080 C 
ENDROOT
BRANCH   6   7
ATOM      7  C   UNL     1      -3.832   2.304  24.676  0.00  0.00    +0.139 C 
BRANCH   7   8
ATOM      8  C   UNL     1      -4.604   2.257  24.965  0.00  0.00    +0.155 A 
ATOM      9  N   UNL     1      -5.251   1.932  24.571  0.00  0.00    -0.226 NA
ATOM     10  C   UNL     1      -5.910   2.002  25.062  0.00  0.00    +0.121 A 
ATOM     11  C   UNL     1      -5.669   2.370  25.761  0.00  0.00    +0.121 A 
ATOM     12  N   UNL     1      -4.862   2.528  25.701  0.00  0.00    -0.226 NA
ENDBRANCH   7   8
ENDBRANCH   6   7
BRANCH  18  19
ATOM     19  C   UNL     1      -0.285   0.379  23.780  0.00  0.00    +0.027 C 
BRANCH  19  20
ATOM     20  C   UNL     1       0.418   0.712  23.506  0.00  0.00    +0.088 C 
BRANCH  20  21
ATOM     21  C   UNL     1       0.988   0.235  23.147  0.00  0.00    +0.242 C 
ATOM     22  O   UNL     1       0.766  -0.472  22.785  0.00  0.00    -0.273 OA
ATOM     23  N   UNL     1       1.780   0.466  23.149  0.00  0.00    -0.201 NA
BRANCH  23  24
ATOM     24  C   UNL     1       2.350  -0.010  22.789  0.00  0.00    +0.141 C 
BRANCH  24  25
ATOM     25  C   UNL     1       3.150   0.163  22.881  0.00  0.00    -0.001 A 
ATOM     26  C   UNL     1       3.649  -0.377  23.254  0.00  0.00    -0.003 A 
ATOM     27  C   UNL     1       4.451  -0.204  23.346  0.00  0.00    -0.000 A 
ATOM     28  C   UNL     1       4.753   0.510  23.065  0.00  0.00    -0.000 A 
ATOM     29  C   UNL     1       4.254   1.052  22.692  0.00  0.00    -0.000 A 
ATOM     30  C   UNL     1       3.453   0.877  22.600  0.00  0.00    -0.003 A 
ENDBRANCH  24  25
ENDBRANCH  23  24
ENDBRANCH  20  21
ENDBRANCH  19  20
ENDBRANCH  18  19
TORSDOF 7
ENDMDL
MODEL 2
REMARK VINA RESULT:      -8.0      3.245      4.939
REMARK  Name = 
REMARK  7 active torsions:
REMARK  status: ('A' for Active; 'I' for Inactive)
REMARK    1  A    between atoms: N_6  and  C_7
REMARK    2  A    between atoms: C_7  and  C_8
REMARK    3  A    between atoms: C_18  and  C_19
REMARK    4  A    between atoms: C_19  and  C_20
REMARK    5  A    between atoms: C_20  and  C_21
REMARK    6  A    between atoms: N_23  and  C_24
REMARK    7  A    between atoms: C_24  and  C_25
REMARK                            x       y       z     vdW  Elec       q    Type
REMARK                         _______ _______ _______ _____ _____    ______ ____
ROOT
ATOM      1  C   UNL     1      -0.740   0.795  23.641  0.00  0.00    +0.090 C 
ATOM      2  N   UNL     1      -0.701   1.087  24.411  0.00  0.00    -0.271 NA
ATOM      3  C   UNL     1      -0.704   1.908  24.484  0.00  0.00    +0.083 C 
ATOM      4  C   UNL     1      -0.742   2.422  23.839  0.00  0.00    +0.035 C 
ATOM      5  C   UNL     1      -0.733   3.194  24.127  0.00  0.00    +0.074 C 
ATOM      6  N   UNL     1      -0.689   3.159  24.950  0.00  0.00    -0.259 NA
ATOM     13  C   UNL     1      -0.671   2.365  25.171  0.00  0.00    +0.152 C 
ATOM     14  C   UNL     1      -0.627   2.111  25.954  0.00  0.00    +0.257 C 
ATOM     15  O   UNL     1      -0.601   2.709  26.523  0.00  0.00    -0.272 OA
ATOM     16  N   UNL     1      -0.605   1.340  26.245  0.00  0.00    -0.203 NA
ATOM     17  C   UNL     1      -0.622   0.630  25.824  0.00  0.00    +0.131 C 
ATOM     18  C   UNL     1      -0.664   0.518  25.008  0.00  0.00    +0.080 C 
ENDROOT
BRANCH   6   7
ATOM      7  C   UNL     1      -0.667   3.805  25.463  0.00  0.00    +0.139 C 
BRANCH   7   8
ATOM      8  C   UNL     1      -1.012   4.521  25.239  0.00  0.00    +0.155 A 
ATOM      9  N   UNL     1      -0.644   5.127  24.819  0.00  0.00    -0.226 NA
ATOM     10  C   UNL     1      -1.192   5.735  24.717  0.00  0.00    +0.121 A 
ATOM     11  C   UNL     1      -1.899   5.504  25.075  0.00  0.00    +0.121 A 
ATOM     12  N   UNL     1      -1.788   4.753  25.398  0.00  0.00    -0.226 NA
ENDBRANCH   7   8
ENDBRANCH   6   7
BRANCH  18  19
ATOM     19  C   UNL     1      -0.672  -0.267  24.754  0.00  0.00    +0.027 C 
BRANCH  19  20
ATOM     20  C   UNL     1      -0.837  -0.873  25.289  0.00  0.00    +0.088 C 
BRANCH  20  21
ATOM     21  C   UNL     1      -1.180  -1.575  25.025  0.00  0.00    +0.242 C 
ATOM     22  O   UNL     1      -0.705  -2.232  24.870  0.00  0.00    -0.273 OA
ATOM     23  N   UNL     1      -1.995  -1.622  24.915  0.00  0.00    -0.201 NA
BRANCH  23  24
ATOM     24  C   UNL     1      -2.338  -2.324  24.650  0.00  0.00    +0.141 C 
BRANCH  24  25
ATOM     25  C   UNL     1      -3.111  -2.325  24.366  0.00  0.00    -0.001 A 
ATOM     26  C   UNL     1      -3.528  -1.617  24.300  0.00  0.00    -0.003 A 
ATOM     27  C   UNL     1      -4.302  -1.617  24.016  0.00  0.00    -0.000 A 
ATOM     28  C   UNL     1      -4.660  -2.328  23.797  0.00  0.00    -0.000 A 
ATOM     29  C   UNL     1      -4.244  -3.037  23.863  0.00  0.00    -0.000 A 
ATOM     30  C   UNL     1      -3.470  -3.036  24.148  0.00  0.00    -0.003 A 
ENDBRANCH  24  25
ENDBRANCH  23  24
ENDBRANCH  20  21
ENDBRANCH  19  20
ENDBRANCH  18  19
TORSDOF 7
ENDMDL
MODEL 3
REMARK VINA RESULT:      -7.4      1.286      6.633
REMARK  Name = 
REMARK  7 active torsions:
REMARK  status: ('A' for Active; 'I' for Inactive)
REMARK    1  A    between atoms: N_6  and  C_7
REMARK    2  A    between atoms: C_7  and  C_8
REMARK    3  A    between atoms: C_18  and  C_19
REMARK    4  A    between atoms: C_19  and  C_20
REMARK    5  A    between atoms: C_20  and  C_21
REMARK    6  A    between atoms: N_23  and  C_24
REMARK    7  A    between atoms: C_24  and  C_25
REMARK                            x       y       z     vdW  Elec       q    Type
REMARK                         _______ _______ _______ _____ _____    ______ ____
ROOT
ATOM      1  C   UNL     1      -0.529  -0.815  23.588  0.00  0.00    +0.090 C 
ATOM      2  N   UNL     1      -0.207  -0.076  23.764  0.00  0.00    -0.271 NA
ATOM      3  C   UNL     1       0.556   0.060  23.480  0.00  0.00    +0.083 C 
ATOM      4  C   UNL     1       0.985  -0.495  23.045  0.00  0.00    +0.035 C 
ATOM      5  C   UNL     1       1.717  -0.163  22.860  0.00  0.00    +0.074 C 
ATOM      6  N   UNL     1       1.741   0.597  23.180  0.00  0.00    -0.259 NA
ATOM     13  C   UNL     1       1.023   0.735  23.563  0.00  0.00    +0.152 C 
ATOM     14  C   UNL     1       0.844   1.440  23.951  0.00  0.00    +0.257 C 
ATOM     15  O   UNL     1       1.433   2.017  23.937  0.00  0.00    -0.272 OA
ATOM     16  N   UNL     1       0.153   1.645  24.352  0.00  0.00    -0.203 NA
ATOM     17  C   UNL     1      -0.530   1.195  24.463  0.00  0.00    +0.131 C 
ATOM     18  C   UNL     1      -0.690   0.430  24.202  0.00  0.00    +0.080 C 
ENDROOT
BRANCH   6   7
ATOM      7  C   UNL     1       2.372   1.126  23.126  0.00  0.00    +0.139 C 
BRANCH   7   8
ATOM      8  C   UNL     1       3.120   0.854  22.909  0.00  0.00    +0.155 A 
ATOM      9  N   UNL     1       3.363   0.657  22.147  0.00  0.00    -0.226 NA
ATOM     10  C   UNL     1       4.150   0.413  22.185  0.00  0.00    +0.121 A 
ATOM     11  C   UNL     1       4.393   0.458  22.972  0.00  0.00    +0.121 A 
ATOM     12  N   UNL     1       3.757   0.731  23.420  0.00  0.00    -0.226 NA
ENDBRANCH   7   8
ENDBRANCH   6   7
BRANCH  18  19
ATOM     19  C   UNL     1      -1.431   0.129  24.405  0.00  0.00    +0.027 C 
BRANCH  19  20
ATOM     20  C   UNL     1      -1.935   0.564  24.891  0.00  0.00    +0.088 C 
BRANCH  20  21
ATOM     21  C   UNL     1      -2.744   0.403  24.898  0.00  0.00    +0.242 C 
ATOM     22  O   UNL     1      -3.008  -0.377  24.936  0.00  0.00    -0.273 OA
ATOM     23  N   UNL     1      -3.288   1.021  24.867  0.00  0.00    -0.201 NA
BRANCH  23  24
ATOM     24  C   UNL     1      -4.098   0.860  24.874  0.00  0.00    +0.141 C 
BRANCH  24  25
ATOM     25  C   UNL     1      -4.639   1.469  25.003  0.00  0.00    -0.001 A 
ATOM     26  C   UNL     1      -4.480   2.228  24.723  0.00  0.00    -0.003 A 
ATOM     27  C   UNL     1      -5.022   2.837  24.852  0.00  0.00    -0.000 A 
ATOM     28  C   UNL     1      -5.722   2.686  25.261  0.00  0.00    -0.000 A 
ATOM     29  C   UNL     1      -5.881   1.926  25.541  0.00  0.00    -0.000 A 
ATOM     30  C   UNL     1      -5.339   1.318  25.412  0.00  0.00    -0.003 A 
ENDBRANCH  24  25
ENDBRANCH  23  24
ENDBRANCH  20  21
ENDBRANCH  19  20
ENDBRANCH  18  19
TORSDOF 7
ENDMDL
MODEL 4
REMARK VINA RESULT:      -7.0      3.871      5.267
REMARK  Name = 
REMARK  7 active torsions:
REMARK  status: ('A' for Active; 'I' for Inactive)
REMARK    1  A    between atoms: N_6  and  C_7
REMARK    2  A    between atoms: C_7  and  C_8
REMARK    3  A    between atoms: C_18  and  C_19
REMARK    4  A    between atoms: C_19  and  C_20
REMARK    5  A    between atoms: C_20  and  C_21
REMARK    6  A    between atoms: N_23  and  C_24
REMARK    7  A    between atoms: C_24  and  C_25
REMARK                            x       y       z     vdW  Elec       q    Type
REMARK                         _______ _______ _______ _____ _____    ______ ____
ROOT
ATOM      1  C   UNL     1      -3.589   1.756  23.450  0.00  0.00    +0.090 C 
ATOM      2  N   UNL     1      -3.898   1.331  24.086  0.00  0.00    -0.271 NA
ATOM      3  C   UNL     1      -3.771   0.516  24.068  0.00  0.00    +0.083 C 
ATOM      4  C   UNL     1      -3.364   0.133  23.461  0.00  0.00    +0.035 C 
ATOM      5  C   UNL     1      -3.349  -0.673  23.633  0.00  0.00    +0.074 C 
ATOM      6  N   UNL     1      -3.747  -0.789  24.347  0.00  0.00    -0.259 NA
ATOM     13  C   UNL     1      -4.008  -0.054  24.615  0.00  0.00    +0.152 C 
ATOM     14  C   UNL     1      -4.430   0.050  25.316  0.00  0.00    +0.257 C 
ATOM     15  O   UNL     1      -4.583  -0.636  25.748  0.00  0.00    -0.272 OA
ATOM     16  N   UNL     1      -4.720   0.750  25.643  0.00  0.00    -0.203 NA
ATOM     17  C   UNL     1      -4.659   1.519  25.349  0.00  0.00    +0.131 C 
ATOM     18  C   UNL     1      -4.293   1.777  24.657  0.00  0.00    +0.080 C 
ENDROOT
BRANCH   6   7
ATOM      7  C   UNL     1      -3.864  -1.513  24.725  0.00  0.00    +0.139 C 
BRANCH   7   8
ATOM      8  C   UNL     1      -3.383  -2.157  24.539  0.00  0.00    +0.155 A 
ATOM      9  N   UNL     1      -2.592  -2.250  24.751  0.00  0.00    -0.226 NA
ATOM     10  C   UNL     1      -2.330  -2.972  24.450  0.00  0.00    +0.121 A 
ATOM     11  C   UNL     1      -2.961  -3.326  24.051  0.00  0.00    +0.121 A 
ATOM     12  N   UNL     1      -3.612  -2.822  24.106  0.00  0.00    -0.226 NA
ENDBRANCH   7   8
ENDBRANCH   6   7
BRANCH  18  19
ATOM     19  C   UNL     1      -4.327   2.590  24.515  0.00  0.00    +0.027 C 
BRANCH  19  20
ATOM     20  C   UNL     1      -4.403   3.116  25.145  0.00  0.00    +0.088 C 
BRANCH  20  21
ATOM     21  C   UNL     1      -4.009   3.841  25.129  0.00  0.00    +0.242 C 
ATOM     22  O   UNL     1      -4.415   4.525  24.908  0.00  0.00    -0.273 OA
ATOM     23  N   UNL     1      -3.211   3.882  25.332  0.00  0.00    -0.201 NA
BRANCH  23  24
ATOM     24  C   UNL     1      -2.817   4.607  25.315  0.00  0.00    +0.141 C 
BRANCH  24  25
ATOM     25  C   UNL     1      -1.999   4.630  25.216  0.00  0.00    -0.001 A 
ATOM     26  C   UNL     1      -1.537   3.989  25.453  0.00  0.00    -0.003 A 
ATOM     27  C   UNL     1      -0.718   4.012  25.354  0.00  0.00    -0.000 A 
ATOM     28  C   UNL     1      -0.362   4.676  25.019  0.00  0.00    -0.000 A 
ATOM     29  C   UNL     1      -0.824   5.318  24.783  0.00  0.00    -0.000 A 
ATOM     30  C   UNL     1      -1.643   5.294  24.881  0.00  0.00    -0.003 A 
ENDBRANCH  24  25
ENDBRANCH  23  24
ENDBRANCH  20  21
ENDBRANCH  19  20
ENDBRANCH  18  19
TORSDOF 7
ENDMDL
MODEL 5
REMARK VINA RESULT:      -6.9      3.115      4.754
REMARK  Name = 
REMARK  7 active torsions:
REMARK  status: ('A' for Active; 'I' for Inactive)
REMARK    1  A    between atoms: N_6  and  C_7
REMARK    2  A    between atoms: C_7  and  C_8
REMARK    3  A    between atoms: C_18  and  C_19
REMARK    4  A    between atoms: C_19  and  C_20
REMARK    5  A    between atoms: C_20  and  C_21
REMARK    6  A    between atoms: N_23  and  C_24
REMARK    7  A    between atoms: C_24  and  C_25
REMARK                            x       y       z     vdW  Elec       q    Type
REMARK                         _______ _______ _______ _____ _____    ______ ____
ROOT
ATOM      1  C   UNL     1      -0.219  -0.440  24.334  0.00  0.00    +0.090 C 
ATOM      2  N   UNL     1      -0.921  -0.383  24.764  0.00  0.00    -0.271 NA
ATOM      3  C   UNL     1      -1.438  -1.022  24.694  0.00  0.00    +0.083 C 
ATOM      4  C   UNL     1      -1.280  -1.685  24.228  0.00  0.00    +0.035 C 
ATOM      5  C   UNL     1      -1.919  -2.202  24.296  0.00  0.00    +0.074 C 
ATOM      6  N   UNL     1      -2.472  -1.859  24.804  0.00  0.00    -0.259 NA
ATOM     13  C   UNL     1      -2.175  -1.130  25.049  0.00  0.00    +0.152 C 
ATOM     14  C   UNL     1      -2.576  -0.625  25.563  0.00  0.00    +0.257 C 
ATOM     15  O   UNL     1      -3.311  -0.892  25.827  0.00  0.00    -0.272 OA
ATOM     16  N   UNL     1      -2.341   0.113  25.848  0.00  0.00    -0.203 NA
ATOM     17  C   UNL     1      -1.645   0.527  25.689  0.00  0.00    +0.131 C 
ATOM     18  C   UNL     1      -1.014   0.307  25.208  0.00  0.00    +0.080 C 
ENDROOT
BRANCH   6   7
ATOM      7  C   UNL     1      -3.195  -2.187  25.027  0.00  0.00    +0.139 C 
BRANCH   7   8
ATOM      8  C   UNL     1      -3.640  -2.614  24.478  0.00  0.00    +0.155 A 
ATOM      9  N   UNL     1      -4.233  -2.311  23.992  0.00  0.00    -0.226 NA
ATOM     10  C   UNL     1      -4.528  -2.929  23.534  0.00  0.00    +0.121 A 
ATOM     11  C   UNL     1      -4.117  -3.616  23.736  0.00  0.00    +0.121 A 
ATOM     12  N   UNL     1      -3.568  -3.421  24.320  0.00  0.00    -0.226 NA
ENDBRANCH   7   8
ENDBRANCH   6   7
BRANCH  18  19
ATOM     19  C   UNL     1      -0.391   0.847  25.162  0.00  0.00    +0.027 C 
BRANCH  19  20
ATOM     20  C   UNL     1      -0.379   1.505  25.658  0.00  0.00    +0.088 C 
BRANCH  20  21
ATOM     21  C   UNL     1      -0.112   2.233  25.373  0.00  0.00    +0.242 C 
ATOM     22  O   UNL     1       0.634   2.291  25.026  0.00  0.00    -0.273 OA
ATOM     23  N   UNL     1      -0.591   2.901  25.436  0.00  0.00    -0.201 NA
BRANCH  23  24
ATOM     24  C   UNL     1      -0.324   3.628  25.151  0.00  0.00    +0.141 C 
BRANCH  24  25
ATOM     25  C   UNL     1      -0.836   4.274  25.124  0.00  0.00    -0.001 A 
ATOM     26  C   UNL     1      -0.588   4.984  24.787  0.00  0.00    -0.003 A 
ATOM     27  C   UNL     1      -1.100   5.630  24.759  0.00  0.00    -0.000 A 
ATOM     28  C   UNL     1      -1.862   5.566  25.070  0.00  0.00    -0.000 A 
ATOM     29  C   UNL     1      -2.111   4.855  25.408  0.00  0.00    -0.000 A 
ATOM     30  C   UNL     1      -1.598   4.209  25.435  0.00  0.00    -0.003 A 
ENDBRANCH  24  25
ENDBRANCH  23  24
ENDBRANCH  20  21
ENDBRANCH  19  20
ENDBRANCH  18  19
TORSDOF 7
ENDMDL
MODEL 6
REMARK VINA RESULT:      -6.7     17.547     18.896
REMARK  Name = 
REMARK  7 active torsions:
REMARK  status: ('A' for Active; 'I' for Inactive)
REMARK    1  A    between atoms: N_6  and  C_7
REMARK    2  A    between atoms: C_7  and  C_8
REMARK    3  A    between atoms: C_18  and  C_19
REMARK    4  A    between atoms: C_19  and  C_20
REMARK    5  A    between atoms: C_20  and  C_21
REMARK    6  A    between atoms: N_23  and  C_24
REMARK    7  A    between atoms: C_24  and  C_25
REMARK                            x       y       z     vdW  Elec       q    Type
REMARK                         _______ _______ _______ _____ _____    ______ ____
ROOT
ATOM      1  C   UNL     1      -6.688  -8.910  11.047  0.00  0.00    +0.090 C 
ATOM      2  N   UNL     1      -6.139  -8.979  10.435  0.00  0.00    -0.271 NA
ATOM      3  C   UNL     1      -5.390  -9.245  10.655  0.00  0.00    +0.083 C 
ATOM      4  C   UNL     1      -5.184  -9.436  11.431  0.00  0.00    +0.035 C 
ATOM      5  C   UNL     1      -4.396  -9.679  11.434  0.00  0.00    +0.074 C 
ATOM      6  N   UNL     1      -4.114  -9.639  10.660  0.00  0.00    -0.259 NA
ATOM     13  C   UNL     1      -4.728  -9.371  10.178  0.00  0.00    +0.152 C 
ATOM     14  C   UNL     1      -4.652  -9.260   9.365  0.00  0.00    +0.257 C 
ATOM     15  O   UNL     1      -3.911  -9.435   9.046  0.00  0.00    -0.272 OA
ATOM     16  N   UNL     1      -5.219  -8.997   8.826  0.00  0.00    -0.203 NA
ATOM     17  C   UNL     1      -6.002  -8.779   8.969  0.00  0.00    +0.131 C 
ATOM     18  C   UNL     1      -6.411  -8.771   9.684  0.00  0.00    +0.080 C 
ENDROOT
BRANCH   6   7
ATOM      7  C   UNL     1      -3.351  -9.832  10.410  0.00  0.00    +0.139 C 
BRANCH   7   8
ATOM      8  C   UNL     1      -2.778 -10.041  10.965  0.00  0.00    +0.155 A 
ATOM      9  N   UNL     1      -2.185  -9.550  11.259  0.00  0.00    -0.226 NA
ATOM     10  C   UNL     1      -1.737  -9.984  11.799  0.00  0.00    +0.121 A 
ATOM     11  C   UNL     1      -2.055 -10.745  11.839  0.00  0.00    +0.121 A 
ATOM     12  N   UNL     1      -2.698 -10.781  11.324  0.00  0.00    -0.226 NA
ENDBRANCH   7   8
ENDBRANCH   6   7
BRANCH  18  19
ATOM     19  C   UNL     1      -7.197  -8.523   9.646  0.00  0.00    +0.027 C 
BRANCH  19  20
ATOM     20  C   UNL     1      -7.464  -8.098   8.992  0.00  0.00    +0.088 C 
BRANCH  20  21
ATOM     21  C   UNL     1      -8.271  -7.951   8.895  0.00  0.00    +0.242 C 
ATOM     22  O   UNL     1      -8.797  -8.580   8.810  0.00  0.00    -0.273 OA
ATOM     23  N   UNL     1      -8.550  -7.175   8.884  0.00  0.00    -0.201 NA
BRANCH  23  24
ATOM     24  C   UNL     1      -9.357  -7.028   8.788  0.00  0.00    +0.141 C 
BRANCH  24  25
ATOM     25  C   UNL     1      -9.640  -6.255   8.810  0.00  0.00    -0.001 A 
ATOM     26  C   UNL     1      -9.166  -5.634   8.547  0.00  0.00    -0.003 A 
ATOM     27  C   UNL     1      -9.450  -4.859   8.569  0.00  0.00    -0.000 A 
ATOM     28  C   UNL     1     -10.209  -4.706   8.853  0.00  0.00    -0.000 A 
ATOM     29  C   UNL     1     -10.685  -5.328   9.116  0.00  0.00    -0.000 A 
ATOM     30  C   UNL     1     -10.400  -6.102   9.094  0.00  0.00    -0.003 A 
ENDBRANCH  24  25
ENDBRANCH  23  24
ENDBRANCH  20  21
ENDBRANCH  19  20
ENDBRANCH  18  19
TORSDOF 7
ENDMDL
MODEL 7
REMARK VINA RESULT:      -6.6      2.589      3.830
REMARK  Name = 
REMARK  7 active torsions:
REMARK  status: ('A' for Active; 'I' for Inactive)
REMARK    1  A    between atoms: N_6  and  C_7
REMARK    2  A    between atoms: C_7  and  C_8
REMARK    3  A    between atoms: C_18  and  C_19
REMARK    4  A    between atoms: C_19  and  C_20
REMARK    5  A    between atoms: C_20  and  C_21
REMARK    6  A    between atoms: N_23  and  C_24
REMARK    7  A    between atoms: C_24  and  C_25
REMARK                            x       y       z     vdW  Elec       q    Type
REMARK                         _______ _______ _______ _____ _____    ______ ____
ROOT
ATOM      1  C   UNL     1      -2.149   1.244  23.222  0.00  0.00    +0.090 C 
ATOM      2  N   UNL     1      -2.045   1.660  23.927  0.00  0.00    -0.271 NA
ATOM      3  C   UNL     1      -2.626   2.217  24.104  0.00  0.00    +0.083 C 
ATOM      4  C   UNL     1      -3.278   2.363  23.620  0.00  0.00    +0.035 C 
ATOM      5  C   UNL     1      -3.734   2.952  23.976  0.00  0.00    +0.074 C 
ATOM      6  N   UNL     1      -3.363   3.170  24.681  0.00  0.00    -0.259 NA
ATOM     13  C   UNL     1      -2.679   2.716  24.760  0.00  0.00    +0.152 C 
ATOM     14  C   UNL     1      -2.163   2.779  25.400  0.00  0.00    +0.257 C 
ATOM     15  O   UNL     1      -2.370   3.335  25.973  0.00  0.00    -0.272 OA
ATOM     16  N   UNL     1      -1.466   2.361  25.543  0.00  0.00    -0.203 NA
ATOM     17  C   UNL     1      -1.114   1.775  25.080  0.00  0.00    +0.131 C 
ATOM     18  C   UNL     1      -1.371   1.463  24.362  0.00  0.00    +0.080 C 
ENDROOT
BRANCH   6   7
ATOM      7  C   UNL     1      -3.630   3.741  25.213  0.00  0.00    +0.139 C 
BRANCH   7   8
ATOM      8  C   UNL     1      -4.438   3.819  25.362  0.00  0.00    +0.155 A 
ATOM      9  N   UNL     1      -4.916   4.448  25.125  0.00  0.00    -0.226 NA
ATOM     10  C   UNL     1      -5.683   4.299  25.391  0.00  0.00    +0.121 A 
ATOM     11  C   UNL     1      -5.678   3.577  25.792  0.00  0.00    +0.121 A 
ATOM     12  N   UNL     1      -4.909   3.281  25.774  0.00  0.00    -0.226 NA
ENDBRANCH   7   8
ENDBRANCH   6   7
BRANCH  18  19
ATOM     19  C   UNL     1      -0.893   0.877  24.034  0.00  0.00    +0.027 C 
BRANCH  19  20
ATOM     20  C   UNL     1      -0.492   0.348  24.523  0.00  0.00    +0.088 C 
BRANCH  20  21
ATOM     21  C   UNL     1      -0.556  -0.465  24.394  0.00  0.00    +0.242 C 
ATOM     22  O   UNL     1      -0.000  -0.852  23.923  0.00  0.00    -0.273 OA
ATOM     23  N   UNL     1      -1.175  -0.890  24.735  0.00  0.00    -0.201 NA
BRANCH  23  24
ATOM     24  C   UNL     1      -1.239  -1.702  24.606  0.00  0.00    +0.141 C 
BRANCH  24  25
ATOM     25  C   UNL     1      -1.967  -2.078  24.691  0.00  0.00    -0.001 A 
ATOM     26  C   UNL     1      -2.434  -1.927  25.354  0.00  0.00    -0.003 A 
ATOM     27  C   UNL     1      -3.163  -2.303  25.440  0.00  0.00    -0.000 A 
ATOM     28  C   UNL     1      -3.426  -2.830  24.863  0.00  0.00    -0.000 A 
ATOM     29  C   UNL     1      -2.959  -2.982  24.199  0.00  0.00    -0.000 A 
ATOM     30  C   UNL     1      -2.230  -2.605  24.114  0.00  0.00    -0.003 A 
ENDBRANCH  24  25
ENDBRANCH  23  24
ENDBRANCH  20  21
ENDBRANCH  19  20
ENDBRANCH  18  19
TORSDOF 7
ENDMDL
MODEL 8
REMARK VINA RESULT:      -6.6      1.845      6.398
REMARK  Name = 
REMARK  7 active torsions:
REMARK  status: ('A' for Active; 'I' for Inactive)
REMARK    1  A    between atoms: N_6  and  C_7
REMARK    2  A    between atoms: C_7  and  C_8
REMARK    3  A    between atoms: C_18  and  C_19
REMARK    4  A    between atoms: C_19  and  C_20
REMARK    5  A    between atoms: C_20  and  C_21
REMARK    6  A    between atoms: N_23  and  C_24
REMARK    7  A    between atoms: C_24  and  C_25
REMARK                            x       y       z     vdW  Elec       q    Type
REMARK                         _______ _______ _______ _____ _____    ______ ____
ROOT
ATOM      1  C   UNL     1      -0.280  -0.686  23.432  0.00  0.00    +0.090 C 
ATOM      2  N   UNL     1       0.060   0.042  23.619  0.00  0.00    -0.271 NA
ATOM      3  C   UNL     1       0.830   0.158  23.349  0.00  0.00    +0.083 C 
ATOM      4  C   UNL     1       1.250  -0.406  22.917  0.00  0.00    +0.035 C 
ATOM      5  C   UNL     1       1.994  -0.095  22.746  0.00  0.00    +0.074 C 
ATOM      6  N   UNL     1       2.035   0.663  23.072  0.00  0.00    -0.259 NA
ATOM     13  C   UNL     1       1.316   0.819  23.444  0.00  0.00    +0.152 C 
ATOM     14  C   UNL     1       1.150   1.526  23.834  0.00  0.00    +0.257 C 
ATOM     15  O   UNL     1       1.756   2.086  23.833  0.00  0.00    -0.272 OA
ATOM     16  N   UNL     1       0.458   1.749  24.224  0.00  0.00    -0.203 NA
ATOM     17  C   UNL     1      -0.239   1.318  24.321  0.00  0.00    +0.131 C 
ATOM     18  C   UNL     1      -0.416   0.559  24.053  0.00  0.00    +0.080 C 
ENDROOT
BRANCH   6   7
ATOM      7  C   UNL     1       2.681   1.174  23.032  0.00  0.00    +0.139 C 
BRANCH   7   8
ATOM      8  C   UNL     1       3.437   0.872  22.897  0.00  0.00    +0.155 A 
ATOM      9  N   UNL     1       3.998   0.690  23.473  0.00  0.00    -0.226 NA
ATOM     10  C   UNL     1       4.672   0.405  23.093  0.00  0.00    +0.121 A 
ATOM     11  C   UNL     1       4.527   0.409  22.280  0.00  0.00    +0.121 A 
ATOM     12  N   UNL     1       3.764   0.698  22.159  0.00  0.00    -0.226 NA
ENDBRANCH   7   8
ENDBRANCH   6   7
BRANCH  18  19
ATOM     19  C   UNL     1      -1.169   0.278  24.241  0.00  0.00    +0.027 C 
BRANCH  19  20
ATOM     20  C   UNL     1      -1.709   0.770  24.623  0.00  0.00    +0.088 C 
BRANCH  20  21
ATOM     21  C   UNL     1      -2.465   0.491  24.805  0.00  0.00    +0.242 C 
ATOM     22  O   UNL     1      -3.017   0.996  25.154  0.00  0.00    -0.273 OA
ATOM     23  N   UNL     1      -2.668  -0.290  24.638  0.00  0.00    -0.201 NA
BRANCH  23  24
ATOM     24  C   UNL     1      -3.423  -0.568  24.820  0.00  0.00    +0.141 C 
BRANCH  24  25
ATOM     25  C   UNL     1      -3.640  -1.337  24.616  0.00  0.00    -0.001 A 
ATOM     26  C   UNL     1      -4.108  -1.470  23.950  0.00  0.00    -0.003 A 
ATOM     27  C   UNL     1      -4.325  -2.240  23.745  0.00  0.00    -0.000 A 
ATOM     28  C   UNL     1      -4.075  -2.875  24.207  0.00  0.00    -0.000 A 
ATOM     29  C   UNL     1      -3.606  -2.742  24.874  0.00  0.00    -0.000 A 
ATOM     30  C   UNL     1      -3.390  -1.973  25.078  0.00  0.00    -0.003 A 
ENDBRANCH  24  25
ENDBRANCH  23  24
ENDBRANCH  20  21
ENDBRANCH  19  20
ENDBRANCH  18  19
TORSDOF 7
ENDMDL
MODEL 9
REMARK VINA RESULT:      -6.6     14.488     15.098
REMARK  Name = 
REMARK  7 active torsions:
REMARK  status: ('A' for Active; 'I' for Inactive)
REMARK    1  A    between atoms: N_6  and  C_7
REMARK    2  A    between atoms: C_7  and  C_8
REMARK    3  A    between atoms: C_18  and  C_19
REMARK    4  A    between atoms: C_19  and  C_20
REMARK    5  A    between atoms: C_20  and  C_21
REMARK    6  A    between atoms: N_23  and  C_24
REMARK    7  A    between atoms: C_24  and  C_25
REMARK                            x       y       z     vdW  Elec       q    Type
REMARK                         _______ _______ _______ _____ _____    ______ ____
ROOT
ATOM      1  C   UNL     1      -5.558  -9.747  16.698  0.00  0.00    +0.090 C 
ATOM      2  N   UNL     1      -6.163  -9.836  16.144  0.00  0.00    -0.271 NA
ATOM      3  C   UNL     1      -6.920  -9.634  16.405  0.00  0.00    +0.083 C 
ATOM      4  C   UNL     1      -7.080  -9.360  17.166  0.00  0.00    +0.035 C 
ATOM      5  C   UNL     1      -7.891  -9.217  17.220  0.00  0.00    +0.074 C 
ATOM      6  N   UNL     1      -8.232  -9.404  16.492  0.00  0.00    -0.259 NA
ATOM     13  C   UNL     1      -7.632  -9.662  15.988  0.00  0.00    +0.152 C 
ATOM     14  C   UNL     1      -7.763  -9.898  15.209  0.00  0.00    +0.257 C 
ATOM     15  O   UNL     1      -8.545  -9.862  14.951  0.00  0.00    -0.272 OA
ATOM     16  N   UNL     1      -7.215 -10.164  14.653  0.00  0.00    -0.203 NA
ATOM     17  C   UNL     1      -6.399 -10.261  14.740  0.00  0.00    +0.131 C 
ATOM     18  C   UNL     1      -5.932 -10.115  15.403  0.00  0.00    +0.080 C 
ENDROOT
BRANCH   6   7
ATOM      7  C   UNL     1      -9.033  -9.344  16.302  0.00  0.00    +0.139 C 
BRANCH   7   8
ATOM      8  C   UNL     1      -9.562  -9.018  16.845  0.00  0.00    +0.155 A 
ATOM      9  N   UNL     1      -9.761  -8.221  16.909  0.00  0.00    -0.226 NA
ATOM     10  C   UNL     1     -10.306  -8.143  17.523  0.00  0.00    +0.121 A 
ATOM     11  C   UNL     1     -10.444  -8.894  17.838  0.00  0.00    +0.121 A 
ATOM     12  N   UNL     1      -9.984  -9.434  17.419  0.00  0.00    -0.226 NA
ENDBRANCH   7   8
ENDBRANCH   6   7
BRANCH  18  19
ATOM     19  C   UNL     1      -5.126 -10.268  15.314  0.00  0.00    +0.027 C 
BRANCH  19  20
ATOM     20  C   UNL     1      -4.846 -10.624  14.626  0.00  0.00    +0.088 C 
BRANCH  20  21
ATOM     21  C   UNL     1      -4.035 -10.658  14.477  0.00  0.00    +0.242 C 
ATOM     22  O   UNL     1      -3.506 -10.759  15.102  0.00  0.00    -0.273 OA
ATOM     23  N   UNL     1      -3.753 -10.590  13.706  0.00  0.00    -0.201 NA
BRANCH  23  24
ATOM     24  C   UNL     1      -2.942 -10.623  13.557  0.00  0.00    +0.141 C 
BRANCH  24  25
ATOM     25  C   UNL     1      -2.654 -10.470  12.800  0.00  0.00    -0.001 A 
ATOM     26  C   UNL     1      -3.128 -10.617  12.141  0.00  0.00    -0.003 A 
ATOM     27  C   UNL     1      -2.840 -10.463  11.383  0.00  0.00    -0.000 A 
ATOM     28  C   UNL     1      -2.078 -10.163  11.285  0.00  0.00    -0.000 A 
ATOM     29  C   UNL     1      -1.603 -10.016  11.945  0.00  0.00    -0.000 A 
ATOM     30  C   UNL     1      -1.892 -10.170  12.702  0.00  0.00    -0.003 A 
ENDBRANCH  24  25
ENDBRANCH  23  24
ENDBRANCH  20  21
ENDBRANCH  19  20
ENDBRANCH  18  19
TORSDOF 7
ENDMDL
MODEL 10
REMARK VINA RESULT:      -6.3     14.731     15.547
REMARK  Name = 
REMARK  7 active torsions:
REMARK  status: ('A' for Active; 'I' for Inactive)
REMARK    1  A    between atoms: N_6  and  C_7
REMARK    2  A    between atoms: C_7  and  C_8
REMARK    3  A    between atoms: C_18  and  C_19
REMARK    4  A    between atoms: C_19  and  C_20
REMARK    5  A    between atoms: C_20  and  C_21
REMARK    6  A    between atoms: N_23  and  C_24
REMARK    7  A    between atoms: C_24  and  C_25
REMARK                            x       y       z     vdW  Elec       q    Type
REMARK                         _______ _______ _______ _____ _____    ______ ____
ROOT
ATOM      1  C   UNL     1      -4.085 -10.780  15.507  0.00  0.00    +0.090 C 
ATOM      2  N   UNL     1      -4.866 -10.515  15.517  0.00  0.00    -0.271 NA
ATOM      3  C   UNL     1      -5.216 -10.460  16.263  0.00  0.00    +0.083 C 
ATOM      4  C   UNL     1      -4.825 -10.652  16.964  0.00  0.00    +0.035 C 
ATOM      5  C   UNL     1      -5.347 -10.527  17.589  0.00  0.00    +0.074 C 
ATOM      6  N   UNL     1      -6.062 -10.258  17.276  0.00  0.00    -0.259 NA
ATOM     13  C   UNL     1      -5.980 -10.217  16.456  0.00  0.00    +0.152 C 
ATOM     14  C   UNL     1      -6.584  -9.969  15.952  0.00  0.00    +0.257 C 
ATOM     15  O   UNL     1      -7.293  -9.759  16.317  0.00  0.00    -0.272 OA
ATOM     16  N   UNL     1      -6.573  -9.903  15.129  0.00  0.00    -0.203 NA
ATOM     17  C   UNL     1      -5.954 -10.069  14.608  0.00  0.00    +0.131 C 
ATOM     18  C   UNL     1      -5.195 -10.341  14.781  0.00  0.00    +0.080 C 
ENDROOT
BRANCH   6   7
ATOM      7  C   UNL     1      -6.738 -10.065  17.706  0.00  0.00    +0.139 C 
BRANCH   7   8
ATOM      8  C   UNL     1      -6.795 -10.278  18.502  0.00  0.00    +0.155 A 
ATOM      9  N   UNL     1      -7.418 -10.689  18.851  0.00  0.00    -0.226 NA
ATOM     10  C   UNL     1      -7.246 -10.781  19.653  0.00  0.00    +0.121 A 
ATOM     11  C   UNL     1      -6.514 -10.427  19.798  0.00  0.00    +0.121 A 
ATOM     12  N   UNL     1      -6.235 -10.116  19.087  0.00  0.00    -0.226 NA
ENDBRANCH   7   8
ENDBRANCH   6   7
BRANCH  18  19
ATOM     19  C   UNL     1      -4.699 -10.455  14.132  0.00  0.00    +0.027 C 
BRANCH  19  20
ATOM     20  C   UNL     1      -4.893 -10.128  13.401  0.00  0.00    +0.088 C 
BRANCH  20  21
ATOM     21  C   UNL     1      -4.399 -10.246  12.750  0.00  0.00    +0.242 C 
ATOM     22  O   UNL     1      -3.771 -10.778  12.802  0.00  0.00    -0.273 OA
ATOM     23  N   UNL     1      -4.533  -9.832  12.050  0.00  0.00    -0.201 NA
BRANCH  23  24
ATOM     24  C   UNL     1      -4.039  -9.950  11.399  0.00  0.00    +0.141 C 
BRANCH  24  25
ATOM     25  C   UNL     1      -4.156  -9.517  10.708  0.00  0.00    -0.001 A 
ATOM     26  C   UNL     1      -4.832  -9.053  10.621  0.00  0.00    -0.003 A 
ATOM     27  C   UNL     1      -4.950  -8.619   9.929  0.00  0.00    -0.000 A 
ATOM     28  C   UNL     1      -4.390  -8.650   9.324  0.00  0.00    -0.000 A 
ATOM     29  C   UNL     1      -3.712  -9.114   9.411  0.00  0.00    -0.000 A 
ATOM     30  C   UNL     1      -3.596  -9.547  10.103  0.00  0.00    -0.003 A 
ENDBRANCH  24  25
ENDBRANCH  23  24
ENDBRANCH  20  21
ENDBRANCH  19  20
ENDBRANCH  18  19
TORSDOF 7
ENDMDL
