MODEL 1
REMARK VINA RESULT:     -12.3      0.000      0.000
REMARK  Name = 
REMARK  8 active torsions:
REMARK  status: ('A' for Active; 'I' for Inactive)
REMARK    1  A    between atoms: C_5  and  N_6
REMARK    2  A    between atoms: N_9  and  C_10
REMARK    3  A    between atoms: C_12  and  C_18
REMARK    4  A    between atoms: N_20  and  C_21
REMARK    5  A    between atoms: C_21  and  C_22
REMARK    6  A    between atoms: C_21  and  C_27
REMARK    7  A    between atoms: C_22  and  C_23
REMARK    8  A    between atoms: C_23  and  C_24
REMARK                            x       y       z     vdW  Elec       q    Type
REMARK                         _______ _______ _______ _____ _____    ______ ____
ROOT
ATOM     10  C   UNL     1      -4.705   2.080  24.843  0.00  0.00    +0.152 C 
ATOM     11  C   UNL     1      -3.932   2.334  24.704  0.00  0.00    -0.002 C 
ATOM     12  C   UNL     1      -3.693   3.082  24.959  0.00  0.00    +0.033 C 
ATOM     13  C   UNL     1      -4.225   3.574  25.352  0.00  0.00    +0.066 C 
ATOM     14  C   UNL     1      -4.998   3.319  25.490  0.00  0.00    +0.189 C 
ATOM     15  O   UNL     1      -5.530   3.811  25.883  0.00  0.00    -0.220 OA
ATOM     16  C   UNL     1      -5.237   2.572  25.235  0.00  0.00    +0.206 C 
ATOM     17  O   UNL     1      -6.010   2.317  25.374  0.00  0.00    -0.218 OA
ENDROOT
BRANCH  10   9
ATOM      6  N   UNL     1      -4.704  -0.072  24.472  0.00  0.00    -0.161 NA
ATOM      7  C   UNL     1      -4.464   0.676  24.727  0.00  0.00    +0.344 C 
ATOM      8  O   UNL     1      -3.745   0.767  25.120  0.00  0.00    -0.249 OA
ATOM      9  N   UNL     1      -4.944   1.332  24.588  0.00  0.00    -0.181 NA
BRANCH   6   5
ATOM      1  C   UNL     1      -2.781  -2.696  25.026  0.00  0.00    +0.031 C 
ATOM      2  C   UNL     1      -3.262  -2.040  24.887  0.00  0.00    -0.022 A 
ATOM      3  C   UNL     1      -3.508  -1.863  24.121  0.00  0.00    -0.003 A 
ATOM      4  C   UNL     1      -3.988  -1.207  23.982  0.00  0.00    +0.016 A 
ATOM      5  C   UNL     1      -4.223  -0.728  24.611  0.00  0.00    +0.075 A 
ATOM     30  C   UNL     1      -3.977  -0.904  25.378  0.00  0.00    +0.016 A 
ATOM     31  C   UNL     1      -3.496  -1.561  25.517  0.00  0.00    -0.003 A 
ENDBRANCH   6   5
ENDBRANCH  10   9
BRANCH  12  18
ATOM     18  C   UNL     1      -2.920   3.336  24.821  0.00  0.00    +0.261 C 
ATOM     19  O   UNL     1      -2.632   3.381  24.049  0.00  0.00    -0.269 OA
ATOM     20  N   UNL     1      -2.436   3.546  25.455  0.00  0.00    -0.194 NA
BRANCH  20  21
ATOM     21  C   UNL     1      -1.663   3.801  25.316  0.00  0.00    +0.175 C 
BRANCH  21  27
ATOM     27  C   UNL     1      -1.504   4.604  25.219  0.00  0.00    +0.281 C 
ATOM     28  N   UNL     1      -0.993   4.854  24.622  0.00  0.00    -0.086 NA
ATOM     29  O   UNL     1      -1.857   5.157  25.720  0.00  0.00    -0.270 OA
ENDBRANCH  21  27
BRANCH  21  22
ATOM     22  C   UNL     1      -1.049   3.250  25.275  0.00  0.00    +0.043 C 
BRANCH  22  23
ATOM     23  C   UNL     1      -0.737   2.929  25.968  0.00  0.00    +0.116 C 
BRANCH  23  24
ATOM     24  C   UNL     1      -0.118   2.385  25.927  0.00  0.00    +0.365 C 
ATOM     25  O   UNL     1       0.610   2.563  26.273  0.00  0.00    -0.246 OA
ATOM     26  O   UNL     1      -0.226   1.666  25.540  0.00  0.00    -0.246 OA
ENDBRANCH  23  24
ENDBRANCH  22  23
ENDBRANCH  21  22
ENDBRANCH  20  21
ENDBRANCH  12  18
TORSDOF 8
ENDMDL
MODEL 2
REMARK VINA RESULT:     -11.8      1.363      4.592
REMARK  Name = 
REMARK  8 active torsions:
REMARK  status: ('A' for Active; 'I' for Inactive)
REMARK    1  A    between atoms: C_5  and  N_6
REMARK    2  A    between atoms: N_9  and  C_10
REMARK    3  A    between atoms: C_12  and  C_18
REMARK    4  A    between atoms: N_20  and  C_21
REMARK    5  A    between atoms: C_21  and  C_22
REMARK    6  A    between atoms: C_21  and  C_27
REMARK    7  A    between atoms: C_22  and  C_23
REMARK    8  A    between atoms: C_23  and  C_24
REMARK                            x       y       z     vdW  Elec       q    Type
REMARK                         _______ _______ _______ _____ _____    ______ ____
ROOT
ATOM     10  C   UNL     1      -4.449   2.298  25.473  0.00  0.00    +0.152 C 
ATOM     11  C   UNL     1      -4.031   1.626  25.241  0.00  0.00    -0.002 C 
ATOM     12  C   UNL     1      -4.421   1.013  24.848  0.00  0.00    +0.033 C 
ATOM     13  C   UNL     1      -5.227   1.074  24.688  0.00  0.00    +0.066 C 
ATOM     14  C   UNL     1      -5.645   1.747  24.920  0.00  0.00    +0.189 C 
ATOM     15  O   UNL     1      -6.452   1.807  24.760  0.00  0.00    -0.220 OA
ATOM     16  C   UNL     1      -5.255   2.358  25.313  0.00  0.00    +0.206 C 
ATOM     17  O   UNL     1      -5.673   3.031  25.545  0.00  0.00    -0.218 OA
ENDROOT
BRANCH  10   9
ATOM      6  N   UNL     1      -2.988   3.855  25.931  0.00  0.00    -0.161 NA
ATOM      7  C   UNL     1      -3.378   3.242  25.539  0.00  0.00    +0.344 C 
ATOM      8  O   UNL     1      -3.087   2.962  24.820  0.00  0.00    -0.249 OA
ATOM      9  N   UNL     1      -4.059   2.911  25.866  0.00  0.00    -0.181 NA
BRANCH   6   5
ATOM      1  C   UNL     1      -0.265   5.183  24.622  0.00  0.00    +0.031 C 
ATOM      2  C   UNL     1      -0.947   4.851  24.950  0.00  0.00    -0.022 A 
ATOM      3  C   UNL     1      -1.648   5.283  24.968  0.00  0.00    -0.003 A 
ATOM      4  C   UNL     1      -2.329   4.952  25.295  0.00  0.00    +0.016 A 
ATOM      5  C   UNL     1      -2.308   4.186  25.604  0.00  0.00    +0.075 A 
ATOM     30  C   UNL     1      -1.606   3.754  25.586  0.00  0.00    +0.016 A 
ATOM     31  C   UNL     1      -0.925   4.086  25.259  0.00  0.00    -0.003 A 
ENDBRANCH   6   5
ENDBRANCH  10   9
BRANCH  12  18
ATOM     18  C   UNL     1      -4.003   0.341  24.616  0.00  0.00    +0.261 C 
ATOM     19  O   UNL     1      -3.925   0.159  23.815  0.00  0.00    -0.269 OA
ATOM     20  N   UNL     1      -3.662  -0.148  25.186  0.00  0.00    -0.194 NA
BRANCH  20  21
ATOM     21  C   UNL     1      -3.243  -0.821  24.954  0.00  0.00    +0.175 C 
BRANCH  21  27
ATOM     27  C   UNL     1      -3.586  -1.568  25.033  0.00  0.00    +0.281 C 
ATOM     28  N   UNL     1      -3.775  -2.007  24.360  0.00  0.00    -0.086 NA
ATOM     29  O   UNL     1      -3.738  -1.874  25.784  0.00  0.00    -0.270 OA
ENDBRANCH  21  27
BRANCH  21  22
ATOM     22  C   UNL     1      -2.482  -0.747  24.644  0.00  0.00    +0.043 C 
BRANCH  22  23
ATOM     23  C   UNL     1      -1.826  -0.856  25.132  0.00  0.00    +0.116 C 
BRANCH  23  24
ATOM     24  C   UNL     1      -1.072  -0.664  24.857  0.00  0.00    +0.365 C 
ATOM     25  O   UNL     1      -0.693   0.015  25.134  0.00  0.00    -0.246 OA
ATOM     26  O   UNL     1      -0.698  -1.150  24.306  0.00  0.00    -0.246 OA
ENDBRANCH  23  24
ENDBRANCH  22  23
ENDBRANCH  21  22
ENDBRANCH  20  21
ENDBRANCH  12  18
TORSDOF 8
ENDMDL
MODEL 3
REMARK VINA RESULT:     -11.5      1.516      3.517
REMARK  Name = 
REMARK  8 active torsions:
REMARK  status: ('A' for Active; 'I' for Inactive)
REMARK    1  A    between atoms: C_5  and  N_6
REMARK    2  A    between atoms: N_9  and  C_10
REMARK    3  A    between atoms: C_12  and  C_18
REMARK    4  A    between atoms: N_20  and  C_21
REMARK    5  A    between atoms: C_21  and  C_22
REMARK    6  A    between atoms: C_21  and  C_27
REMARK    7  A    between atoms: C_22  and  C_23
REMARK    8  A    between atoms: C_23  and  C_24
REMARK                            x       y       z     vdW  Elec       q    Type
REMARK                         _______ _______ _______ _____ _____    ______ ____
ROOT
ATOM     10  C   UNL     1      -1.095   1.209  25.263  0.00  0.00    +0.152 C 
ATOM     11  C   UNL     1      -1.772   1.678  25.322  0.00  0.00    -0.002 C 
ATOM     12  C   UNL     1      -1.764   2.451  25.033  0.00  0.00    +0.033 C 
ATOM     13  C   UNL     1      -1.081   2.754  24.686  0.00  0.00    +0.066 C 
ATOM     14  C   UNL     1      -0.404   2.285  24.627  0.00  0.00    +0.189 C 
ATOM     15  O   UNL     1       0.280   2.589  24.280  0.00  0.00    -0.220 OA
ATOM     16  C   UNL     1      -0.412   1.513  24.916  0.00  0.00    +0.206 C 
ATOM     17  O   UNL     1       0.265   1.043  24.858  0.00  0.00    -0.218 OA
ENDROOT
BRANCH  10   9
ATOM      6  N   UNL     1      -1.651  -0.884  25.541  0.00  0.00    -0.161 NA
ATOM      7  C   UNL     1      -1.643  -0.111  25.252  0.00  0.00    +0.344 C 
ATOM      8  O   UNL     1      -2.173   0.115  24.663  0.00  0.00    -0.249 OA
ATOM      9  N   UNL     1      -1.103   0.436  25.553  0.00  0.00    -0.181 NA
BRANCH   6   5
ATOM      1  C   UNL     1      -3.807  -3.072  24.336  0.00  0.00    +0.031 C 
ATOM      2  C   UNL     1      -3.268  -2.524  24.638  0.00  0.00    -0.022 A 
ATOM      3  C   UNL     1      -2.492  -2.514  24.359  0.00  0.00    -0.003 A 
ATOM      4  C   UNL     1      -1.953  -1.968  24.660  0.00  0.00    +0.016 A 
ATOM      5  C   UNL     1      -2.190  -1.431  25.241  0.00  0.00    +0.075 A 
ATOM     30  C   UNL     1      -2.966  -1.441  25.519  0.00  0.00    +0.016 A 
ATOM     31  C   UNL     1      -3.505  -1.988  25.218  0.00  0.00    -0.003 A 
ENDBRANCH   6   5
ENDBRANCH  10   9
BRANCH  12  18
ATOM     18  C   UNL     1      -2.440   2.920  25.091  0.00  0.00    +0.261 C 
ATOM     19  O   UNL     1      -2.478   3.522  25.654  0.00  0.00    -0.269 OA
ATOM     20  N   UNL     1      -3.079   2.785  24.587  0.00  0.00    -0.194 NA
BRANCH  20  21
ATOM     21  C   UNL     1      -3.756   3.254  24.645  0.00  0.00    +0.175 C 
BRANCH  21  27
ATOM     27  C   UNL     1      -3.892   3.853  24.095  0.00  0.00    +0.281 C 
ATOM     28  N   UNL     1      -4.002   3.664  23.299  0.00  0.00    -0.086 NA
ATOM     29  O   UNL     1      -3.917   4.640  24.340  0.00  0.00    -0.270 OA
ENDBRANCH  21  27
BRANCH  21  22
ATOM     22  C   UNL     1      -4.297   3.123  25.255  0.00  0.00    +0.043 C 
BRANCH  22  23
ATOM     23  C   UNL     1      -5.003   2.725  25.100  0.00  0.00    +0.116 C 
BRANCH  23  24
ATOM     24  C   UNL     1      -5.468   2.454  25.725  0.00  0.00    +0.365 C 
ATOM     25  O   UNL     1      -5.670   1.655  25.772  0.00  0.00    -0.246 OA
ATOM     26  O   UNL     1      -5.730   2.980  26.303  0.00  0.00    -0.246 OA
ENDBRANCH  23  24
ENDBRANCH  22  23
ENDBRANCH  21  22
ENDBRANCH  20  21
ENDBRANCH  12  18
TORSDOF 8
ENDMDL
MODEL 4
REMARK VINA RESULT:     -11.0      1.804      5.689
REMARK  Name = 
REMARK  8 active torsions:
REMARK  status: ('A' for Active; 'I' for Inactive)
REMARK    1  A    between atoms: C_5  and  N_6
REMARK    2  A    between atoms: N_9  and  C_10
REMARK    3  A    between atoms: C_12  and  C_18
REMARK    4  A    between atoms: N_20  and  C_21
REMARK    5  A    between atoms: C_21  and  C_22
REMARK    6  A    between atoms: C_21  and  C_27
REMARK    7  A    between atoms: C_22  and  C_23
REMARK    8  A    between atoms: C_23  and  C_24
REMARK                            x       y       z     vdW  Elec       q    Type
REMARK                         _______ _______ _______ _____ _____    ______ ____
ROOT
ATOM     10  C   UNL     1      -0.525   0.833  24.966  0.00  0.00    +0.152 C 
ATOM     11  C   UNL     1      -1.276   0.559  25.166  0.00  0.00    -0.002 C 
ATOM     12  C   UNL     1      -1.560  -0.143  24.836  0.00  0.00    +0.033 C 
ATOM     13  C   UNL     1      -1.092  -0.569  24.308  0.00  0.00    +0.066 C 
ATOM     14  C   UNL     1      -0.340  -0.293  24.108  0.00  0.00    +0.189 C 
ATOM     15  O   UNL     1       0.129  -0.719  23.579  0.00  0.00    -0.220 OA
ATOM     16  C   UNL     1      -0.057   0.408  24.438  0.00  0.00    +0.206 C 
ATOM     17  O   UNL     1       0.696   0.683  24.238  0.00  0.00    -0.218 OA
ENDROOT
BRANCH  10   9
ATOM      6  N   UNL     1      -0.366   2.943  25.505  0.00  0.00    -0.161 NA
ATOM      7  C   UNL     1      -0.650   2.241  25.175  0.00  0.00    +0.344 C 
ATOM      8  O   UNL     1      -1.340   2.247  24.726  0.00  0.00    -0.249 OA
ATOM      9  N   UNL     1      -0.241   1.535  25.296  0.00  0.00    -0.181 NA
BRANCH   6   5
ATOM      1  C   UNL     1      -2.000   5.770  25.020  0.00  0.00    +0.031 C 
ATOM      2  C   UNL     1      -1.591   5.062  25.141  0.00  0.00    -0.022 A 
ATOM      3  C   UNL     1      -0.871   4.932  24.761  0.00  0.00    -0.003 A 
ATOM      4  C   UNL     1      -0.463   4.226  24.882  0.00  0.00    +0.016 A 
ATOM      5  C   UNL     1      -0.775   3.649  25.384  0.00  0.00    +0.075 A 
ATOM     30  C   UNL     1      -1.494   3.780  25.764  0.00  0.00    +0.016 A 
ATOM     31  C   UNL     1      -1.903   4.487  25.643  0.00  0.00    -0.003 A 
ENDBRANCH   6   5
ENDBRANCH  10   9
BRANCH  12  18
ATOM     18  C   UNL     1      -2.311  -0.418  25.036  0.00  0.00    +0.261 C 
ATOM     19  O   UNL     1      -2.444  -0.757  25.776  0.00  0.00    -0.269 OA
ATOM     20  N   UNL     1      -2.930  -0.353  24.494  0.00  0.00    -0.194 NA
BRANCH  20  21
ATOM     21  C   UNL     1      -3.683  -0.628  24.694  0.00  0.00    +0.175 C 
BRANCH  21  27
ATOM     27  C   UNL     1      -3.907  -1.397  24.496  0.00  0.00    +0.281 C 
ATOM     28  N   UNL     1      -4.084  -1.586  23.712  0.00  0.00    -0.086 NA
ATOM     29  O   UNL     1      -3.956  -1.976  25.082  0.00  0.00    -0.270 OA
ENDBRANCH  21  27
BRANCH  21  22
ATOM     22  C   UNL     1      -4.211  -0.133  25.092  0.00  0.00    +0.043 C 
BRANCH  22  23
ATOM     23  C   UNL     1      -4.666   0.409  24.668  0.00  0.00    +0.116 C 
BRANCH  23  24
ATOM     24  C   UNL     1      -5.004   1.054  25.056  0.00  0.00    +0.365 C 
ATOM     25  O   UNL     1      -4.912   1.815  24.749  0.00  0.00    -0.246 OA
ATOM     26  O   UNL     1      -5.435   0.939  25.749  0.00  0.00    -0.246 OA
ENDBRANCH  23  24
ENDBRANCH  22  23
ENDBRANCH  21  22
ENDBRANCH  20  21
ENDBRANCH  12  18
TORSDOF 8
ENDMDL
MODEL 5
REMARK VINA RESULT:     -10.8      2.094      4.917
REMARK  Name = 
REMARK  8 active torsions:
REMARK  status: ('A' for Active; 'I' for Inactive)
REMARK    1  A    between atoms: C_5  and  N_6
REMARK    2  A    between atoms: N_9  and  C_10
REMARK    3  A    between atoms: C_12  and  C_18
REMARK    4  A    between atoms: N_20  and  C_21
REMARK    5  A    between atoms: C_21  and  C_22
REMARK    6  A    between atoms: C_21  and  C_27
REMARK    7  A    between atoms: C_22  and  C_23
REMARK    8  A    between atoms: C_23  and  C_24
REMARK                            x       y       z     vdW  Elec       q    Type
REMARK                         _______ _______ _______ _____ _____    ______ ____
ROOT
ATOM     10  C   UNL     1      -1.369   2.124  24.036  0.00  0.00    +0.152 C 
ATOM     11  C   UNL     1      -1.432   1.302  24.072  0.00  0.00    -0.002 C 
ATOM     12  C   UNL     1      -0.778   0.848  24.291  0.00  0.00    +0.033 C 
ATOM     13  C   UNL     1      -0.063   1.216  24.473  0.00  0.00    +0.066 C 
ATOM     14  C   UNL     1      -0.001   2.039  24.436  0.00  0.00    +0.189 C 
ATOM     15  O   UNL     1       0.714   2.407  24.619  0.00  0.00    -0.220 OA
ATOM     16  C   UNL     1      -0.655   2.492  24.218  0.00  0.00    +0.206 C 
ATOM     17  O   UNL     1      -0.593   3.314  24.181  0.00  0.00    -0.218 OA
ENDROOT
BRANCH  10   9
ATOM      6  N   UNL     1      -3.371   2.996  24.043  0.00  0.00    -0.161 NA
ATOM      7  C   UNL     1      -2.717   2.542  24.262  0.00  0.00    +0.344 C 
ATOM      8  O   UNL     1      -2.757   2.054  24.925  0.00  0.00    -0.249 OA
ATOM      9  N   UNL     1      -2.023   2.577  23.817  0.00  0.00    -0.181 NA
BRANCH   6   5
ATOM      1  C   UNL     1      -6.145   2.856  25.825  0.00  0.00    +0.031 C 
ATOM      2  C   UNL     1      -5.451   2.891  25.379  0.00  0.00    -0.022 A 
ATOM      3  C   UNL     1      -4.906   3.495  25.511  0.00  0.00    -0.003 A 
ATOM      4  C   UNL     1      -4.213   3.531  25.066  0.00  0.00    +0.016 A 
ATOM      5  C   UNL     1      -4.064   2.960  24.488  0.00  0.00    +0.075 A 
ATOM     30  C   UNL     1      -4.609   2.356  24.356  0.00  0.00    +0.016 A 
ATOM     31  C   UNL     1      -5.303   2.321  24.802  0.00  0.00    -0.003 A 
ENDBRANCH   6   5
ENDBRANCH  10   9
BRANCH  12  18
ATOM     18  C   UNL     1      -0.840   0.027  24.327  0.00  0.00    +0.261 C 
ATOM     19  O   UNL     1      -0.495  -0.440  23.741  0.00  0.00    -0.269 OA
ATOM     20  N   UNL     1      -1.248  -0.328  24.950  0.00  0.00    -0.194 NA
BRANCH  20  21
ATOM     21  C   UNL     1      -1.311  -1.150  24.987  0.00  0.00    +0.175 C 
BRANCH  21  27
ATOM     27  C   UNL     1      -0.776  -1.585  25.439  0.00  0.00    +0.281 C 
ATOM     28  N   UNL     1      -0.344  -2.197  25.092  0.00  0.00    -0.086 NA
ATOM     29  O   UNL     1      -0.673  -1.408  26.239  0.00  0.00    -0.270 OA
ENDBRANCH  21  27
BRANCH  21  22
ATOM     22  C   UNL     1      -1.910  -1.537  24.571  0.00  0.00    +0.043 C 
BRANCH  22  23
ATOM     23  C   UNL     1      -2.642  -1.668  24.928  0.00  0.00    +0.116 C 
BRANCH  23  24
ATOM     24  C   UNL     1      -3.263  -1.989  24.490  0.00  0.00    +0.365 C 
ATOM     25  O   UNL     1      -3.384  -2.805  24.485  0.00  0.00    -0.246 OA
ATOM     26  O   UNL     1      -3.760  -1.495  24.057  0.00  0.00    -0.246 OA
ENDBRANCH  23  24
ENDBRANCH  22  23
ENDBRANCH  21  22
ENDBRANCH  20  21
ENDBRANCH  12  18
TORSDOF 8
ENDMDL
