MODEL 1
REMARK VINA RESULT:      -9.3      0.000      0.000
REMARK  Name = 
REMARK  8 active torsions:
REMARK  status: ('A' for Active; 'I' for Inactive)
REMARK    1  A    between atoms: O_2  and  C_3
REMARK    2  A    between atoms: C_6  and  O_7
REMARK    3  A    between atoms: C_9  and  S_11
REMARK    4  A    between atoms: S_11  and  N_14
REMARK    5  A    between atoms: N_14  and  C_15
REMARK    6  A    between atoms: C_15  and  C_16
REMARK    7  A    between atoms: C_23  and  C_24
REMARK    8  A    between atoms: C_26  and  C_31
REMARK                            x       y       z     vdW  Elec       q    Type
REMARK                         _______ _______ _______ _____ _____    ______ ____
ROOT
ATOM     16  C   UNL     1      -0.288   1.464  24.881  0.00  0.00    +0.077 C 
ATOM     17  C   UNL     1      -0.129   0.912  24.356  0.00  0.00    +0.018 C 
ATOM     18  C   UNL     1      -0.402   0.150  24.376  0.00  0.00    +0.010 C 
ATOM     19  C   UNL     1      -0.104  -0.329  23.679  0.00  0.00    +0.018 C 
ATOM     20  C   UNL     1      -0.168   0.204  24.051  0.00  0.00    +0.072 C 
ATOM     21  N   UNL     1      -0.562   0.686  24.895  0.00  0.00    -0.272 NA
ATOM     22  C   UNL     1      -1.101   0.238  25.479  0.00  0.00    +0.078 C 
ATOM     23  C   UNL     1      -0.921  -0.274  24.943  0.00  0.00    +0.056 C 
ENDROOT
BRANCH  23  24
ATOM     24  C   UNL     1      -1.164  -1.062  24.903  0.00  0.00    +0.063 A 
ATOM     25  C   UNL     1      -1.931  -1.245  24.661  0.00  0.00    +0.037 A 
ATOM     26  C   UNL     1      -2.174  -2.032  24.622  0.00  0.00    +0.118 A 
ATOM     27  N   UNL     1      -1.650  -2.637  24.825  0.00  0.00    -0.228 NA
ATOM     28  C   UNL     1      -0.883  -2.453  25.067  0.00  0.00    +0.139 A 
ATOM     29  C   UNL     1      -0.358  -3.057  25.270  0.00  0.00    +0.074 C 
ATOM     30  N   UNL     1      -0.640  -1.665  25.106  0.00  0.00    -0.235 NA
BRANCH  26  31
ATOM     31  C   UNL     1      -2.941  -2.217  24.380  0.00  0.00    +0.163 A 
ATOM     32  C   UNL     1      -3.371  -2.885  24.602  0.00  0.00    +0.042 A 
ATOM     33  C   UNL     1      -4.108  -2.846  24.233  0.00  0.00    +0.044 A 
ATOM     34  C   UNL     1      -4.133  -2.155  23.783  0.00  0.00    +0.180 A 
ATOM     35  O   UNL     1      -3.411  -1.766  23.874  0.00  0.00    -0.449 OA
ENDBRANCH  26  31
ENDBRANCH  23  24
BRANCH  16  15
ATOM     15  C   UNL     1      -0.229   2.228  25.186  0.00  0.00    +0.131 C 
BRANCH  15  14
ATOM     14  N   UNL     1      -0.426   2.877  24.716  0.00  0.00    -0.076 NA
BRANCH  14  11
ATOM     11  S   UNL     1      -0.986   3.422  24.980  0.00  0.00    +0.080 S 
ATOM     12  O   UNL     1      -0.619   3.442  25.719  0.00  0.00    -0.151 OA
ATOM     13  O   UNL     1      -1.353   3.402  24.242  0.00  0.00    -0.151 OA
BRANCH  11   9
ATOM      3  C   UNL     1      -2.793   4.250  25.882  0.00  0.00    +0.140 A 
ATOM      4  C   UNL     1      -2.666   5.058  25.771  0.00  0.00    +0.040 A 
ATOM      5  C   UNL     1      -1.980   5.320  25.396  0.00  0.00    +0.041 A 
ATOM      6  C   UNL     1      -1.419   4.775  25.133  0.00  0.00    +0.157 A 
ATOM      9  C   UNL     1      -1.546   3.968  25.244  0.00  0.00    +0.160 A 
ATOM     10  C   UNL     1      -2.233   3.705  25.618  0.00  0.00    +0.060 A 
BRANCH   3   2
ATOM      1  C   UNL     1      -4.162   3.847  25.815  0.00  0.00    +0.252 C 
ATOM      2  O   UNL     1      -3.480   3.988  26.257  0.00  0.00    -0.471 OA
ENDBRANCH   3   2
BRANCH   6   7
ATOM      7  O   UNL     1      -0.733   5.037  24.758  0.00  0.00    -0.470 OA
ATOM      8  C   UNL     1      -0.619   5.843  24.622  0.00  0.00    +0.253 C 
ENDBRANCH   6   7
ENDBRANCH  11   9
ENDBRANCH  14  11
ENDBRANCH  15  14
ENDBRANCH  16  15
TORSDOF 8
ENDMDL
MODEL 2
REMARK VINA RESULT:      -8.8      2.128      6.483
REMARK  Name = 
REMARK  8 active torsions:
REMARK  status: ('A' for Active; 'I' for Inactive)
REMARK    1  A    between atoms: O_2  and  C_3
REMARK    2  A    between atoms: C_6  and  O_7
REMARK    3  A    between atoms: C_9  and  S_11
REMARK    4  A    between atoms: S_11  and  N_14
REMARK    5  A    between atoms: N_14  and  C_15
REMARK    6  A    between atoms: C_15  and  C_16
REMARK    7  A    between atoms: C_23  and  C_24
REMARK    8  A    between atoms: C_26  and  C_31
REMARK                            x       y       z     vdW  Elec       q    Type
REMARK                         _______ _______ _______ _____ _____    ______ ____
ROOT
ATOM     16  C   UNL     1      -4.375   1.057  24.700  0.00  0.00    +0.077 C 
ATOM     17  C   UNL     1      -4.475   1.764  24.391  0.00  0.00    +0.018 C 
ATOM     18  C   UNL     1      -4.119   2.445  24.647  0.00  0.00    +0.010 C 
ATOM     19  C   UNL     1      -4.366   3.155  24.157  0.00  0.00    +0.018 C 
ATOM     20  C   UNL     1      -4.359   2.525  24.331  0.00  0.00    +0.072 C 
ATOM     21  N   UNL     1      -4.016   1.755  24.955  0.00  0.00    -0.272 NA
ATOM     22  C   UNL     1      -3.428   1.928  25.631  0.00  0.00    +0.078 C 
ATOM     23  C   UNL     1      -3.553   2.604  25.299  0.00  0.00    +0.056 C 
ENDROOT
BRANCH  23  24
ATOM     24  C   UNL     1      -3.225   3.332  25.509  0.00  0.00    +0.063 A 
ATOM     25  C   UNL     1      -2.498   3.562  25.194  0.00  0.00    +0.037 A 
ATOM     26  C   UNL     1      -2.171   4.289  25.404  0.00  0.00    +0.118 A 
ATOM     27  N   UNL     1      -2.570   4.787  25.928  0.00  0.00    -0.228 NA
ATOM     28  C   UNL     1      -3.297   4.556  26.242  0.00  0.00    +0.139 A 
ATOM     29  C   UNL     1      -3.697   5.053  26.765  0.00  0.00    +0.074 C 
ATOM     30  N   UNL     1      -3.625   3.828  26.032  0.00  0.00    -0.235 NA
BRANCH  26  31
ATOM     31  C   UNL     1      -1.443   4.520  25.091  0.00  0.00    +0.163 A 
ATOM     32  C   UNL     1      -1.239   5.284  24.852  0.00  0.00    +0.042 A 
ATOM     33  C   UNL     1      -0.462   5.264  24.575  0.00  0.00    +0.044 A 
ATOM     34  C   UNL     1      -0.186   4.489  24.642  0.00  0.00    +0.180 A 
ATOM     35  O   UNL     1      -0.793   4.030  24.961  0.00  0.00    -0.449 OA
ENDBRANCH  26  31
ENDBRANCH  23  24
BRANCH  16  15
ATOM     15  C   UNL     1      -4.516   0.245  24.741  0.00  0.00    +0.131 C 
BRANCH  15  14
ATOM     14  N   UNL     1      -4.336  -0.238  24.098  0.00  0.00    -0.076 NA
BRANCH  14  11
ATOM     11  S   UNL     1      -3.910  -0.935  24.212  0.00  0.00    +0.080 S 
ATOM     12  O   UNL     1      -4.275  -1.040  24.943  0.00  0.00    -0.151 OA
ATOM     13  O   UNL     1      -3.544  -0.830  23.480  0.00  0.00    -0.151 OA
BRANCH  11   9
ATOM      3  C   UNL     1      -2.319  -2.305  24.808  0.00  0.00    +0.140 A 
ATOM      4  C   UNL     1      -2.629  -3.025  24.552  0.00  0.00    +0.040 A 
ATOM      5  C   UNL     1      -3.366  -3.048  24.183  0.00  0.00    +0.041 A 
ATOM      6  C   UNL     1      -3.793  -2.352  24.069  0.00  0.00    +0.157 A 
ATOM      9  C   UNL     1      -3.483  -1.632  24.325  0.00  0.00    +0.160 A 
ATOM     10  C   UNL     1      -2.745  -1.608  24.695  0.00  0.00    +0.060 A 
BRANCH   3   2
ATOM      1  C   UNL     1      -0.893  -2.250  24.724  0.00  0.00    +0.252 C 
ATOM      2  O   UNL     1      -1.581  -2.281  25.178  0.00  0.00    -0.471 OA
ENDBRANCH   3   2
BRANCH   6   7
ATOM      7  O   UNL     1      -4.530  -2.375  23.700  0.00  0.00    -0.470 OA
ATOM      8  C   UNL     1      -4.830  -3.093  23.423  0.00  0.00    +0.253 C 
ENDBRANCH   6   7
ENDBRANCH  11   9
ENDBRANCH  14  11
ENDBRANCH  15  14
ENDBRANCH  16  15
TORSDOF 8
ENDMDL
MODEL 3
REMARK VINA RESULT:      -8.6      2.559      4.309
REMARK  Name = 
REMARK  8 active torsions:
REMARK  status: ('A' for Active; 'I' for Inactive)
REMARK    1  A    between atoms: O_2  and  C_3
REMARK    2  A    between atoms: C_6  and  O_7
REMARK    3  A    between atoms: C_9  and  S_11
REMARK    4  A    between atoms: S_11  and  N_14
REMARK    5  A    between atoms: N_14  and  C_15
REMARK    6  A    between atoms: C_15  and  C_16
REMARK    7  A    between atoms: C_23  and  C_24
REMARK    8  A    between atoms: C_26  and  C_31
REMARK                            x       y       z     vdW  Elec       q    Type
REMARK                         _______ _______ _______ _____ _____    ______ ____
ROOT
ATOM     16  C   UNL     1      -1.020   0.685  24.521  0.00  0.00    +0.077 C 
ATOM     17  C   UNL     1      -0.652   0.005  24.442  0.00  0.00    +0.018 C 
ATOM     18  C   UNL     1      -0.033  -0.142  23.941  0.00  0.00    +0.010 C 
ATOM     19  C   UNL     1       0.251  -0.990  24.000  0.00  0.00    +0.018 C 
ATOM     20  C   UNL     1      -0.125  -0.477  24.148  0.00  0.00    +0.072 C 
ATOM     21  N   UNL     1      -0.389   0.528  24.012  0.00  0.00    -0.272 NA
ATOM     22  C   UNL     1       0.058   1.053  23.414  0.00  0.00    +0.078 C 
ATOM     23  C   UNL     1       0.393   0.368  23.368  0.00  0.00    +0.056 C 
ENDROOT
BRANCH  23  24
ATOM     24  C   UNL     1       1.024   0.153  22.880  0.00  0.00    +0.063 A 
ATOM     25  C   UNL     1       1.798   0.322  23.110  0.00  0.00    +0.037 A 
ATOM     26  C   UNL     1       2.428   0.107  22.623  0.00  0.00    +0.118 A 
ATOM     27  N   UNL     1       2.284  -0.276  21.907  0.00  0.00    -0.228 NA
ATOM     28  C   UNL     1       1.510  -0.444  21.678  0.00  0.00    +0.139 A 
ATOM     29  C   UNL     1       1.365  -0.828  20.961  0.00  0.00    +0.074 C 
ATOM     30  N   UNL     1       0.879  -0.229  22.165  0.00  0.00    -0.235 NA
BRANCH  26  31
ATOM     31  C   UNL     1       3.203   0.275  22.852  0.00  0.00    +0.163 A 
ATOM     32  C   UNL     1       3.602   0.985  22.722  0.00  0.00    +0.042 A 
ATOM     33  C   UNL     1       4.360   0.911  23.041  0.00  0.00    +0.044 A 
ATOM     34  C   UNL     1       4.428   0.157  23.367  0.00  0.00    +0.180 A 
ATOM     35  O   UNL     1       3.713  -0.236  23.250  0.00  0.00    -0.449 OA
ENDBRANCH  26  31
ENDBRANCH  23  24
BRANCH  16  15
ATOM     15  C   UNL     1      -1.592   1.178  24.852  0.00  0.00    +0.131 C 
BRANCH  15  14
ATOM     14  N   UNL     1      -2.383   1.101  24.630  0.00  0.00    -0.076 NA
BRANCH  14  11
ATOM     11  S   UNL     1      -2.927   1.687  24.833  0.00  0.00    +0.080 S 
ATOM     12  O   UNL     1      -2.865   1.469  25.626  0.00  0.00    -0.151 OA
ATOM     13  O   UNL     1      -2.989   1.904  24.040  0.00  0.00    -0.151 OA
BRANCH  11   9
ATOM      3  C   UNL     1      -3.754   3.617  25.427  0.00  0.00    +0.140 A 
ATOM      4  C   UNL     1      -4.560   3.443  25.442  0.00  0.00    +0.040 A 
ATOM      5  C   UNL     1      -4.822   2.684  25.254  0.00  0.00    +0.041 A 
ATOM      6  C   UNL     1      -4.278   2.098  25.051  0.00  0.00    +0.157 A 
ATOM      9  C   UNL     1      -3.472   2.272  25.036  0.00  0.00    +0.160 A 
ATOM     10  C   UNL     1      -3.210   3.032  25.224  0.00  0.00    +0.060 A 
BRANCH   3   2
ATOM      1  C   UNL     1      -3.225   4.544  26.377  0.00  0.00    +0.252 C 
ATOM      2  O   UNL     1      -3.492   4.377  25.615  0.00  0.00    -0.471 OA
ENDBRANCH   3   2
BRANCH   6   7
ATOM      7  O   UNL     1      -4.540   1.339  24.864  0.00  0.00    -0.470 OA
ATOM      8  C   UNL     1      -5.343   1.155  24.912  0.00  0.00    +0.253 C 
ENDBRANCH   6   7
ENDBRANCH  11   9
ENDBRANCH  14  11
ENDBRANCH  15  14
ENDBRANCH  16  15
TORSDOF 8
ENDMDL
MODEL 4
REMARK VINA RESULT:      -8.4      2.992      5.178
REMARK  Name = 
REMARK  8 active torsions:
REMARK  status: ('A' for Active; 'I' for Inactive)
REMARK    1  A    between atoms: O_2  and  C_3
REMARK    2  A    between atoms: C_6  and  O_7
REMARK    3  A    between atoms: C_9  and  S_11
REMARK    4  A    between atoms: S_11  and  N_14
REMARK    5  A    between atoms: N_14  and  C_15
REMARK    6  A    between atoms: C_15  and  C_16
REMARK    7  A    between atoms: C_23  and  C_24
REMARK    8  A    between atoms: C_26  and  C_31
REMARK                            x       y       z     vdW  Elec       q    Type
REMARK                         _______ _______ _______ _____ _____    ______ ____
ROOT
ATOM     16  C   UNL     1      -0.443   0.555  24.344  0.00  0.00    +0.077 C 
ATOM     17  C   UNL     1      -0.874   0.364  24.964  0.00  0.00    +0.018 C 
ATOM     18  C   UNL     1      -1.683   0.363  24.993  0.00  0.00    +0.010 C 
ATOM     19  C   UNL     1      -1.988   0.112  25.798  0.00  0.00    +0.018 C 
ATOM     20  C   UNL     1      -1.533   0.249  25.350  0.00  0.00    +0.072 C 
ATOM     21  N   UNL     1      -1.268   0.551  24.382  0.00  0.00    -0.272 NA
ATOM     22  C   UNL     1      -1.908   0.753  23.764  0.00  0.00    +0.078 C 
ATOM     23  C   UNL     1      -2.294   0.559  24.393  0.00  0.00    +0.056 C 
ENDROOT
BRANCH  23  24
ATOM     24  C   UNL     1      -3.113   0.537  24.490  0.00  0.00    +0.063 A 
ATOM     25  C   UNL     1      -3.517   1.213  24.736  0.00  0.00    +0.037 A 
ATOM     26  C   UNL     1      -4.336   1.191  24.832  0.00  0.00    +0.118 A 
ATOM     27  N   UNL     1      -4.751   0.494  24.682  0.00  0.00    -0.228 NA
ATOM     28  C   UNL     1      -4.347  -0.182  24.436  0.00  0.00    +0.139 A 
ATOM     29  C   UNL     1      -4.761  -0.879  24.286  0.00  0.00    +0.074 C 
ATOM     30  N   UNL     1      -3.527  -0.160  24.340  0.00  0.00    -0.235 NA
BRANCH  26  31
ATOM     31  C   UNL     1      -4.741   1.867  25.079  0.00  0.00    +0.163 A 
ATOM     32  C   UNL     1      -4.773   2.586  24.675  0.00  0.00    +0.042 A 
ATOM     33  C   UNL     1      -5.237   3.105  25.119  0.00  0.00    +0.044 A 
ATOM     34  C   UNL     1      -5.491   2.707  25.795  0.00  0.00    +0.180 A 
ATOM     35  O   UNL     1      -5.184   1.941  25.770  0.00  0.00    -0.449 OA
ENDBRANCH  26  31
ENDBRANCH  23  24
BRANCH  16  15
ATOM     15  C   UNL     1       0.274   0.670  23.955  0.00  0.00    +0.131 C 
BRANCH  15  14
ATOM     14  N   UNL     1       0.759   0.025  23.783  0.00  0.00    -0.076 NA
BRANCH  14  11
ATOM     11  S   UNL     1       1.454   0.135  23.351  0.00  0.00    +0.080 S 
ATOM     12  O   UNL     1       1.248   0.922  23.219  0.00  0.00    -0.151 OA
ATOM     13  O   UNL     1       1.660  -0.653  23.484  0.00  0.00    -0.151 OA
BRANCH  11   9
ATOM      3  C   UNL     1       3.506   0.684  22.852  0.00  0.00    +0.140 A 
ATOM      4  C   UNL     1       3.538   0.462  22.058  0.00  0.00    +0.040 A 
ATOM      5  C   UNL     1       2.876   0.131  21.696  0.00  0.00    +0.041 A 
ATOM      6  C   UNL     1       2.180   0.021  22.127  0.00  0.00    +0.157 A 
ATOM      9  C   UNL     1       2.148   0.244  22.920  0.00  0.00    +0.160 A 
ATOM     10  C   UNL     1       2.811   0.575  23.283  0.00  0.00    +0.060 A 
BRANCH   3   2
ATOM      1  C   UNL     1       4.875   0.591  23.250  0.00  0.00    +0.252 C 
ATOM      2  O   UNL     1       4.169   1.016  23.215  0.00  0.00    -0.471 OA
ENDBRANCH   3   2
BRANCH   6   7
ATOM      7  O   UNL     1       1.518  -0.310  21.764  0.00  0.00    -0.470 OA
ATOM      8  C   UNL     1       1.580  -0.635  21.008  0.00  0.00    +0.253 C 
ENDBRANCH   6   7
ENDBRANCH  11   9
ENDBRANCH  14  11
ENDBRANCH  15  14
ENDBRANCH  16  15
TORSDOF 8
ENDMDL
MODEL 5
REMARK VINA RESULT:      -8.4      3.141      5.590
REMARK  Name = 
REMARK  8 active torsions:
REMARK  status: ('A' for Active; 'I' for Inactive)
REMARK    1  A    between atoms: O_2  and  C_3
REMARK    2  A    between atoms: C_6  and  O_7
REMARK    3  A    between atoms: C_9  and  S_11
REMARK    4  A    between atoms: S_11  and  N_14
REMARK    5  A    between atoms: N_14  and  C_15
REMARK    6  A    between atoms: C_15  and  C_16
REMARK    7  A    between atoms: C_23  and  C_24
REMARK    8  A    between atoms: C_26  and  C_31
REMARK                            x       y       z     vdW  Elec       q    Type
REMARK                         _______ _______ _______ _____ _____    ______ ____
ROOT
ATOM     16  C   UNL     1       0.055   1.900  24.488  0.00  0.00    +0.077 C 
ATOM     17  C   UNL     1      -0.304   1.864  25.177  0.00  0.00    +0.018 C 
ATOM     18  C   UNL     1      -1.004   2.226  25.364  0.00  0.00    +0.010 C 
ATOM     19  C   UNL     1      -1.249   2.061  26.211  0.00  0.00    +0.018 C 
ATOM     20  C   UNL     1      -0.865   2.021  25.684  0.00  0.00    +0.072 C 
ATOM     21  N   UNL     1      -0.658   2.266  24.686  0.00  0.00    -0.272 NA
ATOM     22  C   UNL     1      -1.226   2.795  24.206  0.00  0.00    +0.078 C 
ATOM     23  C   UNL     1      -1.545   2.735  24.897  0.00  0.00    +0.056 C 
ENDROOT
BRANCH  23  24
ATOM     24  C   UNL     1      -2.253   3.076  25.151  0.00  0.00    +0.063 A 
ATOM     25  C   UNL     1      -2.966   2.675  25.043  0.00  0.00    +0.037 A 
ATOM     26  C   UNL     1      -3.672   3.016  25.297  0.00  0.00    +0.118 A 
ATOM     27  N   UNL     1      -3.666   3.758  25.659  0.00  0.00    -0.228 NA
ATOM     28  C   UNL     1      -2.953   4.158  25.767  0.00  0.00    +0.139 A 
ATOM     29  C   UNL     1      -2.947   4.899  26.130  0.00  0.00    +0.074 C 
ATOM     30  N   UNL     1      -2.246   3.816  25.513  0.00  0.00    -0.235 NA
BRANCH  26  31
ATOM     31  C   UNL     1      -4.386   2.616  25.189  0.00  0.00    +0.163 A 
ATOM     32  C   UNL     1      -4.705   2.381  24.465  0.00  0.00    +0.042 A 
ATOM     33  C   UNL     1      -5.422   2.001  24.615  0.00  0.00    +0.044 A 
ATOM     34  C   UNL     1      -5.546   2.002  25.430  0.00  0.00    +0.180 A 
ATOM     35  O   UNL     1      -4.906   2.382  25.785  0.00  0.00    -0.449 OA
ENDBRANCH  26  31
ENDBRANCH  23  24
BRANCH  16  15
ATOM     15  C   UNL     1       0.668   1.717  23.967  0.00  0.00    +0.131 C 
BRANCH  15  14
ATOM     14  N   UNL     1       0.879   0.930  23.839  0.00  0.00    -0.076 NA
BRANCH  14  11
ATOM     11  S   UNL     1       1.568   0.751  23.422  0.00  0.00    +0.080 S 
ATOM     12  O   UNL     1       1.657   1.547  23.225  0.00  0.00    -0.151 OA
ATOM     13  O   UNL     1       1.480  -0.045  23.620  0.00  0.00    -0.151 OA
BRANCH  11   9
ATOM      3  C   UNL     1       3.677   0.655  22.867  0.00  0.00    +0.140 A 
ATOM      4  C   UNL     1       3.635   0.212  22.173  0.00  0.00    +0.040 A 
ATOM      5  C   UNL     1       2.905  -0.052  21.895  0.00  0.00    +0.041 A 
ATOM      6  C   UNL     1       2.215   0.128  22.311  0.00  0.00    +0.157 A 
ATOM      9  C   UNL     1       2.257   0.571  23.005  0.00  0.00    +0.160 A 
ATOM     10  C   UNL     1       2.988   0.835  23.284  0.00  0.00    +0.060 A 
BRANCH   3   2
ATOM      1  C   UNL     1       5.020   0.380  23.268  0.00  0.00    +0.252 C 
ATOM      2  O   UNL     1       4.408   0.918  23.145  0.00  0.00    -0.471 OA
ENDBRANCH   3   2
BRANCH   6   7
ATOM      7  O   UNL     1       1.485  -0.135  22.033  0.00  0.00    -0.470 OA
ATOM      8  C   UNL     1       1.440  -0.551  21.322  0.00  0.00    +0.253 C 
ENDBRANCH   6   7
ENDBRANCH  11   9
ENDBRANCH  14  11
ENDBRANCH  15  14
ENDBRANCH  16  15
TORSDOF 8
ENDMDL
MODEL 6
REMARK VINA RESULT:      -7.6      2.278      5.439
REMARK  Name = 
REMARK  8 active torsions:
REMARK  status: ('A' for Active; 'I' for Inactive)
REMARK    1  A    between atoms: O_2  and  C_3
REMARK    2  A    between atoms: C_6  and  O_7
REMARK    3  A    between atoms: C_9  and  S_11
REMARK    4  A    between atoms: S_11  and  N_14
REMARK    5  A    between atoms: N_14  and  C_15
REMARK    6  A    between atoms: C_15  and  C_16
REMARK    7  A    between atoms: C_23  and  C_24
REMARK    8  A    between atoms: C_26  and  C_31
REMARK                            x       y       z     vdW  Elec       q    Type
REMARK                         _______ _______ _______ _____ _____    ______ ____
ROOT
ATOM     16  C   UNL     1      -1.381   3.012  24.779  0.00  0.00    +0.077 C 
ATOM     17  C   UNL     1      -1.708   3.410  25.363  0.00  0.00    +0.018 C 
ATOM     18  C   UNL     1      -2.502   3.531  25.464  0.00  0.00    +0.010 C 
ATOM     19  C   UNL     1      -2.675   4.014  26.199  0.00  0.00    +0.018 C 
ATOM     20  C   UNL     1      -2.296   3.708  25.764  0.00  0.00    +0.072 C 
ATOM     21  N   UNL     1      -2.189   3.141  24.889  0.00  0.00    -0.272 NA
ATOM     22  C   UNL     1      -2.919   2.883  24.405  0.00  0.00    +0.078 C 
ATOM     23  C   UNL     1      -3.200   3.280  24.994  0.00  0.00    +0.056 C 
ENDROOT
BRANCH  23  24
ATOM     24  C   UNL     1      -3.993   3.440  25.155  0.00  0.00    +0.063 A 
ATOM     25  C   UNL     1      -4.481   2.845  25.455  0.00  0.00    +0.037 A 
ATOM     26  C   UNL     1      -5.274   3.005  25.615  0.00  0.00    +0.118 A 
ATOM     27  N   UNL     1      -5.580   3.759  25.476  0.00  0.00    -0.228 NA
ATOM     28  C   UNL     1      -5.092   4.353  25.177  0.00  0.00    +0.139 A 
ATOM     29  C   UNL     1      -5.397   5.106  25.038  0.00  0.00    +0.074 C 
ATOM     30  N   UNL     1      -4.298   4.193  25.016  0.00  0.00    -0.235 NA
BRANCH  26  31
ATOM     31  C   UNL     1      -5.762   2.411  25.915  0.00  0.00    +0.163 A 
ATOM     32  C   UNL     1      -6.024   1.746  25.503  0.00  0.00    +0.042 A 
ATOM     33  C   UNL     1      -6.498   1.302  26.013  0.00  0.00    +0.044 A 
ATOM     34  C   UNL     1      -6.529   1.693  26.738  0.00  0.00    +0.180 A 
ATOM     35  O   UNL     1      -6.074   2.379  26.677  0.00  0.00    -0.449 OA
ENDBRANCH  26  31
ENDBRANCH  23  24
BRANCH  16  15
ATOM     15  C   UNL     1      -0.734   2.705  24.370  0.00  0.00    +0.131 C 
BRANCH  15  14
ATOM     14  N   UNL     1      -0.217   2.184  24.748  0.00  0.00    -0.076 NA
BRANCH  14  11
ATOM     11  S   UNL     1       0.154   1.587  24.316  0.00  0.00    +0.080 S 
ATOM     12  O   UNL     1      -0.123   1.921  23.614  0.00  0.00    -0.151 OA
ATOM     13  O   UNL     1       0.431   1.253  25.017  0.00  0.00    -0.151 OA
BRANCH  11   9
ATOM      3  C   UNL     1       1.625   0.538  23.091  0.00  0.00    +0.140 A 
ATOM      4  C   UNL     1       1.270  -0.204  23.023  0.00  0.00    +0.040 A 
ATOM      5  C   UNL     1       0.544  -0.349  23.386  0.00  0.00    +0.041 A 
ATOM      6  C   UNL     1       0.172   0.248  23.817  0.00  0.00    +0.157 A 
ATOM      9  C   UNL     1       0.526   0.990  23.885  0.00  0.00    +0.160 A 
ATOM     10  C   UNL     1       1.253   1.135  23.522  0.00  0.00    +0.060 A 
BRANCH   3   2
ATOM      1  C   UNL     1       2.799   0.054  22.436  0.00  0.00    +0.252 C 
ATOM      2  O   UNL     1       2.352   0.683  22.728  0.00  0.00    -0.471 OA
ENDBRANCH   3   2
BRANCH   6   7
ATOM      7  O   UNL     1      -0.554   0.103  24.180  0.00  0.00    -0.470 OA
ATOM      8  C   UNL     1      -0.865  -0.661  24.192  0.00  0.00    +0.253 C 
ENDBRANCH   6   7
ENDBRANCH  11   9
ENDBRANCH  14  11
ENDBRANCH  15  14
ENDBRANCH  16  15
TORSDOF 8
ENDMDL
MODEL 7
REMARK VINA RESULT:      -7.5      2.283      3.677
REMARK  Name = 
REMARK  8 active torsions:
REMARK  status: ('A' for Active; 'I' for Inactive)
REMARK    1  A    between atoms: O_2  and  C_3
REMARK    2  A    between atoms: C_6  and  O_7
REMARK    3  A    between atoms: C_9  and  S_11
REMARK    4  A    between atoms: S_11  and  N_14
REMARK    5  A    between atoms: N_14  and  C_15
REMARK    6  A    between atoms: C_15  and  C_16
REMARK    7  A    between atoms: C_23  and  C_24
REMARK    8  A    between atoms: C_26  and  C_31
REMARK                            x       y       z     vdW  Elec       q    Type
REMARK                         _______ _______ _______ _____ _____    ______ ____
ROOT
ATOM     16  C   UNL     1      -1.881   2.649  24.378  0.00  0.00    +0.077 C 
ATOM     17  C   UNL     1      -1.163   2.527  24.653  0.00  0.00    +0.018 C 
ATOM     18  C   UNL     1      -0.715   1.865  24.524  0.00  0.00    +0.010 C 
ATOM     19  C   UNL     1       0.084   1.919  24.927  0.00  0.00    +0.018 C 
ATOM     20  C   UNL     1      -0.511   2.127  24.754  0.00  0.00    +0.072 C 
ATOM     21  N   UNL     1      -1.418   1.977  24.251  0.00  0.00    -0.272 NA
ATOM     22  C   UNL     1      -1.573   1.208  23.784  0.00  0.00    +0.078 C 
ATOM     23  C   UNL     1      -0.871   1.128  24.073  0.00  0.00    +0.056 C 
ENDROOT
BRANCH  23  24
ATOM     24  C   UNL     1      -0.364   0.483  23.980  0.00  0.00    +0.063 A 
ATOM     25  C   UNL     1       0.274   0.532  23.458  0.00  0.00    +0.037 A 
ATOM     26  C   UNL     1       0.780  -0.113  23.366  0.00  0.00    +0.118 A 
ATOM     27  N   UNL     1       0.649  -0.805  23.794  0.00  0.00    -0.228 NA
ATOM     28  C   UNL     1       0.012  -0.853  24.316  0.00  0.00    +0.139 A 
ATOM     29  C   UNL     1      -0.119  -1.546  24.745  0.00  0.00    +0.074 C 
ATOM     30  N   UNL     1      -0.495  -0.209  24.408  0.00  0.00    -0.235 NA
BRANCH  26  31
ATOM     31  C   UNL     1       1.418  -0.065  22.844  0.00  0.00    +0.163 A 
ATOM     32  C   UNL     1       1.418  -0.309  22.056  0.00  0.00    +0.042 A 
ATOM     33  C   UNL     1       2.167  -0.160  21.744  0.00  0.00    +0.044 A 
ATOM     34  C   UNL     1       2.629   0.175  22.339  0.00  0.00    +0.180 A 
ATOM     35  O   UNL     1       2.166   0.234  23.019  0.00  0.00    -0.449 OA
ENDBRANCH  26  31
ENDBRANCH  23  24
BRANCH  16  15
ATOM     15  C   UNL     1      -2.567   3.097  24.286  0.00  0.00    +0.131 C 
BRANCH  15  14
ATOM     14  N   UNL     1      -2.945   3.414  24.947  0.00  0.00    -0.076 NA
BRANCH  14  11
ATOM     11  S   UNL     1      -3.742   3.251  25.083  0.00  0.00    +0.080 S 
ATOM     12  O   UNL     1      -3.908   3.388  24.287  0.00  0.00    -0.151 OA
ATOM     13  O   UNL     1      -3.577   3.114  25.880  0.00  0.00    -0.151 OA
BRANCH  11   9
ATOM      3  C   UNL     1      -5.616   2.151  25.290  0.00  0.00    +0.140 A 
ATOM      4  C   UNL     1      -6.133   2.761  25.495  0.00  0.00    +0.040 A 
ATOM      5  C   UNL     1      -5.853   3.533  25.562  0.00  0.00    +0.041 A 
ATOM      6  C   UNL     1      -5.056   3.697  25.425  0.00  0.00    +0.157 A 
ATOM      9  C   UNL     1      -4.539   3.088  25.221  0.00  0.00    +0.160 A 
ATOM     10  C   UNL     1      -4.820   2.314  25.153  0.00  0.00    +0.060 A 
BRANCH   3   2
ATOM      1  C   UNL     1      -6.581   1.224  24.789  0.00  0.00    +0.252 C 
ATOM      2  O   UNL     1      -5.897   1.378  25.222  0.00  0.00    -0.471 OA
ENDBRANCH   3   2
BRANCH   6   7
ATOM      7  O   UNL     1      -4.776   4.470  25.493  0.00  0.00    -0.470 OA
ATOM      8  C   UNL     1      -5.300   5.086  25.656  0.00  0.00    +0.253 C 
ENDBRANCH   6   7
ENDBRANCH  11   9
ENDBRANCH  14  11
ENDBRANCH  15  14
ENDBRANCH  16  15
TORSDOF 8
ENDMDL
MODEL 8
REMARK VINA RESULT:      -7.3      1.820      2.958
REMARK  Name = 
REMARK  8 active torsions:
REMARK  status: ('A' for Active; 'I' for Inactive)
REMARK    1  A    between atoms: O_2  and  C_3
REMARK    2  A    between atoms: C_6  and  O_7
REMARK    3  A    between atoms: C_9  and  S_11
REMARK    4  A    between atoms: S_11  and  N_14
REMARK    5  A    between atoms: N_14  and  C_15
REMARK    6  A    between atoms: C_15  and  C_16
REMARK    7  A    between atoms: C_23  and  C_24
REMARK    8  A    between atoms: C_26  and  C_31
REMARK                            x       y       z     vdW  Elec       q    Type
REMARK                         _______ _______ _______ _____ _____    ______ ____
ROOT
ATOM     16  C   UNL     1      -3.955   1.976  24.613  0.00  0.00    +0.077 C 
ATOM     17  C   UNL     1      -4.322   1.405  24.994  0.00  0.00    +0.018 C 
ATOM     18  C   UNL     1      -4.220   0.612  24.867  0.00  0.00    +0.010 C 
ATOM     19  C   UNL     1      -4.735   0.118  25.410  0.00  0.00    +0.018 C 
ATOM     20  C   UNL     1      -4.492   0.671  25.161  0.00  0.00    +0.072 C 
ATOM     21  N   UNL     1      -3.857   1.166  24.489  0.00  0.00    -0.272 NA
ATOM     22  C   UNL     1      -3.330   0.696  23.911  0.00  0.00    +0.078 C 
ATOM     23  C   UNL     1      -3.710   0.167  24.308  0.00  0.00    +0.056 C 
ENDROOT
BRANCH  23  24
ATOM     24  C   UNL     1      -3.653  -0.653  24.229  0.00  0.00    +0.063 A 
ATOM     25  C   UNL     1      -2.954  -1.039  24.435  0.00  0.00    +0.037 A 
ATOM     26  C   UNL     1      -2.898  -1.858  24.356  0.00  0.00    +0.118 A 
ATOM     27  N   UNL     1      -3.540  -2.291  24.071  0.00  0.00    -0.228 NA
ATOM     28  C   UNL     1      -4.239  -1.904  23.866  0.00  0.00    +0.139 A 
ATOM     29  C   UNL     1      -4.882  -2.336  23.582  0.00  0.00    +0.074 C 
ATOM     30  N   UNL     1      -4.295  -1.084  23.945  0.00  0.00    -0.235 NA
BRANCH  26  31
ATOM     31  C   UNL     1      -2.198  -2.246  24.561  0.00  0.00    +0.163 A 
ATOM     32  C   UNL     1      -1.950  -2.422  25.328  0.00  0.00    +0.042 A 
ATOM     33  C   UNL     1      -1.223  -2.810  25.276  0.00  0.00    +0.044 A 
ATOM     34  C   UNL     1      -1.023  -2.873  24.478  0.00  0.00    +0.180 A 
ATOM     35  O   UNL     1      -1.626  -2.524  24.036  0.00  0.00    -0.449 OA
ENDBRANCH  26  31
ENDBRANCH  23  24
BRANCH  16  15
ATOM     15  C   UNL     1      -3.792   2.769  24.455  0.00  0.00    +0.131 C 
BRANCH  15  14
ATOM     14  N   UNL     1      -3.488   3.254  25.049  0.00  0.00    -0.076 NA
BRANCH  14  11
ATOM     11  S   UNL     1      -2.733   3.577  24.970  0.00  0.00    +0.080 S 
ATOM     12  O   UNL     1      -2.568   3.384  25.755  0.00  0.00    -0.151 OA
ATOM     13  O   UNL     1      -2.898   3.771  24.186  0.00  0.00    -0.151 OA
BRANCH  11   9
ATOM      3  C   UNL     1      -0.606   3.763  24.519  0.00  0.00    +0.140 A 
ATOM      4  C   UNL     1      -0.469   4.547  24.733  0.00  0.00    +0.040 A 
ATOM      5  C   UNL     1      -1.086   5.009  25.026  0.00  0.00    +0.041 A 
ATOM      6  C   UNL     1      -1.842   4.686  25.105  0.00  0.00    +0.157 A 
ATOM      9  C   UNL     1      -1.979   3.901  24.891  0.00  0.00    +0.160 A 
ATOM     10  C   UNL     1      -1.360   3.439  24.598  0.00  0.00    +0.060 A 
BRANCH   3   2
ATOM      1  C   UNL     1       0.217   2.598  24.605  0.00  0.00    +0.252 C 
ATOM      2  O   UNL     1       0.012   3.301  24.226  0.00  0.00    -0.471 OA
ENDBRANCH   3   2
BRANCH   6   7
ATOM      7  O   UNL     1      -2.459   5.147  25.398  0.00  0.00    -0.470 OA
ATOM      8  C   UNL     1      -2.352   5.958  25.509  0.00  0.00    +0.253 C 
ENDBRANCH   6   7
ENDBRANCH  11   9
ENDBRANCH  14  11
ENDBRANCH  15  14
ENDBRANCH  16  15
TORSDOF 8
ENDMDL
MODEL 9
REMARK VINA RESULT:      -7.2      1.596      5.742
REMARK  Name = 
REMARK  8 active torsions:
REMARK  status: ('A' for Active; 'I' for Inactive)
REMARK    1  A    between atoms: O_2  and  C_3
REMARK    2  A    between atoms: C_6  and  O_7
REMARK    3  A    between atoms: C_9  and  S_11
REMARK    4  A    between atoms: S_11  and  N_14
REMARK    5  A    between atoms: N_14  and  C_15
REMARK    6  A    between atoms: C_15  and  C_16
REMARK    7  A    between atoms: C_23  and  C_24
REMARK    8  A    between atoms: C_26  and  C_31
REMARK                            x       y       z     vdW  Elec       q    Type
REMARK                         _______ _______ _______ _____ _____    ______ ____
ROOT
ATOM     16  C   UNL     1      -0.629   0.912  25.040  0.00  0.00    +0.077 C 
ATOM     17  C   UNL     1      -0.511   1.495  25.542  0.00  0.00    +0.018 C 
ATOM     18  C   UNL     1      -0.913   2.197  25.553  0.00  0.00    +0.010 C 
ATOM     19  C   UNL     1      -0.627   2.736  26.210  0.00  0.00    +0.018 C 
ATOM     20  C   UNL     1      -0.638   2.192  25.849  0.00  0.00    +0.072 C 
ATOM     21  N   UNL     1      -1.035   1.631  25.058  0.00  0.00    -0.272 NA
ATOM     22  C   UNL     1      -1.707   1.965  24.538  0.00  0.00    +0.078 C 
ATOM     23  C   UNL     1      -1.560   2.512  25.050  0.00  0.00    +0.056 C 
ENDROOT
BRANCH  23  24
ATOM     24  C   UNL     1      -1.931   3.247  25.115  0.00  0.00    +0.063 A 
ATOM     25  C   UNL     1      -2.746   3.287  25.237  0.00  0.00    +0.037 A 
ATOM     26  C   UNL     1      -3.116   4.021  25.303  0.00  0.00    +0.118 A 
ATOM     27  N   UNL     1      -2.673   4.714  25.246  0.00  0.00    -0.228 NA
ATOM     28  C   UNL     1      -1.858   4.673  25.124  0.00  0.00    +0.139 A 
ATOM     29  C   UNL     1      -1.414   5.366  25.067  0.00  0.00    +0.074 C 
ATOM     30  N   UNL     1      -1.487   3.939  25.058  0.00  0.00    -0.235 NA
BRANCH  26  31
ATOM     31  C   UNL     1      -3.932   4.063  25.425  0.00  0.00    +0.163 A 
ATOM     32  C   UNL     1      -4.319   3.958  26.146  0.00  0.00    +0.042 A 
ATOM     33  C   UNL     1      -5.129   4.047  26.015  0.00  0.00    +0.044 A 
ATOM     34  C   UNL     1      -5.241   4.206  25.213  0.00  0.00    +0.180 A 
ATOM     35  O   UNL     1      -4.501   4.216  24.849  0.00  0.00    -0.449 OA
ENDBRANCH  26  31
ENDBRANCH  23  24
BRANCH  16  15
ATOM     15  C   UNL     1      -0.472   0.164  24.732  0.00  0.00    +0.131 C 
BRANCH  15  14
ATOM     14  N   UNL     1      -0.582  -0.507  25.200  0.00  0.00    -0.076 NA
BRANCH  14  11
ATOM     11  S   UNL     1      -1.139  -1.075  24.983  0.00  0.00    +0.080 S 
ATOM     12  O   UNL     1      -0.871  -1.041  24.204  0.00  0.00    -0.151 OA
ATOM     13  O   UNL     1      -1.408  -1.108  25.762  0.00  0.00    -0.151 OA
BRANCH  11   9
ATOM      3  C   UNL     1      -3.014  -1.978  24.325  0.00  0.00    +0.140 A 
ATOM      4  C   UNL     1      -2.813  -2.778  24.333  0.00  0.00    +0.040 A 
ATOM      5  C   UNL     1      -2.054  -3.010  24.557  0.00  0.00    +0.041 A 
ATOM      6  C   UNL     1      -1.496  -2.443  24.774  0.00  0.00    +0.157 A 
ATOM      9  C   UNL     1      -1.697  -1.643  24.766  0.00  0.00    +0.160 A 
ATOM     10  C   UNL     1      -2.456  -1.410  24.542  0.00  0.00    +0.060 A 
BRANCH   3   2
ATOM      1  C   UNL     1      -4.302  -2.302  23.797  0.00  0.00    +0.252 C 
ATOM      2  O   UNL     1      -3.774  -1.746  24.101  0.00  0.00    -0.471 OA
ENDBRANCH   3   2
BRANCH   6   7
ATOM      7  O   UNL     1      -0.737  -2.675  24.998  0.00  0.00    -0.470 OA
ATOM      8  C   UNL     1      -0.539  -3.476  25.018  0.00  0.00    +0.253 C 
ENDBRANCH   6   7
ENDBRANCH  11   9
ENDBRANCH  14  11
ENDBRANCH  15  14
ENDBRANCH  16  15
TORSDOF 8
ENDMDL
