MODEL 1
REMARK VINA RESULT:     -18.3      0.000      0.000
REMARK  Name = 
REMARK  2 active torsions:
REMARK  status: ('A' for Active; 'I' for Inactive)
REMARK    1  A    between atoms: C_2  and  C_26
REMARK    2  A    between atoms: C_12  and  C_13
REMARK                            x       y       z     vdW  Elec       q    Type
REMARK                         _______ _______ _______ _____ _____    ______ ____
ROOT
ATOM      1  O   UNL     1      -2.380   1.996  23.070  0.00  0.00    -0.267 OA
ATOM      2  C   UNL     1      -3.033   1.824  23.641  0.00  0.00    +0.284 C 
ATOM      3  N   UNL     1      -3.442   2.513  23.930  0.00  0.00    -0.273 N 
ATOM      4  C   UNL     1      -3.524   3.344  23.928  0.00  0.00    +0.096 C 
ATOM      5  C   UNL     1      -4.277   3.438  24.561  0.00  0.00    +0.043 C 
ATOM      6  C   UNL     1      -4.879   3.682  25.052  0.00  0.00    +0.011 C 
ATOM      7  C   UNL     1      -4.584   3.076  24.854  0.00  0.00    +0.058 C 
ATOM      8  C   UNL     1      -3.856   3.002  24.240  0.00  0.00    +0.100 C 
ATOM      9  C   UNL     1      -4.644   2.169  24.984  0.00  0.00    +0.041 A 
ATOM     10  C   UNL     1      -5.080   1.609  25.404  0.00  0.00    +0.013 A 
ATOM     11  C   UNL     1      -4.906   0.807  25.326  0.00  0.00    +0.006 A 
ATOM     12  C   UNL     1      -4.296   0.564  24.827  0.00  0.00    +0.062 A 
ATOM     22  C   UNL     1      -3.859   1.123  24.406  0.00  0.00    +0.261 A 
ATOM     23  O   UNL     1      -3.075   1.083  23.742  0.00  0.00    -0.267 OA
ATOM     24  N   UNL     1      -4.033   1.926  24.485  0.00  0.00    -0.299 N 
ATOM     25  C   UNL     1      -4.332   2.488  24.690  0.00  0.00    +0.110 C 
ENDROOT
BRANCH  12  13
ATOM     13  C   UNL     1      -4.122  -0.239  24.749  0.00  0.00    +0.034 A 
ATOM     14  C   UNL     1      -4.345  -0.724  24.120  0.00  0.00    +0.007 A 
ATOM     15  C   UNL     1      -4.057  -1.482  24.267  0.00  0.00    +0.006 A 
ATOM     16  C   UNL     1      -3.656  -1.466  24.989  0.00  0.00    +0.029 A 
ATOM     17  S   UNL     1      -3.696  -0.698  25.286  0.00  0.00    -0.087 S 
ATOM     18  C   UNL     1      -3.306  -2.154  25.281  0.00  0.00    +0.006 A 
ATOM     19  C   UNL     1      -3.356  -2.857  24.852  0.00  0.00    +0.001 A 
ATOM     20  C   UNL     1      -3.757  -2.873  24.132  0.00  0.00    +0.000 A 
ATOM     21  C   UNL     1      -4.107  -2.186  23.839  0.00  0.00    +0.001 A 
ENDBRANCH  12  13
BRANCH   2  26
ATOM     26  C   UNL     1      -3.469   1.091  24.077  0.00  0.00    +0.199 A 
ATOM     27  C   UNL     1      -3.136   0.740  24.745  0.00  0.00    +0.045 A 
ATOM     28  C   UNL     1      -3.638   0.131  24.988  0.00  0.00    +0.044 A 
ATOM     29  C   UNL     1      -4.280   0.107  24.471  0.00  0.00    +0.180 A 
ATOM     30  O   UNL     1      -4.175   0.701  23.907  0.00  0.00    -0.446 OA
ENDBRANCH   2  26
TORSDOF 2
ENDMDL
MODEL 2
REMARK VINA RESULT:     -17.3      1.368      3.945
REMARK  Name = 
REMARK  2 active torsions:
REMARK  status: ('A' for Active; 'I' for Inactive)
REMARK    1  A    between atoms: C_2  and  C_26
REMARK    2  A    between atoms: C_12  and  C_13
REMARK                            x       y       z     vdW  Elec       q    Type
REMARK                         _______ _______ _______ _____ _____    ______ ____
ROOT
ATOM      1  O   UNL     1      -1.069  -0.613  25.137  0.00  0.00    -0.267 OA
ATOM      2  C   UNL     1      -1.915  -0.691  24.891  0.00  0.00    +0.284 C 
ATOM      3  N   UNL     1      -2.180  -1.493  24.779  0.00  0.00    -0.273 N 
ATOM      4  C   UNL     1      -2.001  -2.309  24.793  0.00  0.00    +0.096 C 
ATOM      5  C   UNL     1      -2.879  -2.675  24.524  0.00  0.00    +0.043 C 
ATOM      6  C   UNL     1      -3.525  -3.127  24.319  0.00  0.00    +0.011 C 
ATOM      7  C   UNL     1      -3.371  -2.446  24.394  0.00  0.00    +0.058 C 
ATOM      8  C   UNL     1      -2.516  -2.108  24.654  0.00  0.00    +0.100 C 
ATOM      9  C   UNL     1      -3.746  -1.610  24.325  0.00  0.00    +0.041 A 
ATOM     10  C   UNL     1      -4.460  -1.242  24.137  0.00  0.00    +0.013 A 
ATOM     11  C   UNL     1      -4.518  -0.420  24.158  0.00  0.00    +0.006 A 
ATOM     12  C   UNL     1      -3.862   0.035  24.367  0.00  0.00    +0.062 A 
ATOM     22  C   UNL     1      -3.148  -0.333  24.555  0.00  0.00    +0.261 A 
ATOM     23  O   UNL     1      -2.214  -0.007  24.837  0.00  0.00    -0.267 OA
ATOM     24  N   UNL     1      -3.090  -1.156  24.533  0.00  0.00    -0.299 N 
ATOM     25  C   UNL     1      -3.262  -1.797  24.455  0.00  0.00    +0.110 C 
ENDROOT
BRANCH  12  13
ATOM     13  C   UNL     1      -3.920   0.857  24.388  0.00  0.00    +0.034 A 
ATOM     14  C   UNL     1      -3.600   1.380  23.835  0.00  0.00    +0.007 A 
ATOM     15  C   UNL     1      -3.791   2.147  24.069  0.00  0.00    +0.006 A 
ATOM     16  C   UNL     1      -4.229   2.099  24.768  0.00  0.00    +0.029 A 
ATOM     17  S   UNL     1      -4.308   1.302  24.964  0.00  0.00    -0.087 S 
ATOM     18  C   UNL     1      -4.498   2.788  25.133  0.00  0.00    +0.006 A 
ATOM     19  C   UNL     1      -4.329   3.524  24.802  0.00  0.00    +0.001 A 
ATOM     20  C   UNL     1      -3.892   3.572  24.105  0.00  0.00    +0.000 A 
ATOM     21  C   UNL     1      -3.622   2.885  23.739  0.00  0.00    +0.001 A 
ENDBRANCH  12  13
BRANCH   2  26
ATOM     26  C   UNL     1      -2.687  -0.159  24.694  0.00  0.00    +0.199 A 
ATOM     27  C   UNL     1      -3.163   0.133  25.302  0.00  0.00    +0.045 A 
ATOM     28  C   UNL     1      -3.777   0.566  24.957  0.00  0.00    +0.044 A 
ATOM     29  C   UNL     1      -3.679   0.540  24.139  0.00  0.00    +0.180 A 
ATOM     30  O   UNL     1      -3.006   0.092  23.977  0.00  0.00    -0.446 OA
ENDBRANCH   2  26
TORSDOF 2
ENDMDL
MODEL 3
REMARK VINA RESULT:     -16.1      1.674      2.157
REMARK  Name = 
REMARK  2 active torsions:
REMARK  status: ('A' for Active; 'I' for Inactive)
REMARK    1  A    between atoms: C_2  and  C_26
REMARK    2  A    between atoms: C_12  and  C_13
REMARK                            x       y       z     vdW  Elec       q    Type
REMARK                         _______ _______ _______ _____ _____    ______ ____
ROOT
ATOM      1  O   UNL     1      -0.067   1.644  24.797  0.00  0.00    -0.267 OA
ATOM      2  C   UNL     1      -0.910   1.902  24.856  0.00  0.00    +0.284 C 
ATOM      3  N   UNL     1      -1.017   2.736  24.996  0.00  0.00    -0.273 N 
ATOM      4  C   UNL     1      -0.671   3.487  25.114  0.00  0.00    +0.096 C 
ATOM      5  C   UNL     1      -1.489   4.031  25.220  0.00  0.00    +0.043 C 
ATOM      6  C   UNL     1      -2.054   4.608  25.326  0.00  0.00    +0.011 C 
ATOM      7  C   UNL     1      -2.035   3.916  25.211  0.00  0.00    +0.058 C 
ATOM      8  C   UNL     1      -1.235   3.404  25.111  0.00  0.00    +0.100 C 
ATOM      9  C   UNL     1      -2.585   3.188  25.101  0.00  0.00    +0.041 A 
ATOM     10  C   UNL     1      -3.384   2.987  25.083  0.00  0.00    +0.013 A 
ATOM     11  C   UNL     1      -3.609   2.203  24.957  0.00  0.00    +0.006 A 
ATOM     12  C   UNL     1      -3.034   1.621  24.849  0.00  0.00    +0.062 A 
ATOM     22  C   UNL     1      -2.235   1.822  24.868  0.00  0.00    +0.261 A 
ATOM     23  O   UNL     1      -1.352   1.304  24.765  0.00  0.00    -0.267 OA
ATOM     24  N   UNL     1      -2.010   2.606  24.993  0.00  0.00    -0.299 N 
ATOM     25  C   UNL     1      -2.056   3.265  25.103  0.00  0.00    +0.110 C 
ENDROOT
BRANCH  12  13
ATOM     13  C   UNL     1      -3.260   0.838  24.724  0.00  0.00    +0.034 A 
ATOM     14  C   UNL     1      -3.192   0.220  25.267  0.00  0.00    +0.007 A 
ATOM     15  C   UNL     1      -3.483  -0.465  24.914  0.00  0.00    +0.006 A 
ATOM     16  C   UNL     1      -3.731  -0.272  24.150  0.00  0.00    +0.029 A 
ATOM     17  S   UNL     1      -3.593   0.533  24.033  0.00  0.00    -0.087 S 
ATOM     18  C   UNL     1      -4.050  -0.855  23.661  0.00  0.00    +0.006 A 
ATOM     19  C   UNL     1      -4.121  -1.630  23.934  0.00  0.00    +0.001 A 
ATOM     20  C   UNL     1      -3.873  -1.822  24.697  0.00  0.00    +0.000 A 
ATOM     21  C   UNL     1      -3.555  -1.241  25.186  0.00  0.00    +0.001 A 
ENDBRANCH  12  13
BRANCH   2  26
ATOM     26  C   UNL     1      -1.802   1.554  24.815  0.00  0.00    +0.199 A 
ATOM     27  C   UNL     1      -2.165   1.411  24.088  0.00  0.00    +0.045 A 
ATOM     28  C   UNL     1      -2.922   1.116  24.237  0.00  0.00    +0.044 A 
ATOM     29  C   UNL     1      -3.025   1.078  25.054  0.00  0.00    +0.180 A 
ATOM     30  O   UNL     1      -2.333   1.348  25.411  0.00  0.00    -0.446 OA
ENDBRANCH   2  26
TORSDOF 2
ENDMDL
