REMARK  Name = 
REMARK  8 active torsions:
REMARK  status: ('A' for Active; 'I' for Inactive)
REMARK    1  A    between atoms: O_2  and  C_3
REMARK    2  A    between atoms: C_3  and  C_4
REMARK    3  A    between atoms: N_6  and  C_7
REMARK    4  A    between atoms: C_7  and  C_8
REMARK    5  A    between atoms: C_11  and  N_12
REMARK    6  A    between atoms: N_12  and  C_13
REMARK    7  A    between atoms: C_13  and  C_14
REMARK    8  A    between atoms: C_18  and  C_20
REMARK                            x       y       z     vdW  Elec       q    Type
REMARK                         _______ _______ _______ _____ _____    ______ ____
ROOT
ATOM      8  C   UNL     1       4.769  -6.842   0.000  0.00  0.00    +0.169 C 
ATOM      9  O   UNL     1       4.855  -6.021   0.000  0.00  0.00    -0.350 OA
ATOM     10  C   UNL     1       5.662  -5.850   0.000  0.00  0.00    +0.162 C 
ATOM     11  C   UNL     1       6.074  -6.564   0.000  0.00  0.00    +0.135 C 
ATOM     22  C   UNL     1       5.522  -7.177   0.000  0.00  0.00    +0.199 C 
ATOM     23  O   UNL     1       5.694  -7.984   0.000  0.00  0.00    -0.219 OA
ENDROOT
BRANCH   8   7
ATOM      7  C   UNL     1       4.054  -7.254   0.000  0.00  0.00    +0.147 C 
BRANCH   7   6
ATOM      4  C   UNL     1       2.625  -7.254   0.000  0.00  0.00    +0.272 C 
ATOM      5  O   UNL     1       2.625  -8.079   0.000  0.00  0.00    -0.271 OA
ATOM      6  N   UNL     1       3.340  -6.842   0.000  0.00  0.00    -0.201 NA
BRANCH   4   3
ATOM      3  C   UNL     1       1.911  -6.842   0.000  0.00  0.00    +0.229 C 
BRANCH   3   2
ATOM      1  C   UNL     1       0.482  -6.842   0.000  0.00  0.00    +0.175 C 
ATOM      2  O   UNL     1       1.196  -7.254   0.000  0.00  0.00    -0.342 OA
ENDBRANCH   3   2
ENDBRANCH   4   3
ENDBRANCH   7   6
ENDBRANCH   8   7
BRANCH  11  12
ATOM     12  N   UNL     1       6.895  -6.650   0.000  0.00  0.00    -0.209 NA
BRANCH  12  13
ATOM     13  C   UNL     1       7.230  -7.404   0.000  0.00  0.00    +0.115 C 
BRANCH  13  14
ATOM     14  C   UNL     1       8.051  -7.490   0.000  0.00  0.00    -0.004 A 
ATOM     15  C   UNL     1       8.536  -6.823   0.000  0.00  0.00    -0.003 A 
ATOM     16  C   UNL     1       9.356  -6.909   0.000  0.00  0.00    +0.000 A 
ATOM     17  C   UNL     1       9.692  -7.663   0.000  0.00  0.00    +0.010 A 
ATOM     18  C   UNL     1       9.207  -8.330   0.000  0.00  0.00    +0.068 A 
ATOM     19  C   UNL     1       8.386  -8.244   0.000  0.00  0.00    +0.007 A 
BRANCH  18  20
ATOM     20  C   UNL     1       9.542  -9.084   0.000  0.00  0.00    +0.100 C 
ATOM     21  N   UNL     1       9.878  -9.838   0.000  0.00  0.00    -0.191 NA
ENDBRANCH  18  20
ENDBRANCH  13  14
ENDBRANCH  12  13
ENDBRANCH  11  12
TORSDOF 8
