MODEL 1
REMARK VINA RESULT:      -9.9      0.000      0.000
REMARK  Name = 
REMARK  6 active torsions:
REMARK  status: ('A' for Active; 'I' for Inactive)
REMARK    1  A    between atoms: C_2  and  N_3
REMARK    2  A    between atoms: C_4  and  O_6
REMARK    3  A    between atoms: O_6  and  C_7
REMARK    4  A    between atoms: C_11  and  N_15
REMARK    5  A    between atoms: N_15  and  C_16
REMARK    6  A    between atoms: C_16  and  C_17
REMARK                            x       y       z     vdW  Elec       q    Type
REMARK                         _______ _______ _______ _____ _____    ______ ____
ROOT
ATOM      7  C   UNL     1      -2.982   2.727  24.833  0.00  0.00    +0.229 C 
ATOM      8  C   UNL     1      -2.263   2.376  24.631  0.00  0.00    +0.188 C 
ATOM      9  O   UNL     1      -2.404   1.577  24.480  0.00  0.00    -0.348 OA
ATOM     10  C   UNL     1      -3.209   1.434  24.589  0.00  0.00    +0.164 C 
ATOM     11  C   UNL     1      -3.793   0.853  24.563  0.00  0.00    +0.132 C 
ATOM     12  C   UNL     1      -4.511   1.204  24.765  0.00  0.00    +0.162 C 
ATOM     13  O   UNL     1      -4.372   2.003  24.916  0.00  0.00    -0.348 OA
ATOM     14  C   UNL     1      -3.566   2.145  24.807  0.00  0.00    +0.186 C 
ENDROOT
BRANCH   7   6
ATOM      6  O   UNL     1      -3.096   3.520  25.028  0.00  0.00    -0.432 OA
BRANCH   6   4
ATOM      3  N   UNL     1      -2.092   4.532  24.924  0.00  0.00    -0.169 NA
ATOM      4  C   UNL     1      -2.482   3.955  25.366  0.00  0.00    +0.421 C 
ATOM      5  O   UNL     1      -2.257   3.813  26.147  0.00  0.00    -0.225 OA
BRANCH   3   2
ATOM      1  C   UNL     1      -1.093   5.549  24.823  0.00  0.00    +0.025 C 
ATOM      2  C   UNL     1      -1.478   4.967  25.262  0.00  0.00    +0.119 C 
ENDBRANCH   3   2
ENDBRANCH   6   4
ENDBRANCH   7   6
BRANCH  11  15
ATOM     15  N   UNL     1      -3.679   0.059  24.369  0.00  0.00    -0.214 NA
BRANCH  15  16
ATOM     16  C   UNL     1      -4.174  -0.519  24.687  0.00  0.00    +0.089 C 
BRANCH  16  17
ATOM     17  C   UNL     1      -4.002  -1.317  24.572  0.00  0.00    +0.017 C 
ATOM     18  C   UNL     1      -4.258  -1.700  23.887  0.00  0.00    +0.001 C 
ATOM     19  C   UNL     1      -4.086  -2.499  23.772  0.00  0.00    +0.000 C 
ATOM     20  C   UNL     1      -3.659  -2.915  24.342  0.00  0.00    +0.000 C 
ATOM     21  C   UNL     1      -3.404  -2.533  25.027  0.00  0.00    +0.000 C 
ATOM     22  C   UNL     1      -3.575  -1.735  25.141  0.00  0.00    +0.001 C 
ENDBRANCH  16  17
ENDBRANCH  15  16
ENDBRANCH  11  15
TORSDOF 6
ENDMDL
MODEL 2
REMARK VINA RESULT:      -9.3      1.720      2.011
REMARK  Name = 
REMARK  6 active torsions:
REMARK  status: ('A' for Active; 'I' for Inactive)
REMARK    1  A    between atoms: C_2  and  N_3
REMARK    2  A    between atoms: C_4  and  O_6
REMARK    3  A    between atoms: O_6  and  C_7
REMARK    4  A    between atoms: C_11  and  N_15
REMARK    5  A    between atoms: N_15  and  C_16
REMARK    6  A    between atoms: C_16  and  C_17
REMARK                            x       y       z     vdW  Elec       q    Type
REMARK                         _______ _______ _______ _____ _____    ______ ____
ROOT
ATOM      7  C   UNL     1      -0.831   1.882  24.686  0.00  0.00    +0.229 C 
ATOM      8  C   UNL     1      -1.104   1.839  23.908  0.00  0.00    +0.188 C 
ATOM      9  O   UNL     1      -1.503   1.123  23.818  0.00  0.00    -0.348 OA
ATOM     10  C   UNL     1      -1.477   0.723  24.539  0.00  0.00    +0.164 C 
ATOM     11  C   UNL     1      -1.708   0.034  24.929  0.00  0.00    +0.132 C 
ATOM     12  C   UNL     1      -1.435   0.076  25.705  0.00  0.00    +0.162 C 
ATOM     13  O   UNL     1      -1.035   0.792  25.797  0.00  0.00    -0.348 OA
ATOM     14  C   UNL     1      -1.062   1.192  25.075  0.00  0.00    +0.186 C 
ENDROOT
BRANCH   7   6
ATOM      6  O   UNL     1      -0.402   2.504  25.015  0.00  0.00    -0.432 OA
BRANCH   6   4
ATOM      3  N   UNL     1      -0.860   3.849  25.172  0.00  0.00    -0.169 NA
ATOM      4  C   UNL     1      -0.490   3.269  24.718  0.00  0.00    +0.421 C 
ATOM      5  O   UNL     1      -0.207   3.454  23.965  0.00  0.00    -0.225 OA
BRANCH   3   2
ATOM      1  C   UNL     1      -1.469   5.140  25.236  0.00  0.00    +0.025 C 
ATOM      2  C   UNL     1      -0.948   4.614  24.875  0.00  0.00    +0.119 C 
ENDBRANCH   3   2
ENDBRANCH   6   4
ENDBRANCH   7   6
BRANCH  11  15
ATOM     15  N   UNL     1      -2.137  -0.590  24.598  0.00  0.00    -0.214 NA
BRANCH  15  16
ATOM     16  C   UNL     1      -2.725  -0.965  25.039  0.00  0.00    +0.089 C 
BRANCH  16  17
ATOM     17  C   UNL     1      -3.203  -1.535  24.686  0.00  0.00    +0.017 C 
ATOM     18  C   UNL     1      -3.034  -2.336  24.787  0.00  0.00    +0.001 C 
ATOM     19  C   UNL     1      -3.513  -2.908  24.433  0.00  0.00    +0.000 C 
ATOM     20  C   UNL     1      -4.162  -2.677  23.979  0.00  0.00    +0.000 C 
ATOM     21  C   UNL     1      -4.331  -1.876  23.877  0.00  0.00    +0.000 C 
ATOM     22  C   UNL     1      -3.853  -1.306  24.231  0.00  0.00    +0.001 C 
ENDBRANCH  16  17
ENDBRANCH  15  16
ENDBRANCH  11  15
TORSDOF 6
ENDMDL
MODEL 3
REMARK VINA RESULT:      -8.9      1.632      5.587
REMARK  Name = 
REMARK  6 active torsions:
REMARK  status: ('A' for Active; 'I' for Inactive)
REMARK    1  A    between atoms: C_2  and  N_3
REMARK    2  A    between atoms: C_4  and  O_6
REMARK    3  A    between atoms: O_6  and  C_7
REMARK    4  A    between atoms: C_11  and  N_15
REMARK    5  A    between atoms: N_15  and  C_16
REMARK    6  A    between atoms: C_16  and  C_17
REMARK                            x       y       z     vdW  Elec       q    Type
REMARK                         _______ _______ _______ _____ _____    ______ ____
ROOT
ATOM      7  C   UNL     1      -2.254  -0.221  25.112  0.00  0.00    +0.229 C 
ATOM      8  C   UNL     1      -2.861   0.150  24.692  0.00  0.00    +0.188 C 
ATOM      9  O   UNL     1      -2.669   0.949  24.622  0.00  0.00    -0.348 OA
ATOM     10  C   UNL     1      -1.945   1.073  24.998  0.00  0.00    +0.164 C 
ATOM     11  C   UNL     1      -1.380   1.643  25.187  0.00  0.00    +0.132 C 
ATOM     12  C   UNL     1      -0.774   1.272  25.606  0.00  0.00    +0.162 C 
ATOM     13  O   UNL     1      -0.965   0.473  25.677  0.00  0.00    -0.348 OA
ATOM     14  C   UNL     1      -1.689   0.350  25.300  0.00  0.00    +0.186 C 
ENDROOT
BRANCH   7   6
ATOM      6  O   UNL     1      -2.220  -1.021  25.308  0.00  0.00    -0.432 OA
BRANCH   6   4
ATOM      3  N   UNL     1      -2.959  -2.096  24.724  0.00  0.00    -0.169 NA
ATOM      4  C   UNL     1      -2.902  -1.484  25.274  0.00  0.00    +0.421 C 
ATOM      5  O   UNL     1      -3.527  -1.335  25.791  0.00  0.00    -0.225 OA
BRANCH   3   2
ATOM      1  C   UNL     1      -3.697  -3.172  24.142  0.00  0.00    +0.025 C 
ATOM      2  C   UNL     1      -3.641  -2.559  24.691  0.00  0.00    +0.119 C 
ENDBRANCH   3   2
ENDBRANCH   6   4
ENDBRANCH   7   6
BRANCH  11  15
ATOM     15  N   UNL     1      -1.414   2.444  24.990  0.00  0.00    -0.214 NA
BRANCH  15  16
ATOM     16  C   UNL     1      -1.161   3.013  25.532  0.00  0.00    +0.089 C 
BRANCH  16  17
ATOM     17  C   UNL     1      -1.257   3.814  25.362  0.00  0.00    +0.017 C 
ATOM     18  C   UNL     1      -1.933   4.211  25.618  0.00  0.00    +0.001 C 
ATOM     19  C   UNL     1      -2.030   5.014  25.448  0.00  0.00    +0.000 C 
ATOM     20  C   UNL     1      -1.449   5.417  25.024  0.00  0.00    +0.000 C 
ATOM     21  C   UNL     1      -0.772   5.020  24.769  0.00  0.00    +0.000 C 
ATOM     22  C   UNL     1      -0.677   4.219  24.938  0.00  0.00    +0.001 C 
ENDBRANCH  16  17
ENDBRANCH  15  16
ENDBRANCH  11  15
TORSDOF 6
ENDMDL
MODEL 4
REMARK VINA RESULT:      -7.8      2.611      4.290
REMARK  Name = 
REMARK  6 active torsions:
REMARK  status: ('A' for Active; 'I' for Inactive)
REMARK    1  A    between atoms: C_2  and  N_3
REMARK    2  A    between atoms: C_4  and  O_6
REMARK    3  A    between atoms: O_6  and  C_7
REMARK    4  A    between atoms: C_11  and  N_15
REMARK    5  A    between atoms: N_15  and  C_16
REMARK    6  A    between atoms: C_16  and  C_17
REMARK                            x       y       z     vdW  Elec       q    Type
REMARK                         _______ _______ _______ _____ _____    ______ ____
ROOT
ATOM      7  C   UNL     1      -0.661   0.842  24.329  0.00  0.00    +0.229 C 
ATOM      8  C   UNL     1      -1.063   0.193  24.642  0.00  0.00    +0.188 C 
ATOM      9  O   UNL     1      -1.827   0.436  24.835  0.00  0.00    -0.348 OA
ATOM     10  C   UNL     1      -1.898   1.235  24.642  0.00  0.00    +0.164 C 
ATOM     11  C   UNL     1      -2.413   1.879  24.642  0.00  0.00    +0.132 C 
ATOM     12  C   UNL     1      -2.012   2.527  24.329  0.00  0.00    +0.162 C 
ATOM     13  O   UNL     1      -1.247   2.285  24.135  0.00  0.00    -0.348 OA
ATOM     14  C   UNL     1      -1.177   1.486  24.329  0.00  0.00    +0.186 C 
ENDROOT
BRANCH   7   6
ATOM      6  O   UNL     1       0.119   0.847  24.062  0.00  0.00    -0.432 OA
BRANCH   6   4
ATOM      3  N   UNL     1       0.945   0.336  23.013  0.00  0.00    -0.169 NA
ATOM      4  C   UNL     1       0.412   0.208  23.629  0.00  0.00    +0.421 C 
ATOM      5  O   UNL     1       0.171  -0.559  23.813  0.00  0.00    -0.225 OA
BRANCH   3   2
ATOM      1  C   UNL     1       1.867  -0.194  22.060  0.00  0.00    +0.025 C 
ATOM      2  C   UNL     1       1.237  -0.302  22.580  0.00  0.00    +0.119 C 
ENDBRANCH   3   2
ENDBRANCH   6   4
ENDBRANCH   7   6
BRANCH  11  15
ATOM     15  N   UNL     1      -3.195   1.874  24.909  0.00  0.00    -0.214 NA
BRANCH  15  16
ATOM     16  C   UNL     1      -3.735   2.422  24.612  0.00  0.00    +0.089 C 
BRANCH  16  17
ATOM     17  C   UNL     1      -4.504   2.443  24.907  0.00  0.00    +0.017 C 
ATOM     18  C   UNL     1      -5.047   1.862  24.687  0.00  0.00    +0.001 C 
ATOM     19  C   UNL     1      -5.818   1.884  24.983  0.00  0.00    +0.000 C 
ATOM     20  C   UNL     1      -6.044   2.486  25.499  0.00  0.00    +0.000 C 
ATOM     21  C   UNL     1      -5.502   3.067  25.719  0.00  0.00    +0.000 C 
ATOM     22  C   UNL     1      -4.732   3.046  25.423  0.00  0.00    +0.001 C 
ENDBRANCH  16  17
ENDBRANCH  15  16
ENDBRANCH  11  15
TORSDOF 6
ENDMDL
MODEL 5
REMARK VINA RESULT:      -7.0     18.147     19.407
REMARK  Name = 
REMARK  6 active torsions:
REMARK  status: ('A' for Active; 'I' for Inactive)
REMARK    1  A    between atoms: C_2  and  N_3
REMARK    2  A    between atoms: C_4  and  O_6
REMARK    3  A    between atoms: O_6  and  C_7
REMARK    4  A    between atoms: C_11  and  N_15
REMARK    5  A    between atoms: N_15  and  C_16
REMARK    6  A    between atoms: C_16  and  C_17
REMARK                            x       y       z     vdW  Elec       q    Type
REMARK                         _______ _______ _______ _____ _____    ______ ____
ROOT
ATOM      7  C   UNL     1      12.657   7.589  18.006  0.00  0.00    +0.229 C 
ATOM      8  C   UNL     1      13.307   7.806  17.546  0.00  0.00    +0.188 C 
ATOM      9  O   UNL     1      13.990   7.639  17.977  0.00  0.00    -0.348 OA
ATOM     10  C   UNL     1      13.764   7.319  18.702  0.00  0.00    +0.164 C 
ATOM     11  C   UNL     1      14.045   7.018  19.417  0.00  0.00    +0.132 C 
ATOM     12  C   UNL     1      13.396   6.801  19.876  0.00  0.00    +0.162 C 
ATOM     13  O   UNL     1      12.712   6.968  19.446  0.00  0.00    -0.348 OA
ATOM     14  C   UNL     1      12.940   7.288  18.720  0.00  0.00    +0.186 C 
ENDROOT
BRANCH   7   6
ATOM      6  O   UNL     1      11.865   7.660  17.789  0.00  0.00    -0.432 OA
BRANCH   6   4
ATOM      3  N   UNL     1      11.290   8.331  16.666  0.00  0.00    -0.169 NA
ATOM      4  C   UNL     1      11.595   8.353  17.432  0.00  0.00    +0.421 C 
ATOM      5  O   UNL     1      11.630   9.068  17.841  0.00  0.00    -0.225 OA
BRANCH   3   2
ATOM      1  C   UNL     1      10.618   8.989  15.590  0.00  0.00    +0.025 C 
ATOM      2  C   UNL     1      11.020   9.024  16.309  0.00  0.00    +0.119 C 
ENDBRANCH   3   2
ENDBRANCH   6   4
ENDBRANCH   7   6
BRANCH  11  15
ATOM     15  N   UNL     1      14.839   6.947  19.634  0.00  0.00    -0.214 NA
BRANCH  15  16
ATOM     16  C   UNL     1      15.042   6.567  20.337  0.00  0.00    +0.089 C 
BRANCH  16  17
ATOM     17  C   UNL     1      15.829   6.542  20.580  0.00  0.00    +0.017 C 
ATOM     18  C   UNL     1      16.417   6.310  20.050  0.00  0.00    +0.001 C 
ATOM     19  C   UNL     1      17.206   6.285  20.293  0.00  0.00    +0.000 C 
ATOM     20  C   UNL     1      17.405   6.493  21.066  0.00  0.00    +0.000 C 
ATOM     21  C   UNL     1      16.817   6.726  21.596  0.00  0.00    +0.000 C 
ATOM     22  C   UNL     1      16.030   6.750  21.353  0.00  0.00    +0.001 C 
ENDBRANCH  16  17
ENDBRANCH  15  16
ENDBRANCH  11  15
TORSDOF 6
ENDMDL
MODEL 6
REMARK VINA RESULT:      -6.8     15.963     18.622
REMARK  Name = 
REMARK  6 active torsions:
REMARK  status: ('A' for Active; 'I' for Inactive)
REMARK    1  A    between atoms: C_2  and  N_3
REMARK    2  A    between atoms: C_4  and  O_6
REMARK    3  A    between atoms: O_6  and  C_7
REMARK    4  A    between atoms: C_11  and  N_15
REMARK    5  A    between atoms: N_15  and  C_16
REMARK    6  A    between atoms: C_16  and  C_17
REMARK                            x       y       z     vdW  Elec       q    Type
REMARK                         _______ _______ _______ _____ _____    ______ ____
ROOT
ATOM      7  C   UNL     1      11.923   7.164  20.618  0.00  0.00    +0.229 C 
ATOM      8  C   UNL     1      12.118   6.434  20.951  0.00  0.00    +0.188 C 
ATOM      9  O   UNL     1      12.885   6.244  20.715  0.00  0.00    -0.348 OA
ATOM     10  C   UNL     1      13.165   6.855  20.236  0.00  0.00    +0.164 C 
ATOM     11  C   UNL     1      13.811   7.115  19.795  0.00  0.00    +0.132 C 
ATOM     12  C   UNL     1      13.616   7.844  19.462  0.00  0.00    +0.162 C 
ATOM     13  O   UNL     1      12.849   8.035  19.698  0.00  0.00    -0.348 OA
ATOM     14  C   UNL     1      12.570   7.423  20.177  0.00  0.00    +0.186 C 
ENDROOT
BRANCH   7   6
ATOM      6  O   UNL     1      11.208   7.563  20.711  0.00  0.00    -0.432 OA
BRANCH   6   4
ATOM      3  N   UNL     1      10.998   8.288  21.924  0.00  0.00    -0.169 NA
ATOM      4  C   UNL     1      10.861   7.622  21.457  0.00  0.00    +0.421 C 
ATOM      5  O   UNL     1      10.378   7.015  21.737  0.00  0.00    -0.225 OA
BRANCH   3   2
ATOM      1  C   UNL     1      10.455   9.087  22.977  0.00  0.00    +0.025 C 
ATOM      2  C   UNL     1      10.651   8.348  22.670  0.00  0.00    +0.119 C 
ENDBRANCH   3   2
ENDBRANCH   6   4
ENDBRANCH   7   6
BRANCH  11  15
ATOM     15  N   UNL     1      14.527   6.715  19.702  0.00  0.00    -0.214 NA
BRANCH  15  16
ATOM     16  C   UNL     1      15.234   7.139  19.658  0.00  0.00    +0.089 C 
BRANCH  16  17
ATOM     17  C   UNL     1      15.954   6.739  19.636  0.00  0.00    +0.017 C 
ATOM     18  C   UNL     1      16.478   6.798  20.270  0.00  0.00    +0.001 C 
ATOM     19  C   UNL     1      17.200   6.397  20.249  0.00  0.00    +0.000 C 
ATOM     20  C   UNL     1      17.396   5.937  19.593  0.00  0.00    +0.000 C 
ATOM     21  C   UNL     1      16.871   5.877  18.959  0.00  0.00    +0.000 C 
ATOM     22  C   UNL     1      16.151   6.278  18.981  0.00  0.00    +0.001 C 
ENDBRANCH  16  17
ENDBRANCH  15  16
ENDBRANCH  11  15
TORSDOF 6
ENDMDL
MODEL 7
REMARK VINA RESULT:      -6.4     16.141     18.691
REMARK  Name = 
REMARK  6 active torsions:
REMARK  status: ('A' for Active; 'I' for Inactive)
REMARK    1  A    between atoms: C_2  and  N_3
REMARK    2  A    between atoms: C_4  and  O_6
REMARK    3  A    between atoms: O_6  and  C_7
REMARK    4  A    between atoms: C_11  and  N_15
REMARK    5  A    between atoms: N_15  and  C_16
REMARK    6  A    between atoms: C_16  and  C_17
REMARK                            x       y       z     vdW  Elec       q    Type
REMARK                         _______ _______ _______ _____ _____    ______ ____
ROOT
ATOM      7  C   UNL     1      14.738   7.004  19.550  0.00  0.00    +0.229 C 
ATOM      8  C   UNL     1      14.873   6.946  20.362  0.00  0.00    +0.188 C 
ATOM      9  O   UNL     1      14.144   6.994  20.745  0.00  0.00    -0.348 OA
ATOM     10  C   UNL     1      13.558   7.080  20.171  0.00  0.00    +0.164 C 
ATOM     11  C   UNL     1      12.747   7.163  20.052  0.00  0.00    +0.132 C 
ATOM     12  C   UNL     1      12.612   7.220  19.241  0.00  0.00    +0.162 C 
ATOM     13  O   UNL     1      13.340   7.173  18.857  0.00  0.00    -0.348 OA
ATOM     14  C   UNL     1      13.925   7.086  19.432  0.00  0.00    +0.186 C 
ENDROOT
BRANCH   7   6
ATOM      6  O   UNL     1      15.314   6.982  18.960  0.00  0.00    -0.432 OA
BRANCH   6   4
ATOM      3  N   UNL     1      16.354   6.032  18.723  0.00  0.00    -0.169 NA
ATOM      4  C   UNL     1      16.067   6.689  19.129  0.00  0.00    +0.421 C 
ATOM      5  O   UNL     1      16.532   7.055  19.703  0.00  0.00    -0.225 OA
BRANCH   3   2
ATOM      1  C   UNL     1      17.401   5.091  18.475  0.00  0.00    +0.025 C 
ATOM      2  C   UNL     1      17.107   5.739  18.891  0.00  0.00    +0.119 C 
ENDBRANCH   3   2
ENDBRANCH   6   4
ENDBRANCH   7   6
BRANCH  11  15
ATOM     15  N   UNL     1      12.170   7.184  20.643  0.00  0.00    -0.214 NA
BRANCH  15  16
ATOM     16  C   UNL     1      11.550   7.727  20.595  0.00  0.00    +0.089 C 
BRANCH  16  17
ATOM     17  C   UNL     1      11.105   7.904  21.265  0.00  0.00    +0.017 C 
ATOM     18  C   UNL     1      11.087   8.675  21.557  0.00  0.00    +0.001 C 
ATOM     19  C   UNL     1      10.641   8.853  22.228  0.00  0.00    +0.000 C 
ATOM     20  C   UNL     1      10.213   8.258  22.608  0.00  0.00    +0.000 C 
ATOM     21  C   UNL     1      10.231   7.487  22.317  0.00  0.00    +0.000 C 
ATOM     22  C   UNL     1      10.677   7.310  21.646  0.00  0.00    +0.001 C 
ENDBRANCH  16  17
ENDBRANCH  15  16
ENDBRANCH  11  15
TORSDOF 6
ENDMDL
MODEL 8
REMARK VINA RESULT:      -6.2     15.916     18.356
REMARK  Name = 
REMARK  6 active torsions:
REMARK  status: ('A' for Active; 'I' for Inactive)
REMARK    1  A    between atoms: C_2  and  N_3
REMARK    2  A    between atoms: C_4  and  O_6
REMARK    3  A    between atoms: O_6  and  C_7
REMARK    4  A    between atoms: C_11  and  N_15
REMARK    5  A    between atoms: N_15  and  C_16
REMARK    6  A    between atoms: C_16  and  C_17
REMARK                            x       y       z     vdW  Elec       q    Type
REMARK                         _______ _______ _______ _____ _____    ______ ____
ROOT
ATOM      7  C   UNL     1      13.167   7.613  17.755  0.00  0.00    +0.229 C 
ATOM      8  C   UNL     1      12.415   7.931  17.634  0.00  0.00    +0.188 C 
ATOM      9  O   UNL     1      11.982   7.832  18.329  0.00  0.00    -0.348 OA
ATOM     10  C   UNL     1      12.466   7.453  18.880  0.00  0.00    +0.164 C 
ATOM     11  C   UNL     1      12.498   7.158  19.649  0.00  0.00    +0.132 C 
ATOM     12  C   UNL     1      13.249   6.840  19.770  0.00  0.00    +0.162 C 
ATOM     13  O   UNL     1      13.683   6.939  19.074  0.00  0.00    -0.348 OA
ATOM     14  C   UNL     1      13.198   7.318  18.525  0.00  0.00    +0.186 C 
ENDROOT
BRANCH   7   6
ATOM      6  O   UNL     1      13.779   7.594  17.203  0.00  0.00    -0.432 OA
BRANCH   6   4
ATOM      3  N   UNL     1      14.014   8.265  15.964  0.00  0.00    -0.169 NA
ATOM      4  C   UNL     1      13.982   8.277  16.787  0.00  0.00    +0.421 C 
ATOM      5  O   UNL     1      14.154   8.973  17.196  0.00  0.00    -0.225 OA
BRANCH   3   2
ATOM      1  C   UNL     1      14.659   8.894  14.854  0.00  0.00    +0.025 C 
ATOM      2  C   UNL     1      14.217   8.949  15.548  0.00  0.00    +0.119 C 
ENDBRANCH   3   2
ENDBRANCH   6   4
ENDBRANCH   7   6
BRANCH  11  15
ATOM     15  N   UNL     1      11.885   7.177  20.202  0.00  0.00    -0.214 NA
BRANCH  15  16
ATOM     16  C   UNL     1      12.056   7.189  21.008  0.00  0.00    +0.089 C 
BRANCH  16  17
ATOM     17  C   UNL     1      11.492   7.457  21.546  0.00  0.00    +0.017 C 
ATOM     18  C   UNL     1      11.624   8.151  21.971  0.00  0.00    +0.001 C 
ATOM     19  C   UNL     1      11.059   8.420  22.510  0.00  0.00    +0.000 C 
ATOM     20  C   UNL     1      10.362   7.994  22.622  0.00  0.00    +0.000 C 
ATOM     21  C   UNL     1      10.229   7.299  22.197  0.00  0.00    +0.000 C 
ATOM     22  C   UNL     1      10.794   7.031  21.659  0.00  0.00    +0.001 C 
ENDBRANCH  16  17
ENDBRANCH  15  16
ENDBRANCH  11  15
TORSDOF 6
ENDMDL
MODEL 9
REMARK VINA RESULT:      -6.1      3.084      4.215
REMARK  Name = 
REMARK  6 active torsions:
REMARK  status: ('A' for Active; 'I' for Inactive)
REMARK    1  A    between atoms: C_2  and  N_3
REMARK    2  A    between atoms: C_4  and  O_6
REMARK    3  A    between atoms: O_6  and  C_7
REMARK    4  A    between atoms: C_11  and  N_15
REMARK    5  A    between atoms: N_15  and  C_16
REMARK    6  A    between atoms: C_16  and  C_17
REMARK                            x       y       z     vdW  Elec       q    Type
REMARK                         _______ _______ _______ _____ _____    ______ ____
ROOT
ATOM      7  C   UNL     1      -2.438   1.923  24.699  0.00  0.00    +0.229 C 
ATOM      8  C   UNL     1      -2.304   2.389  24.031  0.00  0.00    +0.188 C 
ATOM      9  O   UNL     1      -1.640   2.092  23.642  0.00  0.00    -0.348 OA
ATOM     10  C   UNL     1      -1.363   1.442  24.068  0.00  0.00    +0.164 C 
ATOM     11  C   UNL     1      -0.782   0.857  24.092  0.00  0.00    +0.132 C 
ATOM     12  C   UNL     1      -0.916   0.391  24.759  0.00  0.00    +0.162 C 
ATOM     13  O   UNL     1      -1.580   0.688  25.148  0.00  0.00    -0.348 OA
ATOM     14  C   UNL     1      -1.856   1.338  24.721  0.00  0.00    +0.186 C 
ENDROOT
BRANCH   7   6
ATOM      6  O   UNL     1      -3.046   2.024  25.246  0.00  0.00    -0.432 OA
BRANCH   6   4
ATOM      3  N   UNL     1      -4.463   1.952  25.077  0.00  0.00    -0.169 NA
ATOM      4  C   UNL     1      -3.757   2.372  25.014  0.00  0.00    +0.421 C 
ATOM      5  O   UNL     1      -3.761   3.143  24.719  0.00  0.00    -0.225 OA
BRANCH   3   2
ATOM      1  C   UNL     1      -5.892   1.947  25.044  0.00  0.00    +0.025 C 
ATOM      2  C   UNL     1      -5.174   2.301  24.846  0.00  0.00    +0.119 C 
ENDBRANCH   3   2
ENDBRANCH   6   4
ENDBRANCH   7   6
BRANCH  11  15
ATOM     15  N   UNL     1      -0.173   0.757  23.544  0.00  0.00    -0.214 NA
BRANCH  15  16
ATOM     16  C   UNL     1       0.362   0.135  23.631  0.00  0.00    +0.089 C 
BRANCH  16  17
ATOM     17  C   UNL     1       1.012   0.077  23.128  0.00  0.00    +0.017 C 
ATOM     18  C   UNL     1       0.939  -0.307  22.402  0.00  0.00    +0.001 C 
ATOM     19  C   UNL     1       1.590  -0.365  21.897  0.00  0.00    +0.000 C 
ATOM     20  C   UNL     1       2.314  -0.038  22.120  0.00  0.00    +0.000 C 
ATOM     21  C   UNL     1       2.387   0.346  22.846  0.00  0.00    +0.000 C 
ATOM     22  C   UNL     1       1.737   0.404  23.349  0.00  0.00    +0.001 C 
ENDBRANCH  16  17
ENDBRANCH  15  16
ENDBRANCH  11  15
TORSDOF 6
ENDMDL
MODEL 10
REMARK VINA RESULT:      -6.1     17.810     19.265
REMARK  Name = 
REMARK  6 active torsions:
REMARK  status: ('A' for Active; 'I' for Inactive)
REMARK    1  A    between atoms: C_2  and  N_3
REMARK    2  A    between atoms: C_4  and  O_6
REMARK    3  A    between atoms: O_6  and  C_7
REMARK    4  A    between atoms: C_11  and  N_15
REMARK    5  A    between atoms: N_15  and  C_16
REMARK    6  A    between atoms: C_16  and  C_17
REMARK                            x       y       z     vdW  Elec       q    Type
REMARK                         _______ _______ _______ _____ _____    ______ ____
ROOT
ATOM      7  C   UNL     1      14.439   7.224  19.628  0.00  0.00    +0.229 C 
ATOM      8  C   UNL     1      14.810   7.277  18.893  0.00  0.00    +0.188 C 
ATOM      9  O   UNL     1      14.232   7.445  18.328  0.00  0.00    -0.348 OA
ATOM     10  C   UNL     1      13.505   7.495  18.713  0.00  0.00    +0.164 C 
ATOM     11  C   UNL     1      12.699   7.630  18.603  0.00  0.00    +0.132 C 
ATOM     12  C   UNL     1      12.328   7.577  19.338  0.00  0.00    +0.162 C 
ATOM     13  O   UNL     1      12.905   7.409  19.904  0.00  0.00    -0.348 OA
ATOM     14  C   UNL     1      13.632   7.359  19.517  0.00  0.00    +0.186 C 
ENDROOT
BRANCH   7   6
ATOM      6  O   UNL     1      14.809   7.064  20.347  0.00  0.00    -0.432 OA
BRANCH   6   4
ATOM      3  N   UNL     1      16.109   6.761  20.858  0.00  0.00    -0.169 NA
ATOM      4  C   UNL     1      15.600   7.273  20.460  0.00  0.00    +0.421 C 
ATOM      5  O   UNL     1      15.880   7.994  20.175  0.00  0.00    -0.225 OA
BRANCH   3   2
ATOM      1  C   UNL     1      17.405   6.463  21.380  0.00  0.00    +0.025 C 
ATOM      2  C   UNL     1      16.899   6.969  20.971  0.00  0.00    +0.119 C 
ENDBRANCH   3   2
ENDBRANCH   6   4
ENDBRANCH   7   6
BRANCH  11  15
ATOM     15  N   UNL     1      12.328   7.790  17.883  0.00  0.00    -0.214 NA
BRANCH  15  16
ATOM     16  C   UNL     1      11.733   8.360  17.843  0.00  0.00    +0.089 C 
BRANCH  16  17
ATOM     17  C   UNL     1      11.418   8.576  17.112  0.00  0.00    +0.017 C 
ATOM     18  C   UNL     1      10.610   8.490  16.970  0.00  0.00    +0.001 C 
ATOM     19  C   UNL     1      10.294   8.706  16.239  0.00  0.00    +0.000 C 
ATOM     20  C   UNL     1      10.787   9.008  15.650  0.00  0.00    +0.000 C 
ATOM     21  C   UNL     1      11.595   9.094  15.792  0.00  0.00    +0.000 C 
ATOM     22  C   UNL     1      11.910   8.878  16.523  0.00  0.00    +0.001 C 
ENDBRANCH  16  17
ENDBRANCH  15  16
ENDBRANCH  11  15
TORSDOF 6
ENDMDL
