MODEL 1
REMARK VINA RESULT:      -8.1      0.000      0.000
REMARK  Name = 
REMARK  5 active torsions:
REMARK  status: ('A' for Active; 'I' for Inactive)
REMARK    1  A    between atoms: N_2  and  C_4
REMARK    2  A    between atoms: C_7  and  C_10
REMARK    3  A    between atoms: N_12  and  C_13
REMARK    4  A    between atoms: C_17  and  N_21
REMARK    5  A    between atoms: C_24  and  C_28
REMARK                            x       y       z     vdW  Elec       q    Type
REMARK                         _______ _______ _______ _____ _____    ______ ____
ROOT
ATOM     13  C   UNL     1      -1.736   2.025  24.314  0.00  0.00    +0.155 C 
ATOM     14  C   UNL     1      -1.337   2.745  24.260  0.00  0.00    +0.166 C 
ATOM     15  O   UNL     1      -0.532   2.583  24.183  0.00  0.00    -0.350 OA
ATOM     16  C   UNL     1      -0.434   1.765  24.189  0.00  0.00    +0.166 C 
ATOM     17  C   UNL     1       0.124   1.158  24.146  0.00  0.00    +0.154 C 
ATOM     18  C   UNL     1      -0.276   0.439  24.200  0.00  0.00    +0.166 C 
ATOM     19  O   UNL     1      -1.081   0.600  24.277  0.00  0.00    -0.350 OA
ATOM     20  C   UNL     1      -1.179   1.420  24.270  0.00  0.00    +0.166 C 
ENDROOT
BRANCH  17  21
ATOM     21  N   UNL     1       0.939   1.254  24.062  0.00  0.00    -0.200 NA
ATOM     22  C   UNL     1       1.358   0.784  23.529  0.00  0.00    +0.237 A 
ATOM     23  N   UNL     1       2.173   0.881  23.446  0.00  0.00    -0.212 NA
ATOM     24  C   UNL     1       2.592   0.411  22.913  0.00  0.00    +0.092 A 
ATOM     25  C   UNL     1       2.196  -0.156  22.463  0.00  0.00    +0.040 A 
ATOM     26  C   UNL     1       1.380  -0.252  22.546  0.00  0.00    +0.103 A 
ATOM     27  N   UNL     1       0.962   0.218  23.079  0.00  0.00    -0.211 NA
BRANCH  24  28
ATOM     28  C   UNL     1       3.407   0.507  22.829  0.00  0.00    +0.047 A 
ATOM     29  C   UNL     1       3.784   1.131  22.443  0.00  0.00    +0.009 A 
ATOM     30  C   UNL     1       4.598   1.006  22.493  0.00  0.00    +0.008 A 
ATOM     31  C   UNL     1       4.723   0.305  22.908  0.00  0.00    +0.035 A 
ATOM     32  S   UNL     1       3.987  -0.003  23.116  0.00  0.00    -0.085 S 
ENDBRANCH  24  28
ENDBRANCH  17  21
BRANCH  13  12
ATOM     10  C   UNL     1      -2.971   2.398  24.932  0.00  0.00    +0.265 C 
ATOM     11  O   UNL     1      -2.573   2.963  25.384  0.00  0.00    -0.268 OA
ATOM     12  N   UNL     1      -2.552   1.929  24.397  0.00  0.00    -0.198 NA
BRANCH  10   7
ATOM      4  C   UNL     1      -5.415   2.109  25.182  0.00  0.00    +0.048 A 
ATOM      5  C   UNL     1      -4.929   1.448  25.099  0.00  0.00    +0.015 A 
ATOM      6  C   UNL     1      -4.114   1.545  25.016  0.00  0.00    +0.006 A 
ATOM      7  C   UNL     1      -3.785   2.301  25.015  0.00  0.00    +0.055 A 
ATOM      8  C   UNL     1      -4.272   2.962  25.098  0.00  0.00    +0.006 A 
ATOM      9  C   UNL     1      -5.088   2.866  25.182  0.00  0.00    +0.015 A 
BRANCH   4   2
ATOM      1  C   UNL     1      -6.695   1.837  24.607  0.00  0.00    +0.112 C 
ATOM      2  N   UNL     1      -6.231   2.013  25.266  0.00  0.00    -0.304 N 
ATOM      3  C   UNL     1      -6.582   2.094  26.008  0.00  0.00    +0.112 C 
ENDBRANCH   4   2
ENDBRANCH  10   7
ENDBRANCH  13  12
TORSDOF 5
ENDMDL
MODEL 2
REMARK VINA RESULT:      -7.6      2.058      7.296
REMARK  Name = 
REMARK  5 active torsions:
REMARK  status: ('A' for Active; 'I' for Inactive)
REMARK    1  A    between atoms: N_2  and  C_4
REMARK    2  A    between atoms: C_7  and  C_10
REMARK    3  A    between atoms: N_12  and  C_13
REMARK    4  A    between atoms: C_17  and  N_21
REMARK    5  A    between atoms: C_24  and  C_28
REMARK                            x       y       z     vdW  Elec       q    Type
REMARK                         _______ _______ _______ _____ _____    ______ ____
ROOT
ATOM     13  C   UNL     1       0.469   0.646  23.692  0.00  0.00    +0.155 C 
ATOM     14  C   UNL     1      -0.026   0.356  23.100  0.00  0.00    +0.166 C 
ATOM     15  O   UNL     1      -0.806   0.469  23.342  0.00  0.00    -0.350 OA
ATOM     16  C   UNL     1      -0.794   0.829  24.083  0.00  0.00    +0.166 C 
ATOM     17  C   UNL     1      -1.268   1.121  24.692  0.00  0.00    +0.154 C 
ATOM     18  C   UNL     1      -0.773   1.411  25.285  0.00  0.00    +0.166 C 
ATOM     19  O   UNL     1       0.007   1.298  25.043  0.00  0.00    -0.350 OA
ATOM     20  C   UNL     1      -0.005   0.938  24.300  0.00  0.00    +0.166 C 
ENDROOT
BRANCH  17  21
ATOM     21  N   UNL     1      -2.093   1.124  24.705  0.00  0.00    -0.200 NA
ATOM     22  C   UNL     1      -2.501   1.814  24.900  0.00  0.00    +0.237 A 
ATOM     23  N   UNL     1      -3.325   1.816  24.914  0.00  0.00    -0.212 NA
ATOM     24  C   UNL     1      -3.733   2.506  25.109  0.00  0.00    +0.092 A 
ATOM     25  C   UNL     1      -3.316   3.194  25.291  0.00  0.00    +0.040 A 
ATOM     26  C   UNL     1      -2.491   3.192  25.278  0.00  0.00    +0.103 A 
ATOM     27  N   UNL     1      -2.084   2.502  25.082  0.00  0.00    -0.211 NA
BRANCH  24  28
ATOM     28  C   UNL     1      -4.558   2.509  25.122  0.00  0.00    +0.047 A 
ATOM     29  C   UNL     1      -5.051   2.010  24.687  0.00  0.00    +0.009 A 
ATOM     30  C   UNL     1      -5.832   2.203  24.869  0.00  0.00    +0.008 A 
ATOM     31  C   UNL     1      -5.822   2.821  25.415  0.00  0.00    +0.035 A 
ATOM     32  S   UNL     1      -5.034   3.010  25.571  0.00  0.00    -0.085 S 
ENDBRANCH  24  28
ENDBRANCH  17  21
BRANCH  13  12
ATOM     10  C   UNL     1       1.697   0.253  23.074  0.00  0.00    +0.265 C 
ATOM     11  O   UNL     1       1.273  -0.136  22.482  0.00  0.00    -0.268 OA
ATOM     12  N   UNL     1       1.294   0.644  23.679  0.00  0.00    -0.198 NA
BRANCH  10   7
ATOM      4  C   UNL     1       4.170   0.245  23.034  0.00  0.00    +0.048 A 
ATOM      5  C   UNL     1       3.756   0.924  22.814  0.00  0.00    +0.015 A 
ATOM      6  C   UNL     1       2.932   0.926  22.827  0.00  0.00    +0.006 A 
ATOM      7  C   UNL     1       2.521   0.250  23.061  0.00  0.00    +0.055 A 
ATOM      8  C   UNL     1       2.935  -0.428  23.281  0.00  0.00    +0.006 A 
ATOM      9  C   UNL     1       3.760  -0.431  23.268  0.00  0.00    +0.015 A 
BRANCH   4   2
ATOM      1  C   UNL     1       5.420   0.392  23.713  0.00  0.00    +0.112 C 
ATOM      2  N   UNL     1       4.996   0.243  23.021  0.00  0.00    -0.304 N 
ATOM      3  C   UNL     1       5.397   0.090  22.316  0.00  0.00    +0.112 C 
ENDBRANCH   4   2
ENDBRANCH  10   7
ENDBRANCH  13  12
TORSDOF 5
ENDMDL
MODEL 3
REMARK VINA RESULT:      -6.2     15.381     16.493
REMARK  Name = 
REMARK  5 active torsions:
REMARK  status: ('A' for Active; 'I' for Inactive)
REMARK    1  A    between atoms: N_2  and  C_4
REMARK    2  A    between atoms: C_7  and  C_10
REMARK    3  A    between atoms: N_12  and  C_13
REMARK    4  A    between atoms: C_17  and  N_21
REMARK    5  A    between atoms: C_24  and  C_28
REMARK                            x       y       z     vdW  Elec       q    Type
REMARK                         _______ _______ _______ _____ _____    ______ ____
ROOT
ATOM     13  C   UNL     1      -6.079 -10.370  14.894  0.00  0.00    +0.155 C 
ATOM     14  C   UNL     1      -6.791 -10.148  14.541  0.00  0.00    +0.166 C 
ATOM     15  O   UNL     1      -6.661 -10.078  13.730  0.00  0.00    -0.350 OA
ATOM     16  C   UNL     1      -5.870 -10.256  13.581  0.00  0.00    +0.166 C 
ATOM     17  C   UNL     1      -5.300 -10.324  12.988  0.00  0.00    +0.154 C 
ATOM     18  C   UNL     1      -4.589 -10.546  13.341  0.00  0.00    +0.166 C 
ATOM     19  O   UNL     1      -4.719 -10.616  14.153  0.00  0.00    -0.350 OA
ATOM     20  C   UNL     1      -5.511 -10.437  14.301  0.00  0.00    +0.166 C 
ENDROOT
BRANCH  17  21
ATOM     21  N   UNL     1      -5.421 -10.192  12.183  0.00  0.00    -0.200 NA
ATOM     22  C   UNL     1      -4.776 -10.124  11.674  0.00  0.00    +0.237 A 
ATOM     23  N   UNL     1      -4.896  -9.992  10.869  0.00  0.00    -0.212 NA
ATOM     24  C   UNL     1      -4.250  -9.924  10.360  0.00  0.00    +0.092 A 
ATOM     25  C   UNL     1      -3.483  -9.988  10.657  0.00  0.00    +0.040 A 
ATOM     26  C   UNL     1      -3.362 -10.119  11.463  0.00  0.00    +0.103 A 
ATOM     27  N   UNL     1      -4.009 -10.188  11.971  0.00  0.00    -0.211 NA
BRANCH  24  28
ATOM     28  C   UNL     1      -4.371  -9.793   9.555  0.00  0.00    +0.047 A 
ATOM     29  C   UNL     1      -4.435  -9.056   9.188  0.00  0.00    +0.009 A 
ATOM     30  C   UNL     1      -4.552  -9.182   8.382  0.00  0.00    +0.008 A 
ATOM     31  C   UNL     1      -4.561  -9.996   8.250  0.00  0.00    +0.035 A 
ATOM     32  S   UNL     1      -4.449 -10.373   8.975  0.00  0.00    -0.085 S 
ENDBRANCH  24  28
ENDBRANCH  17  21
BRANCH  13  12
ATOM     10  C   UNL     1      -6.481 -10.183  16.254  0.00  0.00    +0.265 C 
ATOM     11  O   UNL     1      -7.125  -9.733  16.001  0.00  0.00    -0.268 OA
ATOM     12  N   UNL     1      -5.958 -10.502  15.700  0.00  0.00    -0.198 NA
BRANCH  10   7
ATOM      4  C   UNL     1      -6.118 -10.578  18.669  0.00  0.00    +0.048 A 
ATOM      5  C   UNL     1      -6.885 -10.552  18.366  0.00  0.00    +0.015 A 
ATOM      6  C   UNL     1      -7.005 -10.420  17.561  0.00  0.00    +0.006 A 
ATOM      7  C   UNL     1      -6.360 -10.315  17.058  0.00  0.00    +0.055 A 
ATOM      8  C   UNL     1      -5.593 -10.340  17.361  0.00  0.00    +0.006 A 
ATOM      9  C   UNL     1      -5.472 -10.472  18.167  0.00  0.00    +0.015 A 
BRANCH   4   2
ATOM      1  C   UNL     1      -5.230 -10.781  19.770  0.00  0.00    +0.112 C 
ATOM      2  N   UNL     1      -5.997 -10.709  19.475  0.00  0.00    -0.304 N 
ATOM      3  C   UNL     1      -6.642 -10.769  19.985  0.00  0.00    +0.112 C 
ENDBRANCH   4   2
ENDBRANCH  10   7
ENDBRANCH  13  12
TORSDOF 5
ENDMDL
MODEL 4
REMARK VINA RESULT:      -5.5     15.624     16.568
REMARK  Name = 
REMARK  5 active torsions:
REMARK  status: ('A' for Active; 'I' for Inactive)
REMARK    1  A    between atoms: N_2  and  C_4
REMARK    2  A    between atoms: C_7  and  C_10
REMARK    3  A    between atoms: N_12  and  C_13
REMARK    4  A    between atoms: C_17  and  N_21
REMARK    5  A    between atoms: C_24  and  C_28
REMARK                            x       y       z     vdW  Elec       q    Type
REMARK                         _______ _______ _______ _____ _____    ______ ____
ROOT
ATOM     13  C   UNL     1      -8.058 -10.017  14.595  0.00  0.00    +0.155 C 
ATOM     14  C   UNL     1      -8.550  -9.656  14.040  0.00  0.00    +0.166 C 
ATOM     15  O   UNL     1      -8.119  -9.559  13.344  0.00  0.00    -0.350 OA
ATOM     16  C   UNL     1      -7.362  -9.859  13.468  0.00  0.00    +0.166 C 
ATOM     17  C   UNL     1      -6.626  -9.985  13.116  0.00  0.00    +0.154 C 
ATOM     18  C   UNL     1      -6.134 -10.345  13.671  0.00  0.00    +0.166 C 
ATOM     19  O   UNL     1      -6.566 -10.442  14.367  0.00  0.00    -0.350 OA
ATOM     20  C   UNL     1      -7.324 -10.142  14.242  0.00  0.00    +0.166 C 
ENDROOT
BRANCH  17  21
ATOM     21  N   UNL     1      -6.419  -9.784  12.342  0.00  0.00    -0.200 NA
ATOM     22  C   UNL     1      -5.638  -9.868  12.089  0.00  0.00    +0.237 A 
ATOM     23  N   UNL     1      -5.431  -9.668  11.316  0.00  0.00    -0.212 NA
ATOM     24  C   UNL     1      -4.651  -9.751  11.063  0.00  0.00    +0.092 A 
ATOM     25  C   UNL     1      -4.077 -10.035  11.583  0.00  0.00    +0.040 A 
ATOM     26  C   UNL     1      -4.284 -10.235  12.357  0.00  0.00    +0.103 A 
ATOM     27  N   UNL     1      -5.064 -10.151  12.609  0.00  0.00    -0.211 NA
BRANCH  24  28
ATOM     28  C   UNL     1      -4.444  -9.551  10.290  0.00  0.00    +0.047 A 
ATOM     29  C   UNL     1      -4.609  -9.994   9.614  0.00  0.00    +0.009 A 
ATOM     30  C   UNL     1      -4.302  -9.590   8.963  0.00  0.00    +0.008 A 
ATOM     31  C   UNL     1      -3.948  -8.898   9.238  0.00  0.00    +0.035 A 
ATOM     32  S   UNL     1      -4.035  -8.874  10.058  0.00  0.00    -0.085 S 
ENDBRANCH  24  28
ENDBRANCH  17  21
BRANCH  13  12
ATOM     10  C   UNL     1      -8.735  -9.707  15.815  0.00  0.00    +0.265 C 
ATOM     11  O   UNL     1      -8.998  -8.996  15.488  0.00  0.00    -0.268 OA
ATOM     12  N   UNL     1      -8.265 -10.217  15.369  0.00  0.00    -0.198 NA
BRANCH  10   7
ATOM      4  C   UNL     1      -9.356 -10.306  18.134  0.00  0.00    +0.048 A 
ATOM      5  C   UNL     1      -9.865 -10.489  17.511  0.00  0.00    +0.015 A 
ATOM      6  C   UNL     1      -9.658 -10.289  16.739  0.00  0.00    +0.006 A 
ATOM      7  C   UNL     1      -8.942  -9.907  16.588  0.00  0.00    +0.055 A 
ATOM      8  C   UNL     1      -8.434  -9.724  17.211  0.00  0.00    +0.006 A 
ATOM      9  C   UNL     1      -8.641  -9.924  17.985  0.00  0.00    +0.015 A 
BRANCH   4   2
ATOM      1  C   UNL     1     -10.346 -10.436  19.157  0.00  0.00    +0.112 C 
ATOM      2  N   UNL     1      -9.563 -10.506  18.908  0.00  0.00    -0.304 N 
ATOM      3  C   UNL     1      -8.986 -10.776  19.433  0.00  0.00    +0.112 C 
ENDBRANCH   4   2
ENDBRANCH  10   7
ENDBRANCH  13  12
TORSDOF 5
ENDMDL
MODEL 5
REMARK VINA RESULT:      -5.3     15.996     17.878
REMARK  Name = 
REMARK  5 active torsions:
REMARK  status: ('A' for Active; 'I' for Inactive)
REMARK    1  A    between atoms: N_2  and  C_4
REMARK    2  A    between atoms: C_7  and  C_10
REMARK    3  A    between atoms: N_12  and  C_13
REMARK    4  A    between atoms: C_17  and  N_21
REMARK    5  A    between atoms: C_24  and  C_28
REMARK                            x       y       z     vdW  Elec       q    Type
REMARK                         _______ _______ _______ _____ _____    ______ ____
ROOT
ATOM     13  C   UNL     1      -6.601 -10.253  13.235  0.00  0.00    +0.155 C 
ATOM     14  C   UNL     1      -6.148 -10.438  13.898  0.00  0.00    +0.166 C 
ATOM     15  O   UNL     1      -6.661 -10.542  14.536  0.00  0.00    -0.350 OA
ATOM     16  C   UNL     1      -7.430 -10.421  14.266  0.00  0.00    +0.166 C 
ATOM     17  C   UNL     1      -8.224 -10.411  14.492  0.00  0.00    +0.154 C 
ATOM     18  C   UNL     1      -8.677 -10.226  13.828  0.00  0.00    +0.166 C 
ATOM     19  O   UNL     1      -8.164 -10.122  13.191  0.00  0.00    -0.350 OA
ATOM     20  C   UNL     1      -7.393 -10.243  13.462  0.00  0.00    +0.166 C 
ENDROOT
BRANCH  17  21
ATOM     21  N   UNL     1      -8.513 -10.560  15.251  0.00  0.00    -0.200 NA
ATOM     22  C   UNL     1      -9.055 -10.041  15.595  0.00  0.00    +0.237 A 
ATOM     23  N   UNL     1      -9.344 -10.189  16.352  0.00  0.00    -0.212 NA
ATOM     24  C   UNL     1      -9.886  -9.670  16.697  0.00  0.00    +0.092 A 
ATOM     25  C   UNL     1     -10.138  -9.003  16.283  0.00  0.00    +0.040 A 
ATOM     26  C   UNL     1      -9.848  -8.854  15.524  0.00  0.00    +0.103 A 
ATOM     27  N   UNL     1      -9.307  -9.373  15.181  0.00  0.00    -0.211 NA
BRANCH  24  28
ATOM     28  C   UNL     1     -10.175  -9.818  17.454  0.00  0.00    +0.047 A 
ATOM     29  C   UNL     1     -10.187  -9.283  18.083  0.00  0.00    +0.009 A 
ATOM     30  C   UNL     1     -10.523  -9.662  18.734  0.00  0.00    +0.008 A 
ATOM     31  C   UNL     1     -10.718 -10.430  18.509  0.00  0.00    +0.035 A 
ATOM     32  S   UNL     1     -10.504 -10.527  17.718  0.00  0.00    -0.085 S 
ENDBRANCH  24  28
ENDBRANCH  17  21
BRANCH  13  12
ATOM     10  C   UNL     1      -5.547  -9.809  12.376  0.00  0.00    +0.265 C 
ATOM     11  O   UNL     1      -5.073  -9.661  13.036  0.00  0.00    -0.268 OA
ATOM     12  N   UNL     1      -6.311 -10.104  12.476  0.00  0.00    -0.198 NA
BRANCH  10   7
ATOM      4  C   UNL     1      -4.679  -9.363  10.103  0.00  0.00    +0.048 A 
ATOM      5  C   UNL     1      -5.017  -8.752  10.542  0.00  0.00    +0.015 A 
ATOM      6  C   UNL     1      -5.306  -8.901  11.299  0.00  0.00    +0.006 A 
ATOM      7  C   UNL     1      -5.258  -9.660  11.619  0.00  0.00    +0.055 A 
ATOM      8  C   UNL     1      -4.919 -10.271  11.180  0.00  0.00    +0.006 A 
ATOM      9  C   UNL     1      -4.630 -10.122  10.421  0.00  0.00    +0.015 A 
BRANCH   4   2
ATOM      1  C   UNL     1      -4.829  -9.438   8.684  0.00  0.00    +0.112 C 
ATOM      2  N   UNL     1      -4.389  -9.215   9.344  0.00  0.00    -0.304 N 
ATOM      3  C   UNL     1      -3.659  -8.843   9.247  0.00  0.00    +0.112 C 
ENDBRANCH   4   2
ENDBRANCH  10   7
ENDBRANCH  13  12
TORSDOF 5
ENDMDL
