MODEL 1
REMARK VINA RESULT:     -10.0      0.000      0.000
REMARK  Name = 
REMARK  8 active torsions:
REMARK  status: ('A' for Active; 'I' for Inactive)
REMARK    1  A    between atoms: C_2  and  C_3
REMARK    2  A    between atoms: C_8  and  C_9
REMARK    3  A    between atoms: C_9  and  C_10
REMARK    4  A    between atoms: N_12  and  C_14
REMARK    5  A    between atoms: C_14  and  C_15
REMARK    6  A    between atoms: C_15  and  C_16
REMARK    7  A    between atoms: N_20  and  C_21
REMARK    8  A    between atoms: C_25  and  O_26
REMARK                            x       y       z     vdW  Elec       q    Type
REMARK                         _______ _______ _______ _____ _____    ______ ____
ROOT
ATOM      3  C   UNL     1      -4.817   2.037  25.284  0.00  0.00    +0.020 C 
ATOM      4  C   UNL     1      -4.853   1.220  25.174  0.00  0.00    +0.095 C 
ATOM      5  N   UNL     1      -4.219   0.822  24.828  0.00  0.00    -0.263 N 
ATOM      6  C   UNL     1      -3.549   1.240  24.591  0.00  0.00    +0.095 C 
ATOM      7  C   UNL     1      -3.513   2.056  24.701  0.00  0.00    +0.022 C 
ATOM      8  C   UNL     1      -4.147   2.455  25.047  0.00  0.00    +0.012 C 
ATOM     18  C   UNL     1      -4.256   0.005  24.718  0.00  0.00    +0.327 C 
ATOM     19  O   UNL     1      -4.926  -0.414  24.955  0.00  0.00    -0.250 OA
ATOM     20  N   UNL     1      -3.622  -0.394  24.372  0.00  0.00    -0.162 NA
ENDROOT
BRANCH  20  21
ATOM     21  C   UNL     1      -3.658  -1.210  24.263  0.00  0.00    +0.078 A 
ATOM     22  C   UNL     1      -4.283  -1.542  23.839  0.00  0.00    +0.017 A 
ATOM     23  C   UNL     1      -4.320  -2.359  23.729  0.00  0.00    +0.004 A 
ATOM     24  C   UNL     1      -3.730  -2.844  24.044  0.00  0.00    +0.037 A 
ATOM     25  C   UNL     1      -3.106  -2.512  24.468  0.00  0.00    +0.140 A 
ATOM     28  C   UNL     1      -3.069  -1.695  24.577  0.00  0.00    +0.054 A 
BRANCH  25  26
ATOM     26  O   UNL     1      -2.517  -2.997  24.782  0.00  0.00    -0.471 OA
ATOM     27  C   UNL     1      -1.730  -2.886  24.562  0.00  0.00    +0.252 C 
ENDBRANCH  25  26
ENDBRANCH  20  21
BRANCH   3   2
ATOM      1  C   UNL     1      -6.146   2.028  25.811  0.00  0.00    +0.000 C 
ATOM      2  C   UNL     1      -5.452   2.435  25.631  0.00  0.00    +0.002 C 
ENDBRANCH   3   2
BRANCH   8   9
ATOM      9  C   UNL     1      -4.111   3.272  25.157  0.00  0.00    +0.085 C 
BRANCH   9  10
ATOM     10  C   UNL     1      -3.505   3.709  24.805  0.00  0.00    +0.226 C 
ATOM     11  O   UNL     1      -3.379   3.659  23.992  0.00  0.00    -0.275 OA
ATOM     12  N   UNL     1      -3.026   4.196  25.268  0.00  0.00    -0.277 N 
ATOM     13  C   UNL     1      -3.153   4.247  26.082  0.00  0.00    +0.115 C 
BRANCH  12  14
ATOM     14  C   UNL     1      -2.422   4.633  24.916  0.00  0.00    +0.110 C 
BRANCH  14  15
ATOM     15  C   UNL     1      -1.794   4.912  25.375  0.00  0.00    +0.127 C 
BRANCH  15  16
ATOM     16  C   UNL     1      -1.095   5.156  25.012  0.00  0.00    +0.075 C 
ATOM     17  N   UNL     1      -0.396   5.399  24.647  0.00  0.00    -0.196 NA
ENDBRANCH  15  16
ENDBRANCH  14  15
ENDBRANCH  12  14
ENDBRANCH   9  10
ENDBRANCH   8   9
TORSDOF 8
ENDMDL
MODEL 2
REMARK VINA RESULT:      -9.0      3.423      5.232
REMARK  Name = 
REMARK  8 active torsions:
REMARK  status: ('A' for Active; 'I' for Inactive)
REMARK    1  A    between atoms: C_2  and  C_3
REMARK    2  A    between atoms: C_8  and  C_9
REMARK    3  A    between atoms: C_9  and  C_10
REMARK    4  A    between atoms: N_12  and  C_14
REMARK    5  A    between atoms: C_14  and  C_15
REMARK    6  A    between atoms: C_15  and  C_16
REMARK    7  A    between atoms: N_20  and  C_21
REMARK    8  A    between atoms: C_25  and  O_26
REMARK                            x       y       z     vdW  Elec       q    Type
REMARK                         _______ _______ _______ _____ _____    ______ ____
ROOT
ATOM      3  C   UNL     1      -0.955  -0.062  24.462  0.00  0.00    +0.020 C 
ATOM      4  C   UNL     1      -1.643   0.285  24.756  0.00  0.00    +0.095 C 
ATOM      5  N   UNL     1      -1.894   1.015  24.465  0.00  0.00    -0.263 N 
ATOM      6  C   UNL     1      -1.456   1.398  23.880  0.00  0.00    +0.095 C 
ATOM      7  C   UNL     1      -0.768   1.052  23.586  0.00  0.00    +0.022 C 
ATOM      8  C   UNL     1      -0.518   0.322  23.877  0.00  0.00    +0.012 C 
ATOM     18  C   UNL     1      -2.582   1.362  24.759  0.00  0.00    +0.327 C 
ATOM     19  O   UNL     1      -3.020   0.979  25.344  0.00  0.00    -0.250 OA
ATOM     20  N   UNL     1      -2.833   2.092  24.468  0.00  0.00    -0.162 NA
ENDROOT
BRANCH  20  21
ATOM     21  C   UNL     1      -3.521   2.438  24.762  0.00  0.00    +0.078 A 
ATOM     22  C   UNL     1      -3.472   3.060  25.303  0.00  0.00    +0.017 A 
ATOM     23  C   UNL     1      -4.160   3.406  25.597  0.00  0.00    +0.004 A 
ATOM     24  C   UNL     1      -4.899   3.131  25.350  0.00  0.00    +0.037 A 
ATOM     25  C   UNL     1      -4.948   2.510  24.810  0.00  0.00    +0.140 A 
ATOM     28  C   UNL     1      -4.260   2.163  24.516  0.00  0.00    +0.054 A 
BRANCH  25  26
ATOM     26  O   UNL     1      -5.686   2.235  24.564  0.00  0.00    -0.471 OA
ATOM     27  C   UNL     1      -6.230   1.958  25.118  0.00  0.00    +0.252 C 
ENDBRANCH  25  26
ENDBRANCH  20  21
BRANCH   3   2
ATOM      1  C   UNL     1      -1.256  -1.333  25.043  0.00  0.00    +0.000 C 
ATOM      2  C   UNL     1      -0.704  -0.792  24.753  0.00  0.00    +0.002 C 
ENDBRANCH   3   2
BRANCH   8   9
ATOM      9  C   UNL     1       0.171  -0.026  23.583  0.00  0.00    +0.085 C 
BRANCH   9  10
ATOM     10  C   UNL     1       0.858   0.425  23.503  0.00  0.00    +0.226 C 
ATOM     11  O   UNL     1       0.946   1.124  23.932  0.00  0.00    -0.275 OA
ATOM     12  N   UNL     1       1.457   0.176  22.993  0.00  0.00    -0.277 N 
ATOM     13  C   UNL     1       1.369  -0.523  22.564  0.00  0.00    +0.115 C 
BRANCH  12  14
ATOM     14  C   UNL     1       2.143   0.626  22.913  0.00  0.00    +0.110 C 
BRANCH  14  15
ATOM     15  C   UNL     1       2.805   0.306  22.536  0.00  0.00    +0.127 C 
BRANCH  15  16
ATOM     16  C   UNL     1       3.549   0.639  22.658  0.00  0.00    +0.075 C 
ATOM     17  N   UNL     1       4.295   0.972  22.779  0.00  0.00    -0.196 NA
ENDBRANCH  15  16
ENDBRANCH  14  15
ENDBRANCH  12  14
ENDBRANCH   9  10
ENDBRANCH   8   9
TORSDOF 8
ENDMDL
MODEL 3
REMARK VINA RESULT:      -8.7      1.237      5.509
REMARK  Name = 
REMARK  8 active torsions:
REMARK  status: ('A' for Active; 'I' for Inactive)
REMARK    1  A    between atoms: C_2  and  C_3
REMARK    2  A    between atoms: C_8  and  C_9
REMARK    3  A    between atoms: C_9  and  C_10
REMARK    4  A    between atoms: N_12  and  C_14
REMARK    5  A    between atoms: C_14  and  C_15
REMARK    6  A    between atoms: C_15  and  C_16
REMARK    7  A    between atoms: N_20  and  C_21
REMARK    8  A    between atoms: C_25  and  O_26
REMARK                            x       y       z     vdW  Elec       q    Type
REMARK                         _______ _______ _______ _____ _____    ______ ____
ROOT
ATOM      3  C   UNL     1      -4.651   1.293  24.870  0.00  0.00    +0.020 C 
ATOM      4  C   UNL     1      -4.346   2.058  24.922  0.00  0.00    +0.095 C 
ATOM      5  N   UNL     1      -3.532   2.173  24.991  0.00  0.00    -0.263 N 
ATOM      6  C   UNL     1      -3.023   1.525  25.008  0.00  0.00    +0.095 C 
ATOM      7  C   UNL     1      -3.328   0.760  24.955  0.00  0.00    +0.022 C 
ATOM      8  C   UNL     1      -4.142   0.645  24.886  0.00  0.00    +0.012 C 
ATOM     18  C   UNL     1      -3.227   2.938  25.044  0.00  0.00    +0.327 C 
ATOM     19  O   UNL     1      -3.736   3.587  25.028  0.00  0.00    -0.250 OA
ATOM     20  N   UNL     1      -2.413   3.054  25.113  0.00  0.00    -0.162 NA
ENDROOT
BRANCH  20  21
ATOM     21  C   UNL     1      -2.109   3.818  25.166  0.00  0.00    +0.078 A 
ATOM     22  C   UNL     1      -2.517   4.398  25.587  0.00  0.00    +0.017 A 
ATOM     23  C   UNL     1      -2.213   5.162  25.640  0.00  0.00    +0.004 A 
ATOM     24  C   UNL     1      -1.498   5.348  25.270  0.00  0.00    +0.037 A 
ATOM     25  C   UNL     1      -1.089   4.769  24.849  0.00  0.00    +0.140 A 
ATOM     28  C   UNL     1      -1.394   4.004  24.796  0.00  0.00    +0.054 A 
BRANCH  25  26
ATOM     26  O   UNL     1      -0.375   4.955  24.480  0.00  0.00    -0.471 OA
ATOM     27  C   UNL     1      -0.058   4.446  23.914  0.00  0.00    +0.252 C 
ENDBRANCH  25  26
ENDBRANCH  20  21
BRANCH   3   2
ATOM      1  C   UNL     1      -5.987   1.787  24.994  0.00  0.00    +0.000 C 
ATOM      2  C   UNL     1      -5.465   1.178  24.801  0.00  0.00    +0.002 C 
ENDBRANCH   3   2
BRANCH   8   9
ATOM      9  C   UNL     1      -4.447  -0.121  24.833  0.00  0.00    +0.085 C 
BRANCH   9  10
ATOM     10  C   UNL     1      -4.002  -0.762  25.102  0.00  0.00    +0.226 C 
ATOM     11  O   UNL     1      -3.618  -0.721  25.831  0.00  0.00    -0.275 OA
ATOM     12  N   UNL     1      -3.941  -1.443  24.640  0.00  0.00    -0.277 N 
ATOM     13  C   UNL     1      -4.324  -1.483  23.911  0.00  0.00    +0.115 C 
BRANCH  12  14
ATOM     14  C   UNL     1      -3.496  -2.083  24.909  0.00  0.00    +0.110 C 
BRANCH  14  15
ATOM     15  C   UNL     1      -3.164  -2.611  24.368  0.00  0.00    +0.127 C 
BRANCH  15  16
ATOM     16  C   UNL     1      -2.368  -2.817  24.428  0.00  0.00    +0.075 C 
ATOM     17  N   UNL     1      -1.571  -3.022  24.488  0.00  0.00    -0.196 NA
ENDBRANCH  15  16
ENDBRANCH  14  15
ENDBRANCH  12  14
ENDBRANCH   9  10
ENDBRANCH   8   9
TORSDOF 8
ENDMDL
MODEL 4
REMARK VINA RESULT:      -8.6      3.537      4.799
REMARK  Name = 
REMARK  8 active torsions:
REMARK  status: ('A' for Active; 'I' for Inactive)
REMARK    1  A    between atoms: C_2  and  C_3
REMARK    2  A    between atoms: C_8  and  C_9
REMARK    3  A    between atoms: C_9  and  C_10
REMARK    4  A    between atoms: N_12  and  C_14
REMARK    5  A    between atoms: C_14  and  C_15
REMARK    6  A    between atoms: C_15  and  C_16
REMARK    7  A    between atoms: N_20  and  C_21
REMARK    8  A    between atoms: C_25  and  O_26
REMARK                            x       y       z     vdW  Elec       q    Type
REMARK                         _______ _______ _______ _____ _____    ______ ____
ROOT
ATOM      3  C   UNL     1      -1.873  -0.360  24.785  0.00  0.00    +0.020 C 
ATOM      4  C   UNL     1      -1.117  -0.503  24.488  0.00  0.00    +0.095 C 
ATOM      5  N   UNL     1      -0.751   0.056  24.005  0.00  0.00    -0.263 N 
ATOM      6  C   UNL     1      -1.140   0.758  23.818  0.00  0.00    +0.095 C 
ATOM      7  C   UNL     1      -1.896   0.901  24.114  0.00  0.00    +0.022 C 
ATOM      8  C   UNL     1      -2.262   0.342  24.598  0.00  0.00    +0.012 C 
ATOM     18  C   UNL     1       0.006  -0.089  23.708  0.00  0.00    +0.327 C 
ATOM     19  O   UNL     1       0.395  -0.791  23.895  0.00  0.00    -0.250 OA
ATOM     20  N   UNL     1       0.372   0.470  23.225  0.00  0.00    -0.162 NA
ENDROOT
BRANCH  20  21
ATOM     21  C   UNL     1       1.128   0.327  22.928  0.00  0.00    +0.078 A 
ATOM     22  C   UNL     1       1.239  -0.233  22.332  0.00  0.00    +0.017 A 
ATOM     23  C   UNL     1       1.994  -0.377  22.036  0.00  0.00    +0.004 A 
ATOM     24  C   UNL     1       2.641   0.040  22.336  0.00  0.00    +0.037 A 
ATOM     25  C   UNL     1       2.531   0.599  22.931  0.00  0.00    +0.140 A 
ATOM     28  C   UNL     1       1.775   0.743  23.228  0.00  0.00    +0.054 A 
BRANCH  25  26
ATOM     26  O   UNL     1       3.178   1.015  23.231  0.00  0.00    -0.471 OA
ATOM     27  C   UNL     1       3.923   0.920  22.891  0.00  0.00    +0.252 C 
ENDBRANCH  25  26
ENDBRANCH  20  21
BRANCH   3   2
ATOM      1  C   UNL     1      -2.089  -1.723  25.159  0.00  0.00    +0.000 C 
ATOM      2  C   UNL     1      -2.240  -0.919  25.269  0.00  0.00    +0.002 C 
ENDBRANCH   3   2
BRANCH   8   9
ATOM      9  C   UNL     1      -3.019   0.486  24.895  0.00  0.00    +0.085 C 
BRANCH   9  10
ATOM     10  C   UNL     1      -3.281   1.262  25.000  0.00  0.00    +0.226 C 
ATOM     11  O   UNL     1      -2.734   1.871  25.106  0.00  0.00    -0.275 OA
ATOM     12  N   UNL     1      -4.089   1.428  24.999  0.00  0.00    -0.277 N 
ATOM     13  C   UNL     1      -4.635   0.819  24.893  0.00  0.00    +0.115 C 
BRANCH  12  14
ATOM     14  C   UNL     1      -4.350   2.204  25.104  0.00  0.00    +0.110 C 
BRANCH  14  15
ATOM     15  C   UNL     1      -5.152   2.356  25.224  0.00  0.00    +0.127 C 
BRANCH  15  16
ATOM     16  C   UNL     1      -5.398   3.106  25.464  0.00  0.00    +0.075 C 
ATOM     17  N   UNL     1      -5.642   3.856  25.706  0.00  0.00    -0.196 NA
ENDBRANCH  15  16
ENDBRANCH  14  15
ENDBRANCH  12  14
ENDBRANCH   9  10
ENDBRANCH   8   9
TORSDOF 8
ENDMDL
MODEL 5
REMARK VINA RESULT:      -7.7      2.309      3.226
REMARK  Name = 
REMARK  8 active torsions:
REMARK  status: ('A' for Active; 'I' for Inactive)
REMARK    1  A    between atoms: C_2  and  C_3
REMARK    2  A    between atoms: C_8  and  C_9
REMARK    3  A    between atoms: C_9  and  C_10
REMARK    4  A    between atoms: N_12  and  C_14
REMARK    5  A    between atoms: C_14  and  C_15
REMARK    6  A    between atoms: C_15  and  C_16
REMARK    7  A    between atoms: N_20  and  C_21
REMARK    8  A    between atoms: C_25  and  O_26
REMARK                            x       y       z     vdW  Elec       q    Type
REMARK                         _______ _______ _______ _____ _____    ______ ____
ROOT
ATOM      3  C   UNL     1      -0.216   0.757  24.283  0.00  0.00    +0.020 C 
ATOM      4  C   UNL     1      -0.633   0.046  24.253  0.00  0.00    +0.095 C 
ATOM      5  N   UNL     1      -1.384  -0.008  24.590  0.00  0.00    -0.263 N 
ATOM      6  C   UNL     1      -1.719   0.650  24.956  0.00  0.00    +0.095 C 
ATOM      7  C   UNL     1      -1.304   1.362  24.986  0.00  0.00    +0.022 C 
ATOM      8  C   UNL     1      -0.552   1.415  24.650  0.00  0.00    +0.012 C 
ATOM     18  C   UNL     1      -1.799  -0.720  24.559  0.00  0.00    +0.327 C 
ATOM     19  O   UNL     1      -1.464  -1.378  24.193  0.00  0.00    -0.250 OA
ATOM     20  N   UNL     1      -2.551  -0.773  24.896  0.00  0.00    -0.162 NA
ENDROOT
BRANCH  20  21
ATOM     21  C   UNL     1      -2.966  -1.485  24.866  0.00  0.00    +0.078 A 
ATOM     22  C   UNL     1      -2.796  -2.086  25.405  0.00  0.00    +0.017 A 
ATOM     23  C   UNL     1      -3.211  -2.798  25.375  0.00  0.00    +0.004 A 
ATOM     24  C   UNL     1      -3.798  -2.909  24.805  0.00  0.00    +0.037 A 
ATOM     25  C   UNL     1      -3.969  -2.308  24.266  0.00  0.00    +0.140 A 
ATOM     28  C   UNL     1      -3.554  -1.596  24.296  0.00  0.00    +0.054 A 
BRANCH  25  26
ATOM     26  O   UNL     1      -4.556  -2.419  23.697  0.00  0.00    -0.471 OA
ATOM     27  C   UNL     1      -4.500  -3.046  23.163  0.00  0.00    +0.252 C 
ENDBRANCH  25  26
ENDBRANCH  20  21
BRANCH   3   2
ATOM      1  C   UNL     1       0.773   0.261  23.379  0.00  0.00    +0.000 C 
ATOM      2  C   UNL     1       0.535   0.811  23.946  0.00  0.00    +0.002 C 
ENDBRANCH   3   2
BRANCH   8   9
ATOM      9  C   UNL     1      -0.136   2.128  24.680  0.00  0.00    +0.085 C 
BRANCH   9  10
ATOM     10  C   UNL     1      -0.438   2.765  25.109  0.00  0.00    +0.226 C 
ATOM     11  O   UNL     1      -0.733   2.646  25.871  0.00  0.00    -0.275 OA
ATOM     12  N   UNL     1      -0.446   3.519  24.776  0.00  0.00    -0.277 N 
ATOM     13  C   UNL     1      -0.152   3.638  24.015  0.00  0.00    +0.115 C 
BRANCH  12  14
ATOM     14  C   UNL     1      -0.749   4.155  25.206  0.00  0.00    +0.110 C 
BRANCH  14  15
ATOM     15  C   UNL     1      -0.863   4.885  24.836  0.00  0.00    +0.127 C 
BRANCH  15  16
ATOM     16  C   UNL     1      -1.472   5.382  25.087  0.00  0.00    +0.075 C 
ATOM     17  N   UNL     1      -2.080   5.879  25.339  0.00  0.00    -0.196 NA
ENDBRANCH  15  16
ENDBRANCH  14  15
ENDBRANCH  12  14
ENDBRANCH   9  10
ENDBRANCH   8   9
TORSDOF 8
ENDMDL
MODEL 6
REMARK VINA RESULT:      -7.4      2.796      4.146
REMARK  Name = 
REMARK  8 active torsions:
REMARK  status: ('A' for Active; 'I' for Inactive)
REMARK    1  A    between atoms: C_2  and  C_3
REMARK    2  A    between atoms: C_8  and  C_9
REMARK    3  A    between atoms: C_9  and  C_10
REMARK    4  A    between atoms: N_12  and  C_14
REMARK    5  A    between atoms: C_14  and  C_15
REMARK    6  A    between atoms: C_15  and  C_16
REMARK    7  A    between atoms: N_20  and  C_21
REMARK    8  A    between atoms: C_25  and  O_26
REMARK                            x       y       z     vdW  Elec       q    Type
REMARK                         _______ _______ _______ _____ _____    ______ ____
ROOT
ATOM      3  C   UNL     1      -1.548   3.430  24.913  0.00  0.00    +0.020 C 
ATOM      4  C   UNL     1      -0.942   2.896  24.741  0.00  0.00    +0.095 C 
ATOM      5  N   UNL     1      -1.120   2.163  24.407  0.00  0.00    -0.263 N 
ATOM      6  C   UNL     1      -1.904   1.964  24.245  0.00  0.00    +0.095 C 
ATOM      7  C   UNL     1      -2.509   2.496  24.417  0.00  0.00    +0.022 C 
ATOM      8  C   UNL     1      -2.331   3.229  24.751  0.00  0.00    +0.012 C 
ATOM     18  C   UNL     1      -0.514   1.630  24.236  0.00  0.00    +0.327 C 
ATOM     19  O   UNL     1       0.269   1.830  24.398  0.00  0.00    -0.250 OA
ATOM     20  N   UNL     1      -0.692   0.897  23.902  0.00  0.00    -0.162 NA
ENDROOT
BRANCH  20  21
ATOM     21  C   UNL     1      -0.087   0.365  23.731  0.00  0.00    +0.078 A 
ATOM     22  C   UNL     1       0.011  -0.313  24.192  0.00  0.00    +0.017 A 
ATOM     23  C   UNL     1       0.616  -0.845  24.021  0.00  0.00    +0.004 A 
ATOM     24  C   UNL     1       1.126  -0.701  23.387  0.00  0.00    +0.037 A 
ATOM     25  C   UNL     1       1.029  -0.024  22.926  0.00  0.00    +0.140 A 
ATOM     28  C   UNL     1       0.423   0.509  23.097  0.00  0.00    +0.054 A 
BRANCH  25  26
ATOM     26  O   UNL     1       1.538   0.120  22.293  0.00  0.00    -0.471 OA
ATOM     27  C   UNL     1       2.354   0.057  22.396  0.00  0.00    +0.252 C 
ENDBRANCH  25  26
ENDBRANCH  20  21
BRANCH   3   2
ATOM      1  C   UNL     1      -0.716   4.590  24.981  0.00  0.00    +0.000 C 
ATOM      2  C   UNL     1      -1.370   4.163  25.247  0.00  0.00    +0.002 C 
ENDBRANCH   3   2
BRANCH   8   9
ATOM      9  C   UNL     1      -2.937   3.763  24.922  0.00  0.00    +0.085 C 
BRANCH   9  10
ATOM     10  C   UNL     1      -3.717   3.580  24.721  0.00  0.00    +0.226 C 
ATOM     11  O   UNL     1      -3.905   3.374  23.945  0.00  0.00    -0.275 OA
ATOM     12  N   UNL     1      -4.307   3.604  25.297  0.00  0.00    -0.277 N 
ATOM     13  C   UNL     1      -4.118   3.810  26.074  0.00  0.00    +0.115 C 
BRANCH  12  14
ATOM     14  C   UNL     1      -5.086   3.422  25.096  0.00  0.00    +0.110 C 
BRANCH  14  15
ATOM     15  C   UNL     1      -5.584   3.071  25.653  0.00  0.00    +0.127 C 
BRANCH  15  16
ATOM     16  C   UNL     1      -6.097   2.468  25.425  0.00  0.00    +0.075 C 
ATOM     17  N   UNL     1      -6.611   1.863  25.197  0.00  0.00    -0.196 NA
ENDBRANCH  15  16
ENDBRANCH  14  15
ENDBRANCH  12  14
ENDBRANCH   9  10
ENDBRANCH   8   9
TORSDOF 8
ENDMDL
MODEL 7
REMARK VINA RESULT:      -7.3      4.598      6.271
REMARK  Name = 
REMARK  8 active torsions:
REMARK  status: ('A' for Active; 'I' for Inactive)
REMARK    1  A    between atoms: C_2  and  C_3
REMARK    2  A    between atoms: C_8  and  C_9
REMARK    3  A    between atoms: C_9  and  C_10
REMARK    4  A    between atoms: N_12  and  C_14
REMARK    5  A    between atoms: C_14  and  C_15
REMARK    6  A    between atoms: C_15  and  C_16
REMARK    7  A    between atoms: N_20  and  C_21
REMARK    8  A    between atoms: C_25  and  O_26
REMARK                            x       y       z     vdW  Elec       q    Type
REMARK                         _______ _______ _______ _____ _____    ______ ____
ROOT
ATOM      3  C   UNL     1      -0.329   1.437  24.249  0.00  0.00    +0.020 C 
ATOM      4  C   UNL     1       0.476   1.480  24.070  0.00  0.00    +0.095 C 
ATOM      5  N   UNL     1       0.848   0.850  23.689  0.00  0.00    -0.263 N 
ATOM      6  C   UNL     1       0.417   0.177  23.488  0.00  0.00    +0.095 C 
ATOM      7  C   UNL     1      -0.387   0.133  23.666  0.00  0.00    +0.022 C 
ATOM      8  C   UNL     1      -0.759   0.763  24.046  0.00  0.00    +0.012 C 
ATOM     18  C   UNL     1       1.653   0.894  23.511  0.00  0.00    +0.327 C 
ATOM     19  O   UNL     1       2.084   1.567  23.713  0.00  0.00    -0.250 OA
ATOM     20  N   UNL     1       2.026   0.264  23.131  0.00  0.00    -0.162 NA
ENDROOT
BRANCH  20  21
ATOM     21  C   UNL     1       2.829   0.308  22.952  0.00  0.00    +0.078 A 
ATOM     22  C   UNL     1       3.096   0.829  22.371  0.00  0.00    +0.017 A 
ATOM     23  C   UNL     1       3.900   0.873  22.193  0.00  0.00    +0.004 A 
ATOM     24  C   UNL     1       4.439   0.394  22.596  0.00  0.00    +0.037 A 
ATOM     25  C   UNL     1       4.172  -0.128  23.176  0.00  0.00    +0.140 A 
ATOM     28  C   UNL     1       3.368  -0.172  23.355  0.00  0.00    +0.054 A 
BRANCH  25  26
ATOM     26  O   UNL     1       4.711  -0.606  23.579  0.00  0.00    -0.471 OA
ATOM     27  C   UNL     1       5.388  -0.275  23.914  0.00  0.00    +0.252 C 
ENDBRANCH  25  26
ENDBRANCH  20  21
BRANCH   3   2
ATOM      1  C   UNL     1      -0.321   2.797  24.689  0.00  0.00    +0.000 C 
ATOM      2  C   UNL     1      -0.701   2.067  24.629  0.00  0.00    +0.002 C 
ENDBRANCH   3   2
BRANCH   8   9
ATOM      9  C   UNL     1      -1.564   0.720  24.225  0.00  0.00    +0.085 C 
BRANCH   9  10
ATOM     10  C   UNL     1      -1.917  -0.013  24.364  0.00  0.00    +0.226 C 
ATOM     11  O   UNL     1      -1.458  -0.652  24.613  0.00  0.00    -0.275 OA
ATOM     12  N   UNL     1      -2.729  -0.107  24.253  0.00  0.00    -0.277 N 
ATOM     13  C   UNL     1      -3.188   0.531  24.003  0.00  0.00    +0.115 C 
BRANCH  12  14
ATOM     14  C   UNL     1      -3.081  -0.840  24.391  0.00  0.00    +0.110 C 
BRANCH  14  15
ATOM     15  C   UNL     1      -3.856  -0.979  24.142  0.00  0.00    +0.127 C 
BRANCH  15  16
ATOM     16  C   UNL     1      -4.117  -1.751  24.018  0.00  0.00    +0.075 C 
ATOM     17  N   UNL     1      -4.379  -2.524  23.893  0.00  0.00    -0.196 NA
ENDBRANCH  15  16
ENDBRANCH  14  15
ENDBRANCH  12  14
ENDBRANCH   9  10
ENDBRANCH   8   9
TORSDOF 8
ENDMDL
MODEL 8
REMARK VINA RESULT:      -7.1      4.207      5.199
REMARK  Name = 
REMARK  8 active torsions:
REMARK  status: ('A' for Active; 'I' for Inactive)
REMARK    1  A    between atoms: C_2  and  C_3
REMARK    2  A    between atoms: C_8  and  C_9
REMARK    3  A    between atoms: C_9  and  C_10
REMARK    4  A    between atoms: N_12  and  C_14
REMARK    5  A    between atoms: C_14  and  C_15
REMARK    6  A    between atoms: C_15  and  C_16
REMARK    7  A    between atoms: N_20  and  C_21
REMARK    8  A    between atoms: C_25  and  O_26
REMARK                            x       y       z     vdW  Elec       q    Type
REMARK                         _______ _______ _______ _____ _____    ______ ____
ROOT
ATOM      3  C   UNL     1       0.268   1.234  23.951  0.00  0.00    +0.020 C 
ATOM      4  C   UNL     1      -0.443   0.973  24.277  0.00  0.00    +0.095 C 
ATOM      5  N   UNL     1      -0.661   0.180  24.211  0.00  0.00    -0.263 N 
ATOM      6  C   UNL     1      -0.168  -0.351  23.818  0.00  0.00    +0.095 C 
ATOM      7  C   UNL     1       0.543  -0.091  23.492  0.00  0.00    +0.022 C 
ATOM      8  C   UNL     1       0.761   0.702  23.559  0.00  0.00    +0.012 C 
ATOM     18  C   UNL     1      -1.373  -0.079  24.537  0.00  0.00    +0.327 C 
ATOM     19  O   UNL     1      -1.866   0.452  24.929  0.00  0.00    -0.250 OA
ATOM     20  N   UNL     1      -1.592  -0.872  24.471  0.00  0.00    -0.162 NA
ENDROOT
BRANCH  20  21
ATOM     21  C   UNL     1      -2.303  -1.132  24.797  0.00  0.00    +0.078 A 
ATOM     22  C   UNL     1      -2.369  -1.240  25.612  0.00  0.00    +0.017 A 
ATOM     23  C   UNL     1      -3.080  -1.501  25.938  0.00  0.00    +0.004 A 
ATOM     24  C   UNL     1      -3.727  -1.653  25.448  0.00  0.00    +0.037 A 
ATOM     25  C   UNL     1      -3.662  -1.545  24.634  0.00  0.00    +0.140 A 
ATOM     28  C   UNL     1      -2.950  -1.285  24.307  0.00  0.00    +0.054 A 
BRANCH  25  26
ATOM     26  O   UNL     1      -4.308  -1.698  24.145  0.00  0.00    -0.471 OA
ATOM     27  C   UNL     1      -4.379  -2.429  23.769  0.00  0.00    +0.252 C 
ENDBRANCH  25  26
ENDBRANCH  20  21
BRANCH   3   2
ATOM      1  C   UNL     1       0.030   2.545  24.468  0.00  0.00    +0.000 C 
ATOM      2  C   UNL     1       0.487   2.027  24.017  0.00  0.00    +0.002 C 
ENDBRANCH   3   2
BRANCH   8   9
ATOM      9  C   UNL     1       1.473   0.962  23.232  0.00  0.00    +0.085 C 
BRANCH   9  10
ATOM     10  C   UNL     1       2.112   0.443  23.168  0.00  0.00    +0.226 C 
ATOM     11  O   UNL     1       1.999  -0.366  23.278  0.00  0.00    -0.275 OA
ATOM     12  N   UNL     1       2.864   0.735  22.995  0.00  0.00    -0.277 N 
ATOM     13  C   UNL     1       2.977   1.545  22.885  0.00  0.00    +0.115 C 
BRANCH  12  14
ATOM     14  C   UNL     1       3.502   0.217  22.931  0.00  0.00    +0.110 C 
BRANCH  14  15
ATOM     15  C   UNL     1       4.269   0.514  22.856  0.00  0.00    +0.127 C 
BRANCH  15  16
ATOM     16  C   UNL     1       4.905   0.098  23.178  0.00  0.00    +0.075 C 
ATOM     17  N   UNL     1       5.541  -0.318  23.499  0.00  0.00    -0.196 NA
ENDBRANCH  15  16
ENDBRANCH  14  15
ENDBRANCH  12  14
ENDBRANCH   9  10
ENDBRANCH   8   9
TORSDOF 8
ENDMDL
MODEL 9
REMARK VINA RESULT:      -7.0     13.929     15.823
REMARK  Name = 
REMARK  8 active torsions:
REMARK  status: ('A' for Active; 'I' for Inactive)
REMARK    1  A    between atoms: C_2  and  C_3
REMARK    2  A    between atoms: C_8  and  C_9
REMARK    3  A    between atoms: C_9  and  C_10
REMARK    4  A    between atoms: N_12  and  C_14
REMARK    5  A    between atoms: C_14  and  C_15
REMARK    6  A    between atoms: C_15  and  C_16
REMARK    7  A    between atoms: N_20  and  C_21
REMARK    8  A    between atoms: C_25  and  O_26
REMARK                            x       y       z     vdW  Elec       q    Type
REMARK                         _______ _______ _______ _____ _____    ______ ____
ROOT
ATOM      3  C   UNL     1      -2.523 -10.644  15.188  0.00  0.00    +0.020 C 
ATOM      4  C   UNL     1      -2.915 -10.631  15.914  0.00  0.00    +0.095 C 
ATOM      5  N   UNL     1      -3.740 -10.643  15.938  0.00  0.00    -0.263 N 
ATOM      6  C   UNL     1      -4.172 -10.668  15.237  0.00  0.00    +0.095 C 
ATOM      7  C   UNL     1      -3.782 -10.680  14.512  0.00  0.00    +0.022 C 
ATOM      8  C   UNL     1      -2.957 -10.668  14.487  0.00  0.00    +0.012 C 
ATOM     18  C   UNL     1      -4.131 -10.631  16.665  0.00  0.00    +0.327 C 
ATOM     19  O   UNL     1      -3.698 -10.607  17.366  0.00  0.00    -0.250 OA
ATOM     20  N   UNL     1      -4.955 -10.643  16.689  0.00  0.00    -0.162 NA
ENDROOT
BRANCH  20  21
ATOM     21  C   UNL     1      -5.346 -10.631  17.415  0.00  0.00    +0.078 A 
ATOM     22  C   UNL     1      -4.930 -10.781  18.112  0.00  0.00    +0.017 A 
ATOM     23  C   UNL     1      -5.321 -10.769  18.837  0.00  0.00    +0.004 A 
ATOM     24  C   UNL     1      -6.130 -10.606  18.867  0.00  0.00    +0.037 A 
ATOM     25  C   UNL     1      -6.547 -10.457  18.172  0.00  0.00    +0.140 A 
ATOM     28  C   UNL     1      -6.156 -10.469  17.445  0.00  0.00    +0.054 A 
BRANCH  25  26
ATOM     26  O   UNL     1      -7.355 -10.294  18.202  0.00  0.00    -0.471 OA
ATOM     27  C   UNL     1      -7.649  -9.598  17.872  0.00  0.00    +0.252 C 
ENDBRANCH  25  26
ENDBRANCH  20  21
BRANCH   3   2
ATOM      1  C   UNL     1      -1.263 -10.761  15.853  0.00  0.00    +0.000 C 
ATOM      2  C   UNL     1      -1.699 -10.632  15.164  0.00  0.00    +0.002 C 
ENDBRANCH   3   2
BRANCH   8   9
ATOM      9  C   UNL     1      -2.565 -10.680  13.760  0.00  0.00    +0.085 C 
BRANCH   9  10
ATOM     10  C   UNL     1      -2.972 -10.487  13.069  0.00  0.00    +0.226 C 
ATOM     11  O   UNL     1      -3.772 -10.286  13.103  0.00  0.00    -0.275 OA
ATOM     12  N   UNL     1      -2.580 -10.495  12.344  0.00  0.00    -0.277 N 
ATOM     13  C   UNL     1      -1.780 -10.697  12.309  0.00  0.00    +0.115 C 
BRANCH  12  14
ATOM     14  C   UNL     1      -2.987 -10.302  11.653  0.00  0.00    +0.110 C 
BRANCH  14  15
ATOM     15  C   UNL     1      -2.603  -9.889  11.050  0.00  0.00    +0.127 C 
BRANCH  15  16
ATOM     16  C   UNL     1      -3.023  -9.653  10.380  0.00  0.00    +0.075 C 
ATOM     17  N   UNL     1      -3.444  -9.418   9.711  0.00  0.00    -0.196 NA
ENDBRANCH  15  16
ENDBRANCH  14  15
ENDBRANCH  12  14
ENDBRANCH   9  10
ENDBRANCH   8   9
TORSDOF 8
ENDMDL
MODEL 10
REMARK VINA RESULT:      -6.2     13.803     16.460
REMARK  Name = 
REMARK  8 active torsions:
REMARK  status: ('A' for Active; 'I' for Inactive)
REMARK    1  A    between atoms: C_2  and  C_3
REMARK    2  A    between atoms: C_8  and  C_9
REMARK    3  A    between atoms: C_9  and  C_10
REMARK    4  A    between atoms: N_12  and  C_14
REMARK    5  A    between atoms: C_14  and  C_15
REMARK    6  A    between atoms: C_15  and  C_16
REMARK    7  A    between atoms: N_20  and  C_21
REMARK    8  A    between atoms: C_25  and  O_26
REMARK                            x       y       z     vdW  Elec       q    Type
REMARK                         _______ _______ _______ _____ _____    ______ ____
ROOT
ATOM      3  C   UNL     1      -7.040 -10.328  13.964  0.00  0.00    +0.020 C 
ATOM      4  C   UNL     1      -6.632 -10.357  13.248  0.00  0.00    +0.095 C 
ATOM      5  N   UNL     1      -5.825 -10.185  13.225  0.00  0.00    -0.263 N 
ATOM      6  C   UNL     1      -5.427  -9.985  13.919  0.00  0.00    +0.095 C 
ATOM      7  C   UNL     1      -5.834  -9.955  14.635  0.00  0.00    +0.022 C 
ATOM      8  C   UNL     1      -6.641 -10.127  14.658  0.00  0.00    +0.012 C 
ATOM     18  C   UNL     1      -5.418 -10.215  12.508  0.00  0.00    +0.327 C 
ATOM     19  O   UNL     1      -5.816 -10.416  11.815  0.00  0.00    -0.250 OA
ATOM     20  N   UNL     1      -4.611 -10.044  12.485  0.00  0.00    -0.162 NA
ENDROOT
BRANCH  20  21
ATOM     21  C   UNL     1      -4.204 -10.073  11.769  0.00  0.00    +0.078 A 
ATOM     22  C   UNL     1      -3.784 -10.752  11.560  0.00  0.00    +0.017 A 
ATOM     23  C   UNL     1      -3.377 -10.781  10.844  0.00  0.00    +0.004 A 
ATOM     24  C   UNL     1      -3.389 -10.131  10.335  0.00  0.00    +0.037 A 
ATOM     25  C   UNL     1      -3.808  -9.452  10.544  0.00  0.00    +0.140 A 
ATOM     28  C   UNL     1      -4.216  -9.422  11.260  0.00  0.00    +0.054 A 
BRANCH  25  26
ATOM     26  O   UNL     1      -3.821  -8.803  10.035  0.00  0.00    -0.471 OA
ATOM     27  C   UNL     1      -3.997  -8.906   9.236  0.00  0.00    +0.252 C 
ENDBRANCH  25  26
ENDBRANCH  20  21
BRANCH   3   2
ATOM      1  C   UNL     1      -8.281 -10.539  13.287  0.00  0.00    +0.000 C 
ATOM      2  C   UNL     1      -7.847 -10.499  13.987  0.00  0.00    +0.002 C 
ENDBRANCH   3   2
BRANCH   8   9
ATOM      9  C   UNL     1      -7.049 -10.097  15.375  0.00  0.00    +0.085 C 
BRANCH   9  10
ATOM     10  C   UNL     1      -6.667 -10.307  16.076  0.00  0.00    +0.226 C 
ATOM     11  O   UNL     1      -5.992 -10.781  16.052  0.00  0.00    -0.275 OA
ATOM     12  N   UNL     1      -6.960 -10.042  16.800  0.00  0.00    -0.277 N 
ATOM     13  C   UNL     1      -7.635  -9.568  16.824  0.00  0.00    +0.115 C 
BRANCH  12  14
ATOM     14  C   UNL     1      -6.578 -10.252  17.500  0.00  0.00    +0.110 C 
BRANCH  14  15
ATOM     15  C   UNL     1      -6.915 -10.057  18.228  0.00  0.00    +0.127 C 
BRANCH  15  16
ATOM     16  C   UNL     1      -6.552 -10.298  18.928  0.00  0.00    +0.075 C 
ATOM     17  N   UNL     1      -6.189 -10.539  19.629  0.00  0.00    -0.196 NA
ENDBRANCH  15  16
ENDBRANCH  14  15
ENDBRANCH  12  14
ENDBRANCH   9  10
ENDBRANCH   8   9
TORSDOF 8
ENDMDL
