MODEL 1
REMARK VINA RESULT:     -10.7      0.000      0.000
REMARK  Name = 
REMARK  4 active torsions:
REMARK  status: ('A' for Active; 'I' for Inactive)
REMARK    1  A    between atoms: N_2  and  C_4
REMARK    2  A    between atoms: C_7  and  C_10
REMARK    3  A    between atoms: C_13  and  C_15
REMARK    4  A    between atoms: N_18  and  C_20
REMARK                            x       y       z     vdW  Elec       q    Type
REMARK                         _______ _______ _______ _____ _____    ______ ____
ROOT
ATOM     10  C   UNL     1      -4.297   0.425  24.935  0.00  0.00    +0.250 A 
ATOM     11  N   UNL     1      -5.062   0.711  25.055  0.00  0.00    -0.107 NA
ATOM     12  N   UNL     1      -5.013   1.527  25.167  0.00  0.00    -0.111 NA
ATOM     13  C   UNL     1      -4.219   1.745  25.116  0.00  0.00    +0.227 A 
ATOM     14  O   UNL     1      -3.777   1.063  24.973  0.00  0.00    -0.419 OA
ENDROOT
BRANCH  10   7
ATOM      4  C   UNL     1      -3.675  -1.936  24.533  0.00  0.00    +0.048 A 
ATOM      5  C   UNL     1      -4.008  -1.489  23.925  0.00  0.00    +0.015 A 
ATOM      6  C   UNL     1      -4.216  -0.702  24.059  0.00  0.00    +0.006 A 
ATOM      7  C   UNL     1      -4.089  -0.362  24.801  0.00  0.00    +0.055 A 
ATOM      8  C   UNL     1      -3.756  -0.810  25.408  0.00  0.00    +0.006 A 
ATOM      9  C   UNL     1      -3.548  -1.597  25.273  0.00  0.00    +0.015 A 
BRANCH   4   2
ATOM      1  C   UNL     1      -4.030  -3.257  24.118  0.00  0.00    +0.112 C 
ATOM      2  N   UNL     1      -3.467  -2.724  24.398  0.00  0.00    -0.304 N 
ATOM      3  C   UNL     1      -2.695  -2.978  24.545  0.00  0.00    +0.112 C 
ENDBRANCH   4   2
ENDBRANCH  10   7
BRANCH  13  15
ATOM     15  C   UNL     1      -3.920   2.509  25.195  0.00  0.00    +0.096 C 
ATOM     16  C   UNL     1      -4.347   3.175  25.431  0.00  0.00    +0.028 C 
ATOM     17  C   UNL     1      -3.833   3.820  25.433  0.00  0.00    +0.073 C 
ATOM     18  N   UNL     1      -3.088   3.554  25.198  0.00  0.00    -0.273 NA
ATOM     19  C   UNL     1      -3.142   2.743  25.051  0.00  0.00    +0.081 C 
BRANCH  18  20
ATOM     20  C   UNL     1      -2.408   4.016  25.124  0.00  0.00    +0.060 C 
ATOM     21  C   UNL     1      -2.452   4.832  25.231  0.00  0.00    +0.033 C 
ATOM     22  C   UNL     1      -1.772   5.295  25.156  0.00  0.00    +0.074 C 
ATOM     23  N   UNL     1      -1.050   4.940  24.975  0.00  0.00    -0.271 NA
ATOM     24  C   UNL     1      -0.371   5.402  24.900  0.00  0.00    +0.090 C 
ATOM     25  C   UNL     1      -1.007   4.123  24.868  0.00  0.00    +0.074 C 
ATOM     26  C   UNL     1      -1.686   3.661  24.942  0.00  0.00    +0.033 C 
ENDBRANCH  18  20
ENDBRANCH  13  15
TORSDOF 4
ENDMDL
MODEL 2
REMARK VINA RESULT:      -9.7      1.837      2.466
REMARK  Name = 
REMARK  4 active torsions:
REMARK  status: ('A' for Active; 'I' for Inactive)
REMARK    1  A    between atoms: N_2  and  C_4
REMARK    2  A    between atoms: C_7  and  C_10
REMARK    3  A    between atoms: C_13  and  C_15
REMARK    4  A    between atoms: N_18  and  C_20
REMARK                            x       y       z     vdW  Elec       q    Type
REMARK                         _______ _______ _______ _____ _____    ______ ____
ROOT
ATOM     10  C   UNL     1      -1.437  -0.364  24.839  0.00  0.00    +0.250 A 
ATOM     11  N   UNL     1      -0.623  -0.447  24.733  0.00  0.00    -0.107 NA
ATOM     12  N   UNL     1      -0.266   0.270  24.934  0.00  0.00    -0.111 NA
ATOM     13  C   UNL     1      -0.860   0.795  25.163  0.00  0.00    +0.227 A 
ATOM     14  O   UNL     1      -1.584   0.403  25.104  0.00  0.00    -0.419 OA
ENDROOT
BRANCH  10   7
ATOM      4  C   UNL     1      -3.140  -2.112  24.429  0.00  0.00    +0.048 A 
ATOM      5  C   UNL     1      -2.344  -2.319  24.490  0.00  0.00    +0.015 A 
ATOM      6  C   UNL     1      -1.776  -1.736  24.627  0.00  0.00    +0.006 A 
ATOM      7  C   UNL     1      -2.004  -0.946  24.702  0.00  0.00    +0.055 A 
ATOM      8  C   UNL     1      -2.801  -0.741  24.640  0.00  0.00    +0.006 A 
ATOM      9  C   UNL     1      -3.369  -1.323  24.503  0.00  0.00    +0.015 A 
BRANCH   4   2
ATOM      1  C   UNL     1      -4.342  -2.543  23.787  0.00  0.00    +0.112 C 
ATOM      2  N   UNL     1      -3.709  -2.695  24.292  0.00  0.00    -0.304 N 
ATOM      3  C   UNL     1      -3.642  -3.430  24.661  0.00  0.00    +0.112 C 
ENDBRANCH   4   2
ENDBRANCH  10   7
BRANCH  13  15
ATOM     15  C   UNL     1      -0.750   1.574  25.408  0.00  0.00    +0.096 C 
ATOM     16  C   UNL     1      -0.237   1.828  26.004  0.00  0.00    +0.028 C 
ATOM     17  C   UNL     1      -0.303   2.648  26.065  0.00  0.00    +0.073 C 
ATOM     18  N   UNL     1      -0.857   2.902  25.508  0.00  0.00    -0.273 NA
ATOM     19  C   UNL     1      -1.133   2.238  25.102  0.00  0.00    +0.081 C 
BRANCH  18  20
ATOM     20  C   UNL     1      -1.093   3.682  25.379  0.00  0.00    +0.060 C 
ATOM     21  C   UNL     1      -0.584   4.209  25.000  0.00  0.00    +0.033 C 
ATOM     22  C   UNL     1      -0.820   4.989  24.871  0.00  0.00    +0.074 C 
ATOM     23  N   UNL     1      -1.564   5.242  25.121  0.00  0.00    -0.271 NA
ATOM     24  C   UNL     1      -1.800   6.021  24.992  0.00  0.00    +0.090 C 
ATOM     25  C   UNL     1      -2.073   4.713  25.499  0.00  0.00    +0.074 C 
ATOM     26  C   UNL     1      -1.837   3.934  25.628  0.00  0.00    +0.033 C 
ENDBRANCH  18  20
ENDBRANCH  13  15
TORSDOF 4
ENDMDL
MODEL 3
REMARK VINA RESULT:      -9.4      1.707      6.113
REMARK  Name = 
REMARK  4 active torsions:
REMARK  status: ('A' for Active; 'I' for Inactive)
REMARK    1  A    between atoms: N_2  and  C_4
REMARK    2  A    between atoms: C_7  and  C_10
REMARK    3  A    between atoms: C_13  and  C_15
REMARK    4  A    between atoms: N_18  and  C_20
REMARK                            x       y       z     vdW  Elec       q    Type
REMARK                         _______ _______ _______ _____ _____    ______ ____
ROOT
ATOM     10  C   UNL     1      -0.960   1.982  25.318  0.00  0.00    +0.250 A 
ATOM     11  N   UNL     1      -0.239   1.591  25.406  0.00  0.00    -0.107 NA
ATOM     12  N   UNL     1      -0.393   0.781  25.448  0.00  0.00    -0.111 NA
ATOM     13  C   UNL     1      -1.208   0.673  25.386  0.00  0.00    +0.227 A 
ATOM     14  O   UNL     1      -1.559   1.416  25.305  0.00  0.00    -0.419 OA
ENDROOT
BRANCH  10   7
ATOM      4  C   UNL     1      -1.270   4.430  25.125  0.00  0.00    +0.048 A 
ATOM      5  C   UNL     1      -1.741   3.995  25.645  0.00  0.00    +0.015 A 
ATOM      6  C   UNL     1      -1.637   3.179  25.709  0.00  0.00    +0.006 A 
ATOM      7  C   UNL     1      -1.064   2.798  25.253  0.00  0.00    +0.055 A 
ATOM      8  C   UNL     1      -0.594   3.234  24.734  0.00  0.00    +0.006 A 
ATOM      9  C   UNL     1      -0.698   4.050  24.670  0.00  0.00    +0.015 A 
BRANCH   4   2
ATOM      1  C   UNL     1      -0.773   5.715  24.745  0.00  0.00    +0.112 C 
ATOM      2  N   UNL     1      -1.374   5.247  25.060  0.00  0.00    -0.304 N 
ATOM      3  C   UNL     1      -2.079   5.594  25.312  0.00  0.00    +0.112 C 
ENDBRANCH   4   2
ENDBRANCH  10   7
BRANCH  13  15
ATOM     15  C   UNL     1      -1.604  -0.050  25.401  0.00  0.00    +0.096 C 
ATOM     16  C   UNL     1      -1.492  -0.653  25.953  0.00  0.00    +0.028 C 
ATOM     17  C   UNL     1      -2.000  -1.274  25.761  0.00  0.00    +0.073 C 
ATOM     18  N   UNL     1      -2.427  -1.055  25.089  0.00  0.00    -0.273 NA
ATOM     19  C   UNL     1      -2.182  -0.299  24.867  0.00  0.00    +0.081 C 
BRANCH  18  20
ATOM     20  C   UNL     1      -2.998  -1.512  24.707  0.00  0.00    +0.060 C 
ATOM     21  C   UNL     1      -3.633  -1.146  24.329  0.00  0.00    +0.033 C 
ATOM     22  C   UNL     1      -4.205  -1.603  23.947  0.00  0.00    +0.074 C 
ATOM     23  N   UNL     1      -4.140  -2.425  23.943  0.00  0.00    -0.271 NA
ATOM     24  C   UNL     1      -4.711  -2.881  23.561  0.00  0.00    +0.090 C 
ATOM     25  C   UNL     1      -3.504  -2.790  24.321  0.00  0.00    +0.074 C 
ATOM     26  C   UNL     1      -2.933  -2.334  24.703  0.00  0.00    +0.033 C 
ENDBRANCH  18  20
ENDBRANCH  13  15
TORSDOF 4
ENDMDL
MODEL 4
REMARK VINA RESULT:      -9.3      0.767      5.697
REMARK  Name = 
REMARK  4 active torsions:
REMARK  status: ('A' for Active; 'I' for Inactive)
REMARK    1  A    between atoms: N_2  and  C_4
REMARK    2  A    between atoms: C_7  and  C_10
REMARK    3  A    between atoms: C_13  and  C_15
REMARK    4  A    between atoms: N_18  and  C_20
REMARK                            x       y       z     vdW  Elec       q    Type
REMARK                         _______ _______ _______ _____ _____    ______ ____
ROOT
ATOM     10  C   UNL     1      -3.649   2.951  25.171  0.00  0.00    +0.250 A 
ATOM     11  N   UNL     1      -4.417   3.093  25.436  0.00  0.00    -0.107 NA
ATOM     12  N   UNL     1      -4.839   2.386  25.384  0.00  0.00    -0.111 NA
ATOM     13  C   UNL     1      -4.331   1.808  25.086  0.00  0.00    +0.227 A 
ATOM     14  O   UNL     1      -3.595   2.158  24.955  0.00  0.00    -0.419 OA
ENDROOT
BRANCH  10   7
ATOM      4  C   UNL     1      -1.824   4.619  25.047  0.00  0.00    +0.048 A 
ATOM      5  C   UNL     1      -2.055   4.314  25.778  0.00  0.00    +0.015 A 
ATOM      6  C   UNL     1      -2.663   3.759  25.820  0.00  0.00    +0.006 A 
ATOM      7  C   UNL     1      -3.040   3.507  25.130  0.00  0.00    +0.055 A 
ATOM      8  C   UNL     1      -2.809   3.812  24.399  0.00  0.00    +0.006 A 
ATOM      9  C   UNL     1      -2.200   4.368  24.358  0.00  0.00    +0.015 A 
BRANCH   4   2
ATOM      1  C   UNL     1      -1.388   5.980  25.054  0.00  0.00    +0.112 C 
ATOM      2  N   UNL     1      -1.215   5.175  25.005  0.00  0.00    -0.304 N 
ATOM      3  C   UNL     1      -0.434   4.925  24.915  0.00  0.00    +0.112 C 
ENDBRANCH   4   2
ENDBRANCH  10   7
BRANCH  13  15
ATOM     15  C   UNL     1      -4.524   1.018  24.945  0.00  0.00    +0.096 C 
ATOM     16  C   UNL     1      -5.282   0.722  24.807  0.00  0.00    +0.028 C 
ATOM     17  C   UNL     1      -5.220  -0.093  24.693  0.00  0.00    +0.073 C 
ATOM     18  N   UNL     1      -4.424  -0.300  24.761  0.00  0.00    -0.273 NA
ATOM     19  C   UNL     1      -3.994   0.387  24.917  0.00  0.00    +0.081 C 
BRANCH  18  20
ATOM     20  C   UNL     1      -4.113  -1.061  24.687  0.00  0.00    +0.060 C 
ATOM     21  C   UNL     1      -3.670  -1.387  25.302  0.00  0.00    +0.033 C 
ATOM     22  C   UNL     1      -3.359  -2.148  25.227  0.00  0.00    +0.074 C 
ATOM     23  N   UNL     1      -3.491  -2.582  24.538  0.00  0.00    -0.271 NA
ATOM     24  C   UNL     1      -3.180  -3.342  24.464  0.00  0.00    +0.090 C 
ATOM     25  C   UNL     1      -3.934  -2.255  23.924  0.00  0.00    +0.074 C 
ATOM     26  C   UNL     1      -4.245  -1.495  23.998  0.00  0.00    +0.033 C 
ENDBRANCH  18  20
ENDBRANCH  13  15
TORSDOF 4
ENDMDL
MODEL 5
REMARK VINA RESULT:      -8.6      3.160      4.275
REMARK  Name = 
REMARK  4 active torsions:
REMARK  status: ('A' for Active; 'I' for Inactive)
REMARK    1  A    between atoms: N_2  and  C_4
REMARK    2  A    between atoms: C_7  and  C_10
REMARK    3  A    between atoms: C_13  and  C_15
REMARK    4  A    between atoms: N_18  and  C_20
REMARK                            x       y       z     vdW  Elec       q    Type
REMARK                         _______ _______ _______ _____ _____    ______ ____
ROOT
ATOM     10  C   UNL     1      -0.958   0.058  24.376  0.00  0.00    +0.250 A 
ATOM     11  N   UNL     1      -1.091  -0.365  25.071  0.00  0.00    -0.107 NA
ATOM     12  N   UNL     1      -1.867  -0.222  25.311  0.00  0.00    -0.111 NA
ATOM     13  C   UNL     1      -2.213   0.290  24.764  0.00  0.00    +0.227 A 
ATOM     14  O   UNL     1      -1.650   0.463  24.186  0.00  0.00    -0.419 OA
ENDROOT
BRANCH  10   7
ATOM      4  C   UNL     1       1.154   0.104  23.085  0.00  0.00    +0.048 A 
ATOM      5  C   UNL     1       0.740  -0.605  23.173  0.00  0.00    +0.015 A 
ATOM      6  C   UNL     1       0.036  -0.620  23.603  0.00  0.00    +0.006 A 
ATOM      7  C   UNL     1      -0.254   0.073  23.945  0.00  0.00    +0.055 A 
ATOM      8  C   UNL     1       0.160   0.781  23.856  0.00  0.00    +0.006 A 
ATOM      9  C   UNL     1       0.864   0.796  23.426  0.00  0.00    +0.015 A 
BRANCH   4   2
ATOM      1  C   UNL     1       1.896  -0.241  21.914  0.00  0.00    +0.112 C 
ATOM      2  N   UNL     1       1.858   0.119  22.654  0.00  0.00    -0.304 N 
ATOM      3  C   UNL     1       2.524   0.494  22.966  0.00  0.00    +0.112 C 
ENDBRANCH   4   2
ENDBRANCH  10   7
BRANCH  13  15
ATOM     15  C   UNL     1      -2.985   0.578  24.790  0.00  0.00    +0.096 C 
ATOM     16  C   UNL     1      -3.669   0.152  24.610  0.00  0.00    +0.028 C 
ATOM     17  C   UNL     1      -4.316   0.653  24.709  0.00  0.00    +0.073 C 
ATOM     18  N   UNL     1      -4.033   1.390  24.951  0.00  0.00    -0.273 NA
ATOM     19  C   UNL     1      -3.210   1.344  25.000  0.00  0.00    +0.081 C 
BRANCH  18  20
ATOM     20  C   UNL     1      -4.492   2.057  25.113  0.00  0.00    +0.060 C 
ATOM     21  C   UNL     1      -5.251   1.968  25.424  0.00  0.00    +0.033 C 
ATOM     22  C   UNL     1      -5.710   2.635  25.587  0.00  0.00    +0.074 C 
ATOM     23  N   UNL     1      -5.409   3.389  25.439  0.00  0.00    -0.271 NA
ATOM     24  C   UNL     1      -5.868   4.054  25.602  0.00  0.00    +0.090 C 
ATOM     25  C   UNL     1      -4.650   3.476  25.128  0.00  0.00    +0.074 C 
ATOM     26  C   UNL     1      -4.191   2.811  24.965  0.00  0.00    +0.033 C 
ENDBRANCH  18  20
ENDBRANCH  13  15
TORSDOF 4
ENDMDL
MODEL 6
REMARK VINA RESULT:      -8.3      3.453      4.811
REMARK  Name = 
REMARK  4 active torsions:
REMARK  status: ('A' for Active; 'I' for Inactive)
REMARK    1  A    between atoms: N_2  and  C_4
REMARK    2  A    between atoms: C_7  and  C_10
REMARK    3  A    between atoms: C_13  and  C_15
REMARK    4  A    between atoms: N_18  and  C_20
REMARK                            x       y       z     vdW  Elec       q    Type
REMARK                         _______ _______ _______ _____ _____    ______ ____
ROOT
ATOM     10  C   UNL     1      -2.942   1.838  23.986  0.00  0.00    +0.250 A 
ATOM     11  N   UNL     1      -2.763   2.039  23.206  0.00  0.00    -0.107 NA
ATOM     12  N   UNL     1      -2.037   1.695  23.015  0.00  0.00    -0.111 NA
ATOM     13  C   UNL     1      -1.768   1.283  23.678  0.00  0.00    +0.227 A 
ATOM     14  O   UNL     1      -2.328   1.372  24.277  0.00  0.00    -0.419 OA
ENDROOT
BRANCH  10   7
ATOM      4  C   UNL     1      -4.969   2.519  25.231  0.00  0.00    +0.048 A 
ATOM      5  C   UNL     1      -4.324   3.032  25.182  0.00  0.00    +0.015 A 
ATOM      6  C   UNL     1      -3.649   2.805  24.766  0.00  0.00    +0.006 A 
ATOM      7  C   UNL     1      -3.618   2.065  24.401  0.00  0.00    +0.055 A 
ATOM      8  C   UNL     1      -4.263   1.554  24.451  0.00  0.00    +0.006 A 
ATOM      9  C   UNL     1      -4.939   1.781  24.866  0.00  0.00    +0.015 A 
BRANCH   4   2
ATOM      1  C   UNL     1      -6.110   2.178  26.021  0.00  0.00    +0.112 C 
ATOM      2  N   UNL     1      -5.646   2.747  25.647  0.00  0.00    -0.304 N 
ATOM      3  C   UNL     1      -5.856   3.544  25.687  0.00  0.00    +0.112 C 
ENDBRANCH   4   2
ENDBRANCH  10   7
BRANCH  13  15
ATOM     15  C   UNL     1      -1.064   0.857  23.731  0.00  0.00    +0.096 C 
ATOM     16  C   UNL     1      -0.932   0.197  24.209  0.00  0.00    +0.028 C 
ATOM     17  C   UNL     1      -0.155  -0.052  24.090  0.00  0.00    +0.073 C 
ATOM     18  N   UNL     1       0.194   0.453  23.539  0.00  0.00    -0.273 NA
ATOM     19  C   UNL     1      -0.369   1.015  23.317  0.00  0.00    +0.081 C 
BRANCH  18  20
ATOM     20  C   UNL     1       0.969   0.406  23.258  0.00  0.00    +0.060 C 
ATOM     21  C   UNL     1       1.546   0.914  23.555  0.00  0.00    +0.033 C 
ATOM     22  C   UNL     1       2.321   0.867  23.274  0.00  0.00    +0.074 C 
ATOM     23  N   UNL     1       2.517   0.311  22.698  0.00  0.00    -0.271 NA
ATOM     24  C   UNL     1       3.291   0.263  22.418  0.00  0.00    +0.090 C 
ATOM     25  C   UNL     1       1.939  -0.198  22.401  0.00  0.00    +0.074 C 
ATOM     26  C   UNL     1       1.165  -0.150  22.681  0.00  0.00    +0.033 C 
ENDBRANCH  18  20
ENDBRANCH  13  15
TORSDOF 4
ENDMDL
MODEL 7
REMARK VINA RESULT:      -7.8      4.651      5.855
REMARK  Name = 
REMARK  4 active torsions:
REMARK  status: ('A' for Active; 'I' for Inactive)
REMARK    1  A    between atoms: N_2  and  C_4
REMARK    2  A    between atoms: C_7  and  C_10
REMARK    3  A    between atoms: C_13  and  C_15
REMARK    4  A    between atoms: N_18  and  C_20
REMARK                            x       y       z     vdW  Elec       q    Type
REMARK                         _______ _______ _______ _____ _____    ______ ____
ROOT
ATOM     10  C   UNL     1      -0.981   0.741  23.938  0.00  0.00    +0.250 A 
ATOM     11  N   UNL     1      -0.937  -0.030  24.228  0.00  0.00    -0.107 NA
ATOM     12  N   UNL     1      -0.236  -0.366  23.951  0.00  0.00    -0.111 NA
ATOM     13  C   UNL     1       0.152   0.198  23.490  0.00  0.00    +0.227 A 
ATOM     14  O   UNL     1      -0.309   0.882  23.482  0.00  0.00    -0.419 OA
ENDROOT
BRANCH  10   7
ATOM      4  C   UNL     1      -2.814   2.350  24.363  0.00  0.00    +0.048 A 
ATOM      5  C   UNL     1      -2.741   1.995  23.621  0.00  0.00    +0.015 A 
ATOM      6  C   UNL     1      -2.130   1.459  23.480  0.00  0.00    +0.006 A 
ATOM      7  C   UNL     1      -1.592   1.277  24.080  0.00  0.00    +0.055 A 
ATOM      8  C   UNL     1      -1.666   1.633  24.820  0.00  0.00    +0.006 A 
ATOM      9  C   UNL     1      -2.277   2.169  24.962  0.00  0.00    +0.015 A 
BRANCH   4   2
ATOM      1  C   UNL     1      -3.251   3.674  24.675  0.00  0.00    +0.112 C 
ATOM      2  N   UNL     1      -3.425   2.887  24.505  0.00  0.00    -0.304 N 
ATOM      3  C   UNL     1      -4.210   2.634  24.475  0.00  0.00    +0.112 C 
ENDBRANCH   4   2
ENDBRANCH  10   7
BRANCH  13  15
ATOM     15  C   UNL     1       0.874   0.096  23.105  0.00  0.00    +0.096 C 
ATOM     16  C   UNL     1       0.976  -0.164  22.328  0.00  0.00    +0.028 C 
ATOM     17  C   UNL     1       1.786  -0.185  22.171  0.00  0.00    +0.073 C 
ATOM     18  N   UNL     1       2.184   0.061  22.850  0.00  0.00    -0.273 NA
ATOM     19  C   UNL     1       1.620   0.234  23.428  0.00  0.00    +0.081 C 
BRANCH  18  20
ATOM     20  C   UNL     1       3.003   0.123  22.938  0.00  0.00    +0.060 C 
ATOM     21  C   UNL     1       3.389   0.818  22.718  0.00  0.00    +0.033 C 
ATOM     22  C   UNL     1       4.207   0.880  22.805  0.00  0.00    +0.074 C 
ATOM     23  N   UNL     1       4.638   0.247  23.112  0.00  0.00    -0.271 NA
ATOM     24  C   UNL     1       5.456   0.309  23.199  0.00  0.00    +0.090 C 
ATOM     25  C   UNL     1       4.251  -0.448  23.332  0.00  0.00    +0.074 C 
ATOM     26  C   UNL     1       3.434  -0.510  23.245  0.00  0.00    +0.033 C 
ENDBRANCH  18  20
ENDBRANCH  13  15
TORSDOF 4
ENDMDL
MODEL 8
REMARK VINA RESULT:      -7.6     17.427     18.973
REMARK  Name = 
REMARK  4 active torsions:
REMARK  status: ('A' for Active; 'I' for Inactive)
REMARK    1  A    between atoms: N_2  and  C_4
REMARK    2  A    between atoms: C_7  and  C_10
REMARK    3  A    between atoms: C_13  and  C_15
REMARK    4  A    between atoms: N_18  and  C_20
REMARK                            x       y       z     vdW  Elec       q    Type
REMARK                         _______ _______ _______ _____ _____    ______ ____
ROOT
ATOM     10  C   UNL     1      13.765   7.233  20.580  0.00  0.00    +0.250 A 
ATOM     11  N   UNL     1      13.160   7.086  21.121  0.00  0.00    -0.107 NA
ATOM     12  N   UNL     1      12.457   7.376  20.800  0.00  0.00    -0.111 NA
ATOM     13  C   UNL     1      12.628   7.701  20.061  0.00  0.00    +0.227 A 
ATOM     14  O   UNL     1      13.438   7.612  19.926  0.00  0.00    -0.419 OA
ENDROOT
BRANCH  10   7
ATOM      4  C   UNL     1      16.149   6.636  20.872  0.00  0.00    +0.048 A 
ATOM      5  C   UNL     1      15.761   7.076  21.451  0.00  0.00    +0.015 A 
ATOM      6  C   UNL     1      14.966   7.275  21.354  0.00  0.00    +0.006 A 
ATOM      7  C   UNL     1      14.560   7.034  20.677  0.00  0.00    +0.055 A 
ATOM      8  C   UNL     1      14.949   6.594  20.098  0.00  0.00    +0.006 A 
ATOM      9  C   UNL     1      15.744   6.395  20.196  0.00  0.00    +0.015 A 
BRANCH   4   2
ATOM      1  C   UNL     1      17.405   6.247  20.312  0.00  0.00    +0.112 C 
ATOM      2  N   UNL     1      16.945   6.436  20.969  0.00  0.00    -0.304 N 
ATOM      3  C   UNL     1      17.278   6.427  21.724  0.00  0.00    +0.112 C 
ENDBRANCH   4   2
ENDBRANCH  10   7
BRANCH  13  15
ATOM     15  C   UNL     1      12.087   8.053  19.549  0.00  0.00    +0.096 C 
ATOM     16  C   UNL     1      11.411   8.471  19.770  0.00  0.00    +0.028 C 
ATOM     17  C   UNL     1      11.032   8.726  19.083  0.00  0.00    +0.073 C 
ATOM     18  N   UNL     1      11.474   8.465  18.436  0.00  0.00    -0.273 NA
ATOM     19  C   UNL     1      12.126   8.049  18.725  0.00  0.00    +0.081 C 
BRANCH  18  20
ATOM     20  C   UNL     1      11.295   8.597  17.642  0.00  0.00    +0.060 C 
ATOM     21  C   UNL     1      11.850   8.957  17.149  0.00  0.00    +0.033 C 
ATOM     22  C   UNL     1      11.671   9.089  16.354  0.00  0.00    +0.074 C 
ATOM     23  N   UNL     1      10.938   8.860  16.052  0.00  0.00    -0.271 NA
ATOM     24  C   UNL     1      10.760   8.992  15.258  0.00  0.00    +0.090 C 
ATOM     25  C   UNL     1      10.384   8.500  16.546  0.00  0.00    +0.074 C 
ATOM     26  C   UNL     1      10.562   8.368  17.340  0.00  0.00    +0.033 C 
ENDBRANCH  18  20
ENDBRANCH  13  15
TORSDOF 4
ENDMDL
MODEL 9
REMARK VINA RESULT:      -7.4      4.782      5.547
REMARK  Name = 
REMARK  4 active torsions:
REMARK  status: ('A' for Active; 'I' for Inactive)
REMARK    1  A    between atoms: N_2  and  C_4
REMARK    2  A    between atoms: C_7  and  C_10
REMARK    3  A    between atoms: C_13  and  C_15
REMARK    4  A    between atoms: N_18  and  C_20
REMARK                            x       y       z     vdW  Elec       q    Type
REMARK                         _______ _______ _______ _____ _____    ______ ____
ROOT
ATOM     10  C   UNL     1      -0.761   0.456  24.118  0.00  0.00    +0.250 A 
ATOM     11  N   UNL     1      -0.545   1.251  24.084  0.00  0.00    -0.107 NA
ATOM     12  N   UNL     1       0.195   1.299  23.722  0.00  0.00    -0.111 NA
ATOM     13  C   UNL     1       0.436   0.533  23.533  0.00  0.00    +0.227 A 
ATOM     14  O   UNL     1      -0.155   0.012  23.778  0.00  0.00    -0.419 OA
ENDROOT
BRANCH  10   7
ATOM      4  C   UNL     1      -2.860  -0.441  25.074  0.00  0.00    +0.048 A 
ATOM      5  C   UNL     1      -2.133  -0.652  25.405  0.00  0.00    +0.015 A 
ATOM      6  C   UNL     1      -1.434  -0.353  25.086  0.00  0.00    +0.006 A 
ATOM      7  C   UNL     1      -1.460   0.157  24.437  0.00  0.00    +0.055 A 
ATOM      8  C   UNL     1      -2.187   0.366  24.107  0.00  0.00    +0.006 A 
ATOM      9  C   UNL     1      -2.887   0.067  24.426  0.00  0.00    +0.015 A 
BRANCH   4   2
ATOM      1  C   UNL     1      -4.238  -0.272  25.411  0.00  0.00    +0.112 C 
ATOM      2  N   UNL     1      -3.560  -0.741  25.394  0.00  0.00    -0.304 N 
ATOM      3  C   UNL     1      -3.581  -1.509  25.695  0.00  0.00    +0.112 C 
ENDBRANCH   4   2
ENDBRANCH  10   7
BRANCH  13  15
ATOM     15  C   UNL     1       1.144   0.324  23.164  0.00  0.00    +0.096 C 
ATOM     16  C   UNL     1       1.218  -0.028  22.422  0.00  0.00    +0.028 C 
ATOM     17  C   UNL     1       2.021  -0.139  22.271  0.00  0.00    +0.073 C 
ATOM     18  N   UNL     1       2.444   0.145  22.920  0.00  0.00    -0.273 NA
ATOM     19  C   UNL     1       1.901   0.431  23.472  0.00  0.00    +0.081 C 
BRANCH  18  20
ATOM     20  C   UNL     1       3.265   0.143  23.003  0.00  0.00    +0.060 C 
ATOM     21  C   UNL     1       3.644  -0.509  23.337  0.00  0.00    +0.033 C 
ATOM     22  C   UNL     1       4.465  -0.511  23.420  0.00  0.00    +0.074 C 
ATOM     23  N   UNL     1       4.907   0.139  23.169  0.00  0.00    -0.271 NA
ATOM     24  C   UNL     1       5.727   0.137  23.252  0.00  0.00    +0.090 C 
ATOM     25  C   UNL     1       4.527   0.791  22.835  0.00  0.00    +0.074 C 
ATOM     26  C   UNL     1       3.707   0.793  22.752  0.00  0.00    +0.033 C 
ENDBRANCH  18  20
ENDBRANCH  13  15
TORSDOF 4
ENDMDL
MODEL 10
REMARK VINA RESULT:      -7.2     14.350     16.702
REMARK  Name = 
REMARK  4 active torsions:
REMARK  status: ('A' for Active; 'I' for Inactive)
REMARK    1  A    between atoms: N_2  and  C_4
REMARK    2  A    between atoms: C_7  and  C_10
REMARK    3  A    between atoms: C_13  and  C_15
REMARK    4  A    between atoms: N_18  and  C_20
REMARK                            x       y       z     vdW  Elec       q    Type
REMARK                         _______ _______ _______ _____ _____    ______ ____
ROOT
ATOM     10  C   UNL     1      -3.198 -10.551  15.402  0.00  0.00    +0.250 A 
ATOM     11  N   UNL     1      -2.382 -10.507  15.519  0.00  0.00    -0.107 NA
ATOM     12  N   UNL     1      -2.019 -10.493  14.778  0.00  0.00    -0.111 NA
ATOM     13  C   UNL     1      -2.610 -10.528  14.204  0.00  0.00    +0.227 A 
ATOM     14  O   UNL     1      -3.339 -10.564  14.590  0.00  0.00    -0.419 OA
ENDROOT
BRANCH  10   7
ATOM      4  C   UNL     1      -4.919 -10.629  17.178  0.00  0.00    +0.048 A 
ATOM      5  C   UNL     1      -5.128 -10.781  16.394  0.00  0.00    +0.015 A 
ATOM      6  C   UNL     1      -4.555 -10.755  15.802  0.00  0.00    +0.006 A 
ATOM      7  C   UNL     1      -3.771 -10.577  15.994  0.00  0.00    +0.055 A 
ATOM      8  C   UNL     1      -3.564 -10.424  16.777  0.00  0.00    +0.006 A 
ATOM      9  C   UNL     1      -4.138 -10.450  17.369  0.00  0.00    +0.015 A 
BRANCH   4   2
ATOM      1  C   UNL     1      -5.268 -10.732  18.560  0.00  0.00    +0.112 C 
ATOM      2  N   UNL     1      -5.494 -10.655  17.771  0.00  0.00    -0.304 N 
ATOM      3  C   UNL     1      -6.293 -10.603  17.572  0.00  0.00    +0.112 C 
ENDBRANCH   4   2
ENDBRANCH  10   7
BRANCH  13  15
ATOM     15  C   UNL     1      -2.494 -10.528  13.388  0.00  0.00    +0.096 C 
ATOM     16  C   UNL     1      -1.795 -10.729  12.997  0.00  0.00    +0.028 C 
ATOM     17  C   UNL     1      -1.924 -10.652  12.186  0.00  0.00    +0.073 C 
ATOM     18  N   UNL     1      -2.703 -10.403  12.075  0.00  0.00    -0.273 NA
ATOM     19  C   UNL     1      -3.055 -10.326  12.817  0.00  0.00    +0.081 C 
BRANCH  18  20
ATOM     20  C   UNL     1      -3.066 -10.256  11.348  0.00  0.00    +0.060 C 
ATOM     21  C   UNL     1      -2.821  -9.618  10.887  0.00  0.00    +0.033 C 
ATOM     22  C   UNL     1      -3.185  -9.471  10.160  0.00  0.00    +0.074 C 
ATOM     23  N   UNL     1      -3.792  -9.963   9.896  0.00  0.00    -0.271 NA
ATOM     24  C   UNL     1      -4.155  -9.816   9.171  0.00  0.00    +0.090 C 
ATOM     25  C   UNL     1      -4.037 -10.601  10.359  0.00  0.00    +0.074 C 
ATOM     26  C   UNL     1      -3.674 -10.747  11.084  0.00  0.00    +0.033 C 
ENDBRANCH  18  20
ENDBRANCH  13  15
TORSDOF 4
ENDMDL
