MODEL 1
REMARK VINA RESULT:     -10.0      0.000      0.000
REMARK  Name = 
REMARK  7 active torsions:
REMARK  status: ('A' for Active; 'I' for Inactive)
REMARK    1  A    between atoms: C_5  and  S_8
REMARK    2  A    between atoms: S_8  and  N_11
REMARK    3  A    between atoms: N_11  and  C_12
REMARK    4  A    between atoms: C_12  and  C_13
REMARK    5  A    between atoms: C_16  and  N_17
REMARK    6  A    between atoms: N_17  and  C_18
REMARK    7  A    between atoms: C_18  and  C_19
REMARK                            x       y       z     vdW  Elec       q    Type
REMARK                         _______ _______ _______ _____ _____    ______ ____
ROOT
ATOM     13  C   UNL     1      -3.916   1.723  24.629  0.00  0.00    +0.166 C 
ATOM     14  O   UNL     1      -4.319   2.117  25.230  0.00  0.00    -0.350 OA
ATOM     15  C   UNL     1      -3.988   2.868  25.309  0.00  0.00    +0.162 C 
ATOM     16  C   UNL     1      -3.380   2.938  24.756  0.00  0.00    +0.135 C 
ATOM     25  C   UNL     1      -3.335   2.231  24.335  0.00  0.00    +0.199 C 
ATOM     26  O   UNL     1      -2.804   2.060  23.729  0.00  0.00    -0.219 OA
ENDROOT
BRANCH  13  12
ATOM     12  C   UNL     1      -4.066   0.955  24.366  0.00  0.00    +0.148 C 
BRANCH  12  11
ATOM     11  N   UNL     1      -4.342   0.386  24.894  0.00  0.00    -0.075 NA
BRANCH  11   8
ATOM      8  S   UNL     1      -4.171  -0.412  24.768  0.00  0.00    +0.077 S 
ATOM      9  O   UNL     1      -4.387  -0.333  23.976  0.00  0.00    -0.152 OA
ATOM     10  O   UNL     1      -3.954  -0.491  25.560  0.00  0.00    -0.152 OA
BRANCH   8   5
ATOM      1  C   UNL     1      -3.484  -3.600  24.263  0.00  0.00    +0.031 C 
ATOM      2  C   UNL     1      -3.656  -2.802  24.390  0.00  0.00    -0.022 A 
ATOM      3  C   UNL     1      -3.331  -2.408  25.038  0.00  0.00    -0.003 A 
ATOM      4  C   UNL     1      -3.503  -1.611  25.164  0.00  0.00    +0.020 A 
ATOM      5  C   UNL     1      -3.999  -1.208  24.642  0.00  0.00    +0.124 A 
ATOM      6  C   UNL     1      -4.323  -1.603  23.994  0.00  0.00    +0.020 A 
ATOM      7  C   UNL     1      -4.152  -2.400  23.868  0.00  0.00    -0.003 A 
ENDBRANCH   8   5
ENDBRANCH  11   8
ENDBRANCH  12  11
ENDBRANCH  13  12
BRANCH  16  17
ATOM     17  N   UNL     1      -2.901   3.601  24.644  0.00  0.00    -0.209 NA
BRANCH  17  18
ATOM     18  C   UNL     1      -2.490   3.926  25.281  0.00  0.00    +0.115 C 
BRANCH  18  19
ATOM     19  C   UNL     1      -1.860   4.441  25.146  0.00  0.00    -0.002 A 
ATOM     20  C   UNL     1      -1.099   4.142  25.037  0.00  0.00    +0.018 A 
ATOM     21  C   UNL     1      -0.469   4.657  24.901  0.00  0.00    +0.099 A 
ATOM     22  N   UNL     1      -0.600   5.472  24.875  0.00  0.00    -0.242 NA
ATOM     23  C   UNL     1      -1.361   5.770  24.984  0.00  0.00    +0.099 A 
ATOM     24  C   UNL     1      -1.991   5.255  25.120  0.00  0.00    +0.018 A 
ENDBRANCH  18  19
ENDBRANCH  17  18
ENDBRANCH  16  17
TORSDOF 7
ENDMDL
MODEL 2
REMARK VINA RESULT:      -9.8      1.389      5.924
REMARK  Name = 
REMARK  7 active torsions:
REMARK  status: ('A' for Active; 'I' for Inactive)
REMARK    1  A    between atoms: C_5  and  S_8
REMARK    2  A    between atoms: S_8  and  N_11
REMARK    3  A    between atoms: N_11  and  C_12
REMARK    4  A    between atoms: C_12  and  C_13
REMARK    5  A    between atoms: C_16  and  N_17
REMARK    6  A    between atoms: N_17  and  C_18
REMARK    7  A    between atoms: C_18  and  C_19
REMARK                            x       y       z     vdW  Elec       q    Type
REMARK                         _______ _______ _______ _____ _____    ______ ____
ROOT
ATOM     13  C   UNL     1      -3.885   1.725  24.660  0.00  0.00    +0.166 C 
ATOM     14  O   UNL     1      -4.483   1.525  25.191  0.00  0.00    -0.350 OA
ATOM     15  C   UNL     1      -4.644   0.721  25.103  0.00  0.00    +0.162 C 
ATOM     16  C   UNL     1      -4.145   0.424  24.517  0.00  0.00    +0.135 C 
ATOM     25  C   UNL     1      -3.675   1.044  24.244  0.00  0.00    +0.199 C 
ATOM     26  O   UNL     1      -3.098   0.993  23.657  0.00  0.00    -0.219 OA
ENDROOT
BRANCH  13  12
ATOM     12  C   UNL     1      -3.553   2.474  24.563  0.00  0.00    +0.148 C 
BRANCH  12  11
ATOM     11  N   UNL     1      -3.334   2.917  25.223  0.00  0.00    -0.075 NA
BRANCH  11   8
ATOM      8  S   UNL     1      -2.751   3.498  25.155  0.00  0.00    +0.077 S 
ATOM      9  O   UNL     1      -3.216   3.900  24.604  0.00  0.00    -0.152 OA
ATOM     10  O   UNL     1      -2.287   3.097  25.706  0.00  0.00    -0.152 OA
BRANCH   8   5
ATOM      1  C   UNL     1      -0.424   5.822  24.884  0.00  0.00    +0.031 C 
ATOM      2  C   UNL     1      -1.007   5.241  24.952  0.00  0.00    -0.022 A 
ATOM      3  C   UNL     1      -0.818   4.450  24.810  0.00  0.00    -0.003 A 
ATOM      4  C   UNL     1      -1.400   3.869  24.878  0.00  0.00    +0.020 A 
ATOM      5  C   UNL     1      -2.170   4.079  25.087  0.00  0.00    +0.124 A 
ATOM      6  C   UNL     1      -2.358   4.869  25.229  0.00  0.00    +0.020 A 
ATOM      7  C   UNL     1      -1.776   5.450  25.161  0.00  0.00    -0.003 A 
ENDBRANCH   8   5
ENDBRANCH  11   8
ENDBRANCH  12  11
ENDBRANCH  13  12
BRANCH  16  17
ATOM     17  N   UNL     1      -4.120  -0.357  24.252  0.00  0.00    -0.209 NA
BRANCH  17  18
ATOM     18  C   UNL     1      -4.239  -0.978  24.784  0.00  0.00    +0.115 C 
BRANCH  18  19
ATOM     19  C   UNL     1      -4.005  -1.743  24.583  0.00  0.00    -0.002 A 
ATOM     20  C   UNL     1      -3.457  -2.143  25.053  0.00  0.00    +0.018 A 
ATOM     21  C   UNL     1      -3.223  -2.908  24.852  0.00  0.00    +0.099 A 
ATOM     22  N   UNL     1      -3.537  -3.273  24.181  0.00  0.00    -0.242 NA
ATOM     23  C   UNL     1      -4.084  -2.872  23.712  0.00  0.00    +0.099 A 
ATOM     24  C   UNL     1      -4.318  -2.107  23.913  0.00  0.00    +0.018 A 
ENDBRANCH  18  19
ENDBRANCH  17  18
ENDBRANCH  16  17
TORSDOF 7
ENDMDL
MODEL 3
REMARK VINA RESULT:      -9.7      1.624      1.928
REMARK  Name = 
REMARK  7 active torsions:
REMARK  status: ('A' for Active; 'I' for Inactive)
REMARK    1  A    between atoms: C_5  and  S_8
REMARK    2  A    between atoms: S_8  and  N_11
REMARK    3  A    between atoms: N_11  and  C_12
REMARK    4  A    between atoms: C_12  and  C_13
REMARK    5  A    between atoms: C_16  and  N_17
REMARK    6  A    between atoms: N_17  and  C_18
REMARK    7  A    between atoms: C_18  and  C_19
REMARK                            x       y       z     vdW  Elec       q    Type
REMARK                         _______ _______ _______ _____ _____    ______ ____
ROOT
ATOM     13  C   UNL     1      -1.230   0.739  25.000  0.00  0.00    +0.166 C 
ATOM     14  O   UNL     1      -0.841   0.863  25.716  0.00  0.00    -0.350 OA
ATOM     15  C   UNL     1      -0.642   1.662  25.763  0.00  0.00    +0.162 C 
ATOM     16  C   UNL     1      -0.909   2.032  25.076  0.00  0.00    +0.135 C 
ATOM     25  C   UNL     1      -1.272   1.462  24.604  0.00  0.00    +0.199 C 
ATOM     26  O   UNL     1      -1.616   1.592  23.866  0.00  0.00    -0.219 OA
ENDROOT
BRANCH  13  12
ATOM     12  C   UNL     1      -1.525   0.019  24.726  0.00  0.00    +0.148 C 
BRANCH  12  11
ATOM     11  N   UNL     1      -1.919  -0.488  25.243  0.00  0.00    -0.075 NA
BRANCH  11   8
ATOM      8  S   UNL     1      -2.445  -1.052  24.948  0.00  0.00    +0.077 S 
ATOM      9  O   UNL     1      -1.852  -1.349  24.458  0.00  0.00    -0.152 OA
ATOM     10  O   UNL     1      -3.039  -0.755  25.438  0.00  0.00    -0.152 OA
BRANCH   8   5
ATOM      1  C   UNL     1      -4.547  -3.306  23.768  0.00  0.00    +0.031 C 
ATOM      2  C   UNL     1      -4.021  -2.742  24.063  0.00  0.00    -0.022 A 
ATOM      3  C   UNL     1      -3.373  -2.980  24.516  0.00  0.00    -0.003 A 
ATOM      4  C   UNL     1      -2.848  -2.416  24.811  0.00  0.00    +0.020 A 
ATOM      5  C   UNL     1      -2.970  -1.615  24.653  0.00  0.00    +0.124 A 
ATOM      6  C   UNL     1      -3.618  -1.379  24.200  0.00  0.00    +0.020 A 
ATOM      7  C   UNL     1      -4.143  -1.942  23.905  0.00  0.00    -0.003 A 
ENDBRANCH   8   5
ENDBRANCH  11   8
ENDBRANCH  12  11
ENDBRANCH  13  12
BRANCH  16  17
ATOM     17  N   UNL     1      -0.826   2.833  24.893  0.00  0.00    -0.209 NA
BRANCH  17  18
ATOM     18  C   UNL     1      -0.897   3.401  25.488  0.00  0.00    +0.115 C 
BRANCH  18  19
ATOM     19  C   UNL     1      -1.074   4.182  25.291  0.00  0.00    -0.002 A 
ATOM     20  C   UNL     1      -1.802   4.507  25.508  0.00  0.00    +0.018 A 
ATOM     21  C   UNL     1      -1.979   5.289  25.311  0.00  0.00    +0.099 A 
ATOM     22  N   UNL     1      -1.429   5.745  24.898  0.00  0.00    -0.242 NA
ATOM     23  C   UNL     1      -0.702   5.420  24.682  0.00  0.00    +0.099 A 
ATOM     24  C   UNL     1      -0.525   4.639  24.879  0.00  0.00    +0.018 A 
ENDBRANCH  18  19
ENDBRANCH  17  18
ENDBRANCH  16  17
TORSDOF 7
ENDMDL
MODEL 4
REMARK VINA RESULT:      -9.5      2.078      6.203
REMARK  Name = 
REMARK  7 active torsions:
REMARK  status: ('A' for Active; 'I' for Inactive)
REMARK    1  A    between atoms: C_5  and  S_8
REMARK    2  A    between atoms: S_8  and  N_11
REMARK    3  A    between atoms: N_11  and  C_12
REMARK    4  A    between atoms: C_12  and  C_13
REMARK    5  A    between atoms: C_16  and  N_17
REMARK    6  A    between atoms: N_17  and  C_18
REMARK    7  A    between atoms: C_18  and  C_19
REMARK                            x       y       z     vdW  Elec       q    Type
REMARK                         _______ _______ _______ _____ _____    ______ ____
ROOT
ATOM     13  C   UNL     1      -1.139   0.763  25.221  0.00  0.00    +0.166 C 
ATOM     14  O   UNL     1      -1.028   0.320  25.908  0.00  0.00    -0.350 OA
ATOM     15  C   UNL     1      -1.378  -0.418  25.794  0.00  0.00    +0.162 C 
ATOM     16  C   UNL     1      -1.705  -0.431  25.037  0.00  0.00    +0.135 C 
ATOM     25  C   UNL     1      -1.557   0.298  24.683  0.00  0.00    +0.199 C 
ATOM     26  O   UNL     1      -1.787   0.525  23.924  0.00  0.00    -0.219 OA
ENDROOT
BRANCH  13  12
ATOM     12  C   UNL     1      -0.877   1.535  25.095  0.00  0.00    +0.148 C 
BRANCH  12  11
ATOM     11  N   UNL     1      -0.910   2.087  25.707  0.00  0.00    -0.075 NA
BRANCH  11   8
ATOM      8  S   UNL     1      -1.018   2.887  25.535  0.00  0.00    +0.077 S 
ATOM      9  O   UNL     1      -0.312   2.891  25.107  0.00  0.00    -0.152 OA
ATOM     10  O   UNL     1      -1.723   2.884  25.963  0.00  0.00    -0.152 OA
BRANCH   8   5
ATOM      1  C   UNL     1      -1.450   6.086  24.850  0.00  0.00    +0.031 C 
ATOM      2  C   UNL     1      -1.342   5.286  25.021  0.00  0.00    -0.022 A 
ATOM      3  C   UNL     1      -1.933   4.865  25.415  0.00  0.00    -0.003 A 
ATOM      4  C   UNL     1      -1.825   4.065  25.586  0.00  0.00    +0.020 A 
ATOM      5  C   UNL     1      -1.126   3.686  25.364  0.00  0.00    +0.124 A 
ATOM      6  C   UNL     1      -0.536   4.108  24.971  0.00  0.00    +0.020 A 
ATOM      7  C   UNL     1      -0.644   4.907  24.799  0.00  0.00    -0.003 A 
ENDBRANCH   8   5
ENDBRANCH  11   8
ENDBRANCH  12  11
ENDBRANCH  13  12
BRANCH  16  17
ATOM     17  N   UNL     1      -2.109  -1.064  24.694  0.00  0.00    -0.209 NA
BRANCH  17  18
ATOM     18  C   UNL     1      -2.738  -1.417  25.095  0.00  0.00    +0.115 C 
BRANCH  18  19
ATOM     19  C   UNL     1      -3.251  -1.922  24.692  0.00  0.00    -0.002 A 
ATOM     20  C   UNL     1      -3.898  -1.612  24.283  0.00  0.00    +0.018 A 
ATOM     21  C   UNL     1      -4.411  -2.117  23.880  0.00  0.00    +0.099 A 
ATOM     22  N   UNL     1      -4.278  -2.932  23.887  0.00  0.00    -0.242 NA
ATOM     23  C   UNL     1      -3.632  -3.241  24.296  0.00  0.00    +0.099 A 
ATOM     24  C   UNL     1      -3.119  -2.736  24.698  0.00  0.00    +0.018 A 
ENDBRANCH  18  19
ENDBRANCH  17  18
ENDBRANCH  16  17
TORSDOF 7
ENDMDL
MODEL 5
REMARK VINA RESULT:      -8.9      4.041      4.979
REMARK  Name = 
REMARK  7 active torsions:
REMARK  status: ('A' for Active; 'I' for Inactive)
REMARK    1  A    between atoms: C_5  and  S_8
REMARK    2  A    between atoms: S_8  and  N_11
REMARK    3  A    between atoms: N_11  and  C_12
REMARK    4  A    between atoms: C_12  and  C_13
REMARK    5  A    between atoms: C_16  and  N_17
REMARK    6  A    between atoms: N_17  and  C_18
REMARK    7  A    between atoms: C_18  and  C_19
REMARK                            x       y       z     vdW  Elec       q    Type
REMARK                         _______ _______ _______ _____ _____    ______ ____
ROOT
ATOM     13  C   UNL     1      -0.512   0.604  23.823  0.00  0.00    +0.166 C 
ATOM     14  O   UNL     1      -0.396  -0.145  23.499  0.00  0.00    -0.350 OA
ATOM     15  C   UNL     1       0.400  -0.216  23.297  0.00  0.00    +0.162 C 
ATOM     16  C   UNL     1       0.777   0.490  23.497  0.00  0.00    +0.135 C 
ATOM     25  C   UNL     1       0.214   0.998  23.821  0.00  0.00    +0.199 C 
ATOM     26  O   UNL     1       0.352   1.763  24.096  0.00  0.00    -0.219 OA
ENDROOT
BRANCH  13  12
ATOM     12  C   UNL     1      -1.227   0.908  24.099  0.00  0.00    +0.148 C 
BRANCH  12  11
ATOM     11  N   UNL     1      -1.927   0.489  23.980  0.00  0.00    -0.075 NA
BRANCH  11   8
ATOM      8  S   UNL     1      -2.648   0.814  24.216  0.00  0.00    +0.077 S 
ATOM      9  O   UNL     1      -2.484   0.612  24.999  0.00  0.00    -0.152 OA
ATOM     10  O   UNL     1      -2.813   1.017  23.433  0.00  0.00    -0.152 OA
BRANCH   8   5
ATOM      1  C   UNL     1      -5.532   2.114  25.158  0.00  0.00    +0.031 C 
ATOM      2  C   UNL     1      -4.810   1.789  24.922  0.00  0.00    -0.022 A 
ATOM      3  C   UNL     1      -4.229   2.272  24.590  0.00  0.00    -0.003 A 
ATOM      4  C   UNL     1      -3.508   1.947  24.354  0.00  0.00    +0.020 A 
ATOM      5  C   UNL     1      -3.368   1.139  24.451  0.00  0.00    +0.124 A 
ATOM      6  C   UNL     1      -3.949   0.657  24.784  0.00  0.00    +0.020 A 
ATOM      7  C   UNL     1      -4.670   0.982  25.019  0.00  0.00    -0.003 A 
ENDBRANCH   8   5
ENDBRANCH  11   8
ENDBRANCH  12  11
ENDBRANCH  13  12
BRANCH  16  17
ATOM     17  N   UNL     1       1.578   0.659  23.390  0.00  0.00    -0.209 NA
BRANCH  17  18
ATOM     18  C   UNL     1       2.039   0.181  22.899  0.00  0.00    +0.115 C 
BRANCH  18  19
ATOM     19  C   UNL     1       2.859   0.266  22.894  0.00  0.00    -0.002 A 
ATOM     20  C   UNL     1       3.338  -0.336  23.195  0.00  0.00    +0.018 A 
ATOM     21  C   UNL     1       4.158  -0.251  23.190  0.00  0.00    +0.099 A 
ATOM     22  N   UNL     1       4.501   0.435  22.884  0.00  0.00    -0.242 NA
ATOM     23  C   UNL     1       4.022   1.036  22.584  0.00  0.00    +0.099 A 
ATOM     24  C   UNL     1       3.201   0.951  22.589  0.00  0.00    +0.018 A 
ENDBRANCH  18  19
ENDBRANCH  17  18
ENDBRANCH  16  17
TORSDOF 7
ENDMDL
