MODEL 1
REMARK VINA RESULT:     -10.3      0.000      0.000
REMARK  Name = 
REMARK  8 active torsions:
REMARK  status: ('A' for Active; 'I' for Inactive)
REMARK    1  A    between atoms: N_2  and  C_3
REMARK    2  A    between atoms: N_2  and  C_11
REMARK    3  A    between atoms: C_3  and  C_4
REMARK    4  A    between atoms: C_4  and  C_5
REMARK    5  A    between atoms: C_12  and  C_13
REMARK    6  A    between atoms: C_13  and  N_14
REMARK    7  A    between atoms: C_15  and  C_17
REMARK    8  A    between atoms: C_23  and  C_24
REMARK                            x       y       z     vdW  Elec       q    Type
REMARK                         _______ _______ _______ _____ _____    ______ ____
ROOT
ATOM     11  C   UNL     1      -4.554   2.248  24.784  0.00  0.00    +0.120 C 
ATOM     12  C   UNL     1      -4.552   1.430  24.887  0.00  0.00    +0.154 C 
ATOM     22  O   UNL     1      -5.196   1.231  25.362  0.00  0.00    -0.350 OA
ATOM     23  C   UNL     1      -5.596   1.927  25.553  0.00  0.00    +0.180 C 
ATOM     26  C   UNL     1      -5.200   2.556  25.196  0.00  0.00    +0.198 C 
ATOM     27  O   UNL     1      -5.411   3.351  25.243  0.00  0.00    -0.219 OA
ENDROOT
BRANCH  11   2
ATOM      1  C   UNL     1      -4.143   2.836  23.548  0.00  0.00    +0.090 C 
ATOM      2  N   UNL     1      -4.006   2.684  24.347  0.00  0.00    -0.268 NA
BRANCH   2   3
ATOM      3  C   UNL     1      -3.321   2.968  24.709  0.00  0.00    +0.079 C 
BRANCH   3   4
ATOM      4  C   UNL     1      -2.778   3.412  24.274  0.00  0.00    +0.063 C 
BRANCH   4   5
ATOM      5  C   UNL     1      -2.073   3.658  24.624  0.00  0.00    +0.060 A 
ATOM      6  N   UNL     1      -1.410   3.167  24.609  0.00  0.00    -0.248 NA
ATOM      7  C   UNL     1      -0.706   3.414  24.958  0.00  0.00    +0.098 A 
ATOM      8  C   UNL     1      -0.663   4.153  25.323  0.00  0.00    +0.021 A 
ATOM      9  C   UNL     1      -1.325   4.645  25.339  0.00  0.00    +0.003 A 
ATOM     10  C   UNL     1      -2.031   4.397  24.989  0.00  0.00    +0.015 A 
ENDBRANCH   4   5
ENDBRANCH   3   4
ENDBRANCH   2   3
ENDBRANCH  11   2
BRANCH  23  24
ATOM     24  C   UNL     1      -6.275   1.983  26.020  0.00  0.00    +0.214 C 
ATOM     25  O   UNL     1      -6.345   1.523  26.700  0.00  0.00    -0.218 OA
ENDBRANCH  23  24
BRANCH  12  13
ATOM     13  C   UNL     1      -4.002   0.903  24.569  0.00  0.00    +0.146 C 
BRANCH  13  14
ATOM     14  N   UNL     1      -4.137   0.090  24.613  0.00  0.00    -0.203 NA
ATOM     15  C   UNL     1      -3.549  -0.439  24.377  0.00  0.00    +0.241 C 
ATOM     16  O   UNL     1      -2.827  -0.155  24.097  0.00  0.00    -0.273 OA
BRANCH  15  17
ATOM     17  C   UNL     1      -3.683  -1.252  24.421  0.00  0.00    +0.078 C 
ATOM     18  C   UNL     1      -4.132  -1.698  23.892  0.00  0.00    +0.009 C 
ATOM     19  C   UNL     1      -4.118  -2.483  24.146  0.00  0.00    +0.001 C 
ATOM     20  C   UNL     1      -3.662  -2.521  24.832  0.00  0.00    +0.001 C 
ATOM     21  C   UNL     1      -3.393  -1.760  25.003  0.00  0.00    +0.009 C 
ENDBRANCH  15  17
ENDBRANCH  13  14
ENDBRANCH  12  13
TORSDOF 8
ENDMDL
MODEL 2
REMARK VINA RESULT:     -10.1      1.099      4.629
REMARK  Name = 
REMARK  8 active torsions:
REMARK  status: ('A' for Active; 'I' for Inactive)
REMARK    1  A    between atoms: N_2  and  C_3
REMARK    2  A    between atoms: N_2  and  C_11
REMARK    3  A    between atoms: C_3  and  C_4
REMARK    4  A    between atoms: C_4  and  C_5
REMARK    5  A    between atoms: C_12  and  C_13
REMARK    6  A    between atoms: C_13  and  N_14
REMARK    7  A    between atoms: C_15  and  C_17
REMARK    8  A    between atoms: C_23  and  C_24
REMARK                            x       y       z     vdW  Elec       q    Type
REMARK                         _______ _______ _______ _____ _____    ______ ____
ROOT
ATOM     11  C   UNL     1      -4.257   1.771  24.711  0.00  0.00    +0.120 C 
ATOM     12  C   UNL     1      -3.802   2.345  25.091  0.00  0.00    +0.154 C 
ATOM     22  O   UNL     1      -4.313   2.842  25.505  0.00  0.00    -0.350 OA
ATOM     23  C   UNL     1      -5.084   2.576  25.381  0.00  0.00    +0.180 C 
ATOM     26  C   UNL     1      -5.050   1.914  24.890  0.00  0.00    +0.198 C 
ATOM     27  O   UNL     1      -5.694   1.473  24.625  0.00  0.00    -0.219 OA
ENDROOT
BRANCH  11   2
ATOM      1  C   UNL     1      -3.739   1.317  23.458  0.00  0.00    +0.090 C 
ATOM      2  N   UNL     1      -3.970   1.162  24.235  0.00  0.00    -0.268 NA
BRANCH   2   3
ATOM      3  C   UNL     1      -3.914   0.395  24.536  0.00  0.00    +0.079 C 
BRANCH   3   4
ATOM      4  C   UNL     1      -3.608  -0.211  24.066  0.00  0.00    +0.063 C 
BRANCH   4   5
ATOM      5  C   UNL     1      -3.590  -0.984  24.352  0.00  0.00    +0.060 A 
ATOM      6  N   UNL     1      -3.161  -1.163  25.033  0.00  0.00    -0.248 NA
ATOM      7  C   UNL     1      -3.143  -1.936  25.319  0.00  0.00    +0.098 A 
ATOM      8  C   UNL     1      -3.554  -2.532  24.923  0.00  0.00    +0.021 A 
ATOM      9  C   UNL     1      -3.983  -2.354  24.241  0.00  0.00    +0.003 A 
ATOM     10  C   UNL     1      -4.001  -1.580  23.956  0.00  0.00    +0.015 A 
ENDBRANCH   4   5
ENDBRANCH   3   4
ENDBRANCH   2   3
ENDBRANCH  11   2
BRANCH  23  24
ATOM     24  C   UNL     1      -5.770   2.913  25.693  0.00  0.00    +0.214 C 
ATOM     25  O   UNL     1      -5.803   3.726  25.829  0.00  0.00    -0.218 OA
ENDBRANCH  23  24
BRANCH  12  13
ATOM     13  C   UNL     1      -2.980   2.410  25.062  0.00  0.00    +0.146 C 
BRANCH  13  14
ATOM     14  N   UNL     1      -2.627   3.150  24.969  0.00  0.00    -0.203 NA
ATOM     15  C   UNL     1      -1.840   3.262  25.189  0.00  0.00    +0.241 C 
ATOM     16  O   UNL     1      -1.406   2.634  25.502  0.00  0.00    -0.273 OA
BRANCH  15  17
ATOM     17  C   UNL     1      -1.487   4.002  25.096  0.00  0.00    +0.078 C 
ATOM     18  C   UNL     1      -0.752   4.149  24.752  0.00  0.00    +0.009 C 
ATOM     19  C   UNL     1      -0.619   4.963  24.775  0.00  0.00    +0.001 C 
ATOM     20  C   UNL     1      -1.271   5.319  25.133  0.00  0.00    +0.001 C 
ATOM     21  C   UNL     1      -1.808   4.724  25.332  0.00  0.00    +0.009 C 
ENDBRANCH  15  17
ENDBRANCH  13  14
ENDBRANCH  12  13
TORSDOF 8
ENDMDL
MODEL 3
REMARK VINA RESULT:     -10.1      2.215      3.702
REMARK  Name = 
REMARK  8 active torsions:
REMARK  status: ('A' for Active; 'I' for Inactive)
REMARK    1  A    between atoms: N_2  and  C_3
REMARK    2  A    between atoms: N_2  and  C_11
REMARK    3  A    between atoms: C_3  and  C_4
REMARK    4  A    between atoms: C_4  and  C_5
REMARK    5  A    between atoms: C_12  and  C_13
REMARK    6  A    between atoms: C_13  and  N_14
REMARK    7  A    between atoms: C_15  and  C_17
REMARK    8  A    between atoms: C_23  and  C_24
REMARK                            x       y       z     vdW  Elec       q    Type
REMARK                         _______ _______ _______ _____ _____    ______ ____
ROOT
ATOM     11  C   UNL     1      -0.486   1.141  24.687  0.00  0.00    +0.120 C 
ATOM     12  C   UNL     1      -0.990   0.530  24.458  0.00  0.00    +0.154 C 
ATOM     22  O   UNL     1      -0.635   0.129  23.831  0.00  0.00    -0.350 OA
ATOM     23  C   UNL     1       0.088   0.492  23.672  0.00  0.00    +0.180 C 
ATOM     26  C   UNL     1       0.181   1.118  24.201  0.00  0.00    +0.198 C 
ATOM     27  O   UNL     1       0.826   1.630  24.237  0.00  0.00    -0.219 OA
ENDROOT
BRANCH  11   2
ATOM      1  C   UNL     1      -0.409   1.495  26.070  0.00  0.00    +0.090 C 
ATOM      2  N   UNL     1      -0.623   1.681  25.295  0.00  0.00    -0.268 NA
BRANCH   2   3
ATOM      3  C   UNL     1      -0.976   2.409  25.129  0.00  0.00    +0.079 C 
BRANCH   3   4
ATOM      4  C   UNL     1      -1.025   2.987  25.715  0.00  0.00    +0.063 C 
BRANCH   4   5
ATOM      5  C   UNL     1      -1.393   3.707  25.554  0.00  0.00    +0.060 A 
ATOM      6  N   UNL     1      -2.190   3.815  25.739  0.00  0.00    -0.248 NA
ATOM      7  C   UNL     1      -2.558   4.534  25.578  0.00  0.00    +0.098 A 
ATOM      8  C   UNL     1      -2.129   5.149  25.232  0.00  0.00    +0.021 A 
ATOM      9  C   UNL     1      -1.332   5.043  25.048  0.00  0.00    +0.003 A 
ATOM     10  C   UNL     1      -0.964   4.322  25.209  0.00  0.00    +0.015 A 
ENDBRANCH   4   5
ENDBRANCH   3   4
ENDBRANCH   2   3
ENDBRANCH  11   2
BRANCH  23  24
ATOM     24  C   UNL     1       0.625   0.268  23.086  0.00  0.00    +0.214 C 
ATOM     25  O   UNL     1       0.726  -0.529  22.904  0.00  0.00    -0.218 OA
ENDBRANCH  23  24
BRANCH  12  13
ATOM     13  C   UNL     1      -1.720   0.351  24.798  0.00  0.00    +0.146 C 
BRANCH  13  14
ATOM     14  N   UNL     1      -2.150  -0.302  24.533  0.00  0.00    -0.203 NA
ATOM     15  C   UNL     1      -2.903  -0.451  24.836  0.00  0.00    +0.241 C 
ATOM     16  O   UNL     1      -3.225   0.052  25.404  0.00  0.00    -0.273 OA
BRANCH  15  17
ATOM     17  C   UNL     1      -3.332  -1.104  24.571  0.00  0.00    +0.078 C 
ATOM     18  C   UNL     1      -3.947  -1.089  24.021  0.00  0.00    +0.009 C 
ATOM     19  C   UNL     1      -4.216  -1.862  23.919  0.00  0.00    +0.001 C 
ATOM     20  C   UNL     1      -3.768  -2.354  24.407  0.00  0.00    +0.001 C 
ATOM     21  C   UNL     1      -3.222  -1.885  24.809  0.00  0.00    +0.009 C 
ENDBRANCH  15  17
ENDBRANCH  13  14
ENDBRANCH  12  13
TORSDOF 8
ENDMDL
MODEL 4
REMARK VINA RESULT:      -9.8      2.288      5.836
REMARK  Name = 
REMARK  8 active torsions:
REMARK  status: ('A' for Active; 'I' for Inactive)
REMARK    1  A    between atoms: N_2  and  C_3
REMARK    2  A    between atoms: N_2  and  C_11
REMARK    3  A    between atoms: C_3  and  C_4
REMARK    4  A    between atoms: C_4  and  C_5
REMARK    5  A    between atoms: C_12  and  C_13
REMARK    6  A    between atoms: C_13  and  N_14
REMARK    7  A    between atoms: C_15  and  C_17
REMARK    8  A    between atoms: C_23  and  C_24
REMARK                            x       y       z     vdW  Elec       q    Type
REMARK                         _______ _______ _______ _____ _____    ______ ____
ROOT
ATOM     11  C   UNL     1      -0.845   0.163  24.605  0.00  0.00    +0.120 C 
ATOM     12  C   UNL     1      -0.829   0.983  24.519  0.00  0.00    +0.154 C 
ATOM     22  O   UNL     1      -0.193   1.175  24.031  0.00  0.00    -0.350 OA
ATOM     23  C   UNL     1       0.185   0.474  23.815  0.00  0.00    +0.180 C 
ATOM     26  C   UNL     1      -0.218  -0.152  24.169  0.00  0.00    +0.198 C 
ATOM     27  O   UNL     1      -0.029  -0.951  24.100  0.00  0.00    -0.219 OA
ENDROOT
BRANCH  11   2
ATOM      1  C   UNL     1      -1.284  -0.360  25.860  0.00  0.00    +0.090 C 
ATOM      2  N   UNL     1      -1.392  -0.268  25.048  0.00  0.00    -0.268 NA
BRANCH   2   3
ATOM      3  C   UNL     1      -2.047  -0.608  24.678  0.00  0.00    +0.079 C 
BRANCH   3   4
ATOM      4  C   UNL     1      -2.586  -1.051  25.118  0.00  0.00    +0.063 C 
BRANCH   4   5
ATOM      5  C   UNL     1      -3.150  -1.514  24.734  0.00  0.00    +0.060 A 
ATOM      6  N   UNL     1      -3.083  -2.336  24.738  0.00  0.00    -0.248 NA
ATOM      7  C   UNL     1      -3.647  -2.799  24.355  0.00  0.00    +0.098 A 
ATOM      8  C   UNL     1      -4.279  -2.439  23.965  0.00  0.00    +0.021 A 
ATOM      9  C   UNL     1      -4.347  -1.617  23.960  0.00  0.00    +0.003 A 
ATOM     10  C   UNL     1      -3.782  -1.154  24.344  0.00  0.00    +0.015 A 
ENDBRANCH   4   5
ENDBRANCH   3   4
ENDBRANCH   2   3
ENDBRANCH  11   2
BRANCH  23  24
ATOM     24  C   UNL     1       0.849   0.411  23.329  0.00  0.00    +0.214 C 
ATOM     25  O   UNL     1       1.429   0.997  23.346  0.00  0.00    -0.218 OA
ENDBRANCH  23  24
BRANCH  12  13
ATOM     13  C   UNL     1      -1.357   1.517  24.862  0.00  0.00    +0.146 C 
BRANCH  13  14
ATOM     14  N   UNL     1      -1.177   2.321  24.878  0.00  0.00    -0.203 NA
ATOM     15  C   UNL     1      -1.756   2.870  25.091  0.00  0.00    +0.241 C 
ATOM     16  O   UNL     1      -2.515   2.612  25.286  0.00  0.00    -0.273 OA
BRANCH  15  17
ATOM     17  C   UNL     1      -1.577   3.674  25.107  0.00  0.00    +0.078 C 
ATOM     18  C   UNL     1      -2.075   4.277  25.370  0.00  0.00    +0.009 C 
ATOM     19  C   UNL     1      -1.673   4.993  25.289  0.00  0.00    +0.001 C 
ATOM     20  C   UNL     1      -0.927   4.833  24.976  0.00  0.00    +0.001 C 
ATOM     21  C   UNL     1      -0.867   4.017  24.863  0.00  0.00    +0.009 C 
ENDBRANCH  15  17
ENDBRANCH  13  14
ENDBRANCH  12  13
TORSDOF 8
ENDMDL
MODEL 5
REMARK VINA RESULT:      -9.7      1.915      3.349
REMARK  Name = 
REMARK  8 active torsions:
REMARK  status: ('A' for Active; 'I' for Inactive)
REMARK    1  A    between atoms: N_2  and  C_3
REMARK    2  A    between atoms: N_2  and  C_11
REMARK    3  A    between atoms: C_3  and  C_4
REMARK    4  A    between atoms: C_4  and  C_5
REMARK    5  A    between atoms: C_12  and  C_13
REMARK    6  A    between atoms: C_13  and  N_14
REMARK    7  A    between atoms: C_15  and  C_17
REMARK    8  A    between atoms: C_23  and  C_24
REMARK                            x       y       z     vdW  Elec       q    Type
REMARK                         _______ _______ _______ _____ _____    ______ ____
ROOT
ATOM     11  C   UNL     1      -2.164   1.575  23.795  0.00  0.00    +0.120 C 
ATOM     12  C   UNL     1      -2.176   0.763  23.942  0.00  0.00    +0.154 C 
ATOM     22  O   UNL     1      -1.406   0.523  24.111  0.00  0.00    -0.350 OA
ATOM     23  C   UNL     1      -0.917   1.186  24.069  0.00  0.00    +0.180 C 
ATOM     26  C   UNL     1      -1.385   1.836  23.873  0.00  0.00    +0.198 C 
ATOM     27  O   UNL     1      -1.122   2.611  23.773  0.00  0.00    -0.219 OA
ENDROOT
BRANCH  11   2
ATOM      1  C   UNL     1      -2.993   2.200  22.812  0.00  0.00    +0.090 C 
ATOM      2  N   UNL     1      -2.816   2.043  23.602  0.00  0.00    -0.268 NA
BRANCH   2   3
ATOM      3  C   UNL     1      -3.291   2.355  24.201  0.00  0.00    +0.079 C 
BRANCH   3   4
ATOM      4  C   UNL     1      -3.985   2.757  24.010  0.00  0.00    +0.063 C 
BRANCH   4   5
ATOM      5  C   UNL     1      -4.523   2.957  24.602  0.00  0.00    +0.060 A 
ATOM      6  N   UNL     1      -4.409   3.640  25.050  0.00  0.00    -0.248 NA
ATOM      7  C   UNL     1      -4.946   3.840  25.642  0.00  0.00    +0.098 A 
ATOM      8  C   UNL     1      -5.598   3.356  25.788  0.00  0.00    +0.021 A 
ATOM      9  C   UNL     1      -5.713   2.673  25.341  0.00  0.00    +0.003 A 
ATOM     10  C   UNL     1      -5.175   2.473  24.748  0.00  0.00    +0.015 A 
ENDBRANCH   4   5
ENDBRANCH   3   4
ENDBRANCH   2   3
ENDBRANCH  11   2
BRANCH  23  24
ATOM     24  C   UNL     1      -0.102   1.197  24.199  0.00  0.00    +0.214 C 
ATOM     25  O   UNL     1       0.377   0.622  23.854  0.00  0.00    -0.218 OA
ENDBRANCH  23  24
BRANCH  12  13
ATOM     13  C   UNL     1      -2.843   0.277  23.923  0.00  0.00    +0.146 C 
BRANCH  13  14
ATOM     14  N   UNL     1      -2.820  -0.468  24.276  0.00  0.00    -0.203 NA
ATOM     15  C   UNL     1      -3.468  -0.975  24.211  0.00  0.00    +0.241 C 
ATOM     16  O   UNL     1      -4.139  -0.736  23.795  0.00  0.00    -0.273 OA
BRANCH  15  17
ATOM     17  C   UNL     1      -3.445  -1.721  24.564  0.00  0.00    +0.078 C 
ATOM     18  C   UNL     1      -3.521  -2.444  24.174  0.00  0.00    +0.009 C 
ATOM     19  C   UNL     1      -3.465  -3.044  24.737  0.00  0.00    +0.001 C 
ATOM     20  C   UNL     1      -3.354  -2.692  25.475  0.00  0.00    +0.001 C 
ATOM     21  C   UNL     1      -3.342  -1.873  25.368  0.00  0.00    +0.009 C 
ENDBRANCH  15  17
ENDBRANCH  13  14
ENDBRANCH  12  13
TORSDOF 8
ENDMDL
MODEL 6
REMARK VINA RESULT:      -8.9      1.908      4.876
REMARK  Name = 
REMARK  8 active torsions:
REMARK  status: ('A' for Active; 'I' for Inactive)
REMARK    1  A    between atoms: N_2  and  C_3
REMARK    2  A    between atoms: N_2  and  C_11
REMARK    3  A    between atoms: C_3  and  C_4
REMARK    4  A    between atoms: C_4  and  C_5
REMARK    5  A    between atoms: C_12  and  C_13
REMARK    6  A    between atoms: C_13  and  N_14
REMARK    7  A    between atoms: C_15  and  C_17
REMARK    8  A    between atoms: C_23  and  C_24
REMARK                            x       y       z     vdW  Elec       q    Type
REMARK                         _______ _______ _______ _____ _____    ______ ____
ROOT
ATOM     11  C   UNL     1      -1.477   1.278  24.758  0.00  0.00    +0.120 C 
ATOM     12  C   UNL     1      -1.939   1.951  24.874  0.00  0.00    +0.154 C 
ATOM     22  O   UNL     1      -1.563   2.425  25.434  0.00  0.00    -0.350 OA
ATOM     23  C   UNL     1      -0.869   2.044  25.666  0.00  0.00    +0.180 C 
ATOM     26  C   UNL     1      -0.815   1.336  25.248  0.00  0.00    +0.198 C 
ATOM     27  O   UNL     1      -0.207   0.782  25.309  0.00  0.00    -0.219 OA
ENDROOT
BRANCH  11   2
ATOM      1  C   UNL     1      -1.382   0.682  23.463  0.00  0.00    +0.090 C 
ATOM      2  N   UNL     1      -1.646   0.656  24.244  0.00  0.00    -0.268 NA
BRANCH   2   3
ATOM      3  C   UNL     1      -2.080   0.006  24.510  0.00  0.00    +0.079 C 
BRANCH   3   4
ATOM      4  C   UNL     1      -2.260  -0.611  23.992  0.00  0.00    +0.063 C 
BRANCH   4   5
ATOM      5  C   UNL     1      -2.710  -1.250  24.253  0.00  0.00    +0.060 A 
ATOM      6  N   UNL     1      -2.342  -1.896  24.612  0.00  0.00    -0.248 NA
ATOM      7  C   UNL     1      -2.792  -2.535  24.873  0.00  0.00    +0.098 A 
ATOM      8  C   UNL     1      -3.611  -2.530  24.775  0.00  0.00    +0.021 A 
ATOM      9  C   UNL     1      -3.980  -1.885  24.417  0.00  0.00    +0.003 A 
ATOM     10  C   UNL     1      -3.529  -1.245  24.155  0.00  0.00    +0.015 A 
ENDBRANCH   4   5
ENDBRANCH   3   4
ENDBRANCH   2   3
ENDBRANCH  11   2
BRANCH  23  24
ATOM     24  C   UNL     1      -0.324   2.325  26.219  0.00  0.00    +0.214 C 
ATOM     25  O   UNL     1      -0.051   3.101  26.170  0.00  0.00    -0.218 OA
ENDBRANCH  23  24
BRANCH  12  13
ATOM     13  C   UNL     1      -2.652   2.121  24.494  0.00  0.00    +0.146 C 
BRANCH  13  14
ATOM     14  N   UNL     1      -3.302   2.376  24.933  0.00  0.00    -0.203 NA
ATOM     15  C   UNL     1      -3.972   2.667  24.548  0.00  0.00    +0.241 C 
ATOM     16  O   UNL     1      -3.990   2.703  23.724  0.00  0.00    -0.273 OA
BRANCH  15  17
ATOM     17  C   UNL     1      -4.622   2.922  24.987  0.00  0.00    +0.078 C 
ATOM     18  C   UNL     1      -5.243   2.449  25.253  0.00  0.00    +0.009 C 
ATOM     19  C   UNL     1      -5.770   2.930  25.667  0.00  0.00    +0.001 C 
ATOM     20  C   UNL     1      -5.474   3.700  25.657  0.00  0.00    +0.001 C 
ATOM     21  C   UNL     1      -4.764   3.695  25.236  0.00  0.00    +0.009 C 
ENDBRANCH  15  17
ENDBRANCH  13  14
ENDBRANCH  12  13
TORSDOF 8
ENDMDL
