REMARK  Name = 
REMARK  5 active torsions:
REMARK  status: ('A' for Active; 'I' for Inactive)
REMARK    1  A    between atoms: C_5  and  C_6
REMARK    2  A    between atoms: C_7  and  C_8
REMARK    3  A    between atoms: N_14  and  C_15
REMARK    4  A    between atoms: C_15  and  C_16
REMARK    5  A    between atoms: C_20  and  C_22
REMARK                            x       y       z     vdW  Elec       q    Type
REMARK                         _______ _______ _______ _____ _____    ______ ____
ROOT
ATOM      8  C   UNL     1      -0.397  -0.039   0.000  0.00  0.00    +0.012 A 
ATOM      9  C   UNL     1       0.244  -0.558   0.000  0.00  0.00    +0.041 A 
ATOM     10  C   UNL     1       1.163  -0.557   0.000  0.00  0.00    +0.054 C 
ATOM     11  C   UNL     1       1.713  -0.121   0.000  0.00  0.00    +0.011 C 
ATOM     12  C   UNL     1       1.582  -0.925   0.000  0.00  0.00    +0.039 C 
ATOM     13  C   UNL     1       1.629  -1.912   0.000  0.00  0.00    +0.074 C 
ATOM     14  N   UNL     1       0.813  -2.091   0.000  0.00  0.00    -0.269 NA
ATOM     24  C   UNL     1       1.225  -1.510   0.000  0.00  0.00    +0.078 C 
ATOM     25  C   UNL     1       0.622  -0.936   0.000  0.00  0.00    +0.110 C 
ATOM     26  N   UNL     1       0.115  -1.373   0.000  0.00  0.00    -0.299 N 
ATOM     27  C   UNL     1      -0.655  -1.669   0.000  0.00  0.00    +0.261 A 
ATOM     28  O   UNL     1      -0.784  -2.484   0.000  0.00  0.00    -0.267 OA
ATOM     29  C   UNL     1      -1.296  -1.150   0.000  0.00  0.00    +0.061 A 
ATOM     30  C   UNL     1      -1.167  -0.335   0.000  0.00  0.00    +0.006 A 
ENDROOT
BRANCH   8   7
ATOM      6  C   UNL     1      -0.909   1.295   0.000  0.00  0.00    +0.000 C 
ATOM      7  C   UNL     1      -0.268   0.776   0.000  0.00  0.00    +0.001 C 
BRANCH   6   5
ATOM      1 CL   UNL     1      -0.393   4.554   0.000  0.00  0.00    -0.082 Cl
ATOM      2  C   UNL     1      -0.522   3.740   0.000  0.00  0.00    +0.058 A 
ATOM      3  C   UNL     1       0.119   3.220   0.000  0.00  0.00    +0.011 A 
ATOM      4  C   UNL     1      -0.010   2.406   0.000  0.00  0.00    +0.001 A 
ATOM      5  C   UNL     1      -0.780   2.110   0.000  0.00  0.00    +0.000 A 
ATOM     31  C   UNL     1      -1.421   2.629   0.000  0.00  0.00    +0.001 A 
ATOM     32  C   UNL     1      -1.292   3.444   0.000  0.00  0.00    +0.011 A 
ENDBRANCH   6   5
ENDBRANCH   8   7
BRANCH  14  15
ATOM     15  C   UNL     1       0.125  -2.547   0.000  0.00  0.00    +0.099 C 
BRANCH  15  16
ATOM     16  C   UNL     1       0.176  -3.370   0.000  0.00  0.00    -0.005 A 
ATOM     17  C   UNL     1       0.914  -3.738   0.000  0.00  0.00    -0.003 A 
ATOM     18  C   UNL     1       0.965  -4.562   0.000  0.00  0.00    +0.000 A 
ATOM     19  C   UNL     1       0.277  -5.017   0.000  0.00  0.00    +0.010 A 
ATOM     20  C   UNL     1      -0.461  -4.650   0.000  0.00  0.00    +0.068 A 
ATOM     21  C   UNL     1      -0.512  -3.826   0.000  0.00  0.00    +0.007 A 
BRANCH  20  22
ATOM     22  C   UNL     1      -1.149  -5.105   0.000  0.00  0.00    +0.100 C 
ATOM     23  N   UNL     1      -1.837  -5.561   0.000  0.00  0.00    -0.191 NA
ENDBRANCH  20  22
ENDBRANCH  15  16
ENDBRANCH  14  15
TORSDOF 5
