MODEL 1
REMARK VINA RESULT:     -10.1      0.000      0.000
REMARK  Name = 
REMARK  6 active torsions:
REMARK  status: ('A' for Active; 'I' for Inactive)
REMARK    1  A    between atoms: C_2  and  C_4
REMARK    2  A    between atoms: C_6  and  C_7
REMARK    3  A    between atoms: C_7  and  C_8
REMARK    4  A    between atoms: N_13  and  C_16
REMARK    5  A    between atoms: C_25  and  C_26
REMARK    6  A    between atoms: C_26  and  C_27
REMARK                            x       y       z     vdW  Elec       q    Type
REMARK                         _______ _______ _______ _____ _____    ______ ____
ROOT
ATOM      7  C   UNL     1      -3.372   2.201  24.929  0.00  0.00    +0.089 C 
ENDROOT
BRANCH   7   8
ATOM      8  C   UNL     1      -3.395   1.757  24.233  0.00  0.00    +0.226 C 
ATOM      9  O   UNL     1      -3.344   2.135  23.502  0.00  0.00    -0.275 OA
ATOM     10  N   UNL     1      -3.468   0.937  24.269  0.00  0.00    -0.276 N 
ATOM     11  C   UNL     1      -3.519   0.559  25.001  0.00  0.00    +0.115 C 
ATOM     12  C   UNL     1      -3.592  -0.262  25.037  0.00  0.00    +0.114 C 
ATOM     13  N   UNL     1      -3.614  -0.705  24.342  0.00  0.00    -0.288 N 
ATOM     14  C   UNL     1      -3.563  -0.328  23.610  0.00  0.00    +0.114 C 
ATOM     15  C   UNL     1      -3.490   0.494  23.574  0.00  0.00    +0.115 C 
BRANCH  13  16
ATOM     16  C   UNL     1      -3.688  -1.526  24.378  0.00  0.00    +0.151 A 
ATOM     17  C   UNL     1      -4.231  -1.913  23.893  0.00  0.00    +0.133 A 
ATOM     18  N   UNL     1      -4.304  -2.735  23.929  0.00  0.00    -0.238 NA
ATOM     19  C   UNL     1      -3.834  -3.168  24.450  0.00  0.00    +0.120 A 
ATOM     20  C   UNL     1      -3.291  -2.781  24.935  0.00  0.00    +0.121 A 
ATOM     21  N   UNL     1      -3.217  -1.960  24.899  0.00  0.00    -0.226 NA
ENDBRANCH  13  16
ENDBRANCH   7   8
BRANCH   7   6
ATOM      4  C   UNL     1      -1.440   3.201  25.102  0.00  0.00    +0.005 C 
ATOM      5  C   UNL     1      -2.004   2.606  25.009  0.00  0.00    +0.005 C 
ATOM      6  C   UNL     1      -2.808   2.795  25.021  0.00  0.00    +0.027 C 
ATOM     22  C   UNL     1      -3.046   3.578  25.125  0.00  0.00    -0.048 C 
ATOM     23  C   UNL     1      -3.849   3.767  25.137  0.00  0.00    +0.026 C 
ATOM     24  C   UNL     1      -2.482   4.173  25.217  0.00  0.00    -0.034 C 
ATOM     25  C   UNL     1      -1.678   3.984  25.206  0.00  0.00    +0.037 C 
BRANCH   4   2
ATOM      1  C   UNL     1      -0.244   2.837  25.794  0.00  0.00    +0.000 C 
ATOM      2  C   UNL     1      -0.637   3.013  25.090  0.00  0.00    +0.000 C 
ATOM      3  C   UNL     1      -0.226   3.000  24.374  0.00  0.00    +0.000 C 
ENDBRANCH   4   2
BRANCH  25  26
ATOM     26  C   UNL     1      -1.114   4.578  25.298  0.00  0.00    +0.110 C 
BRANCH  26  27
ATOM     27  C   UNL     1      -1.303   5.359  25.112  0.00  0.00    +0.073 C 
ATOM     28  N   UNL     1      -1.492   6.141  24.925  0.00  0.00    -0.196 NA
ENDBRANCH  26  27
ENDBRANCH  25  26
ENDBRANCH   7   6
TORSDOF 6
ENDMDL
MODEL 2
REMARK VINA RESULT:      -9.5      2.729      4.474
REMARK  Name = 
REMARK  6 active torsions:
REMARK  status: ('A' for Active; 'I' for Inactive)
REMARK    1  A    between atoms: C_2  and  C_4
REMARK    2  A    between atoms: C_6  and  C_7
REMARK    3  A    between atoms: C_7  and  C_8
REMARK    4  A    between atoms: N_13  and  C_16
REMARK    5  A    between atoms: C_25  and  C_26
REMARK    6  A    between atoms: C_26  and  C_27
REMARK                            x       y       z     vdW  Elec       q    Type
REMARK                         _______ _______ _______ _____ _____    ______ ____
ROOT
ATOM      7  C   UNL     1      -2.286   0.782  24.535  0.00  0.00    +0.089 C 
ENDROOT
BRANCH   7   8
ATOM      8  C   UNL     1      -1.600   1.165  24.786  0.00  0.00    +0.226 C 
ATOM      9  O   UNL     1      -1.631   1.700  25.413  0.00  0.00    -0.275 OA
ATOM     10  N   UNL     1      -0.881   1.013  24.410  0.00  0.00    -0.276 N 
ATOM     11  C   UNL     1      -0.849   0.478  23.782  0.00  0.00    +0.115 C 
ATOM     12  C   UNL     1      -0.131   0.326  23.406  0.00  0.00    +0.114 C 
ATOM     13  N   UNL     1       0.554   0.709  23.657  0.00  0.00    -0.288 N 
ATOM     14  C   UNL     1       0.523   1.244  24.284  0.00  0.00    +0.114 C 
ATOM     15  C   UNL     1      -0.196   1.396  24.660  0.00  0.00    +0.115 C 
BRANCH  13  16
ATOM     16  C   UNL     1       1.273   0.557  23.280  0.00  0.00    +0.151 A 
ATOM     17  C   UNL     1       1.327  -0.052  22.726  0.00  0.00    +0.133 A 
ATOM     18  N   UNL     1       2.046  -0.204  22.349  0.00  0.00    -0.238 NA
ATOM     19  C   UNL     1       2.710   0.252  22.528  0.00  0.00    +0.120 A 
ATOM     20  C   UNL     1       2.655   0.861  23.083  0.00  0.00    +0.121 A 
ATOM     21  N   UNL     1       1.937   1.013  23.459  0.00  0.00    -0.226 NA
ENDBRANCH  13  16
ENDBRANCH   7   8
BRANCH   7   6
ATOM      4  C   UNL     1      -3.800   2.341  24.327  0.00  0.00    +0.005 C 
ATOM      5  C   UNL     1      -3.074   1.950  24.294  0.00  0.00    +0.005 C 
ATOM      6  C   UNL     1      -3.011   1.173  24.567  0.00  0.00    +0.027 C 
ATOM     22  C   UNL     1      -3.675   0.788  24.871  0.00  0.00    -0.048 C 
ATOM     23  C   UNL     1      -3.612   0.012  25.144  0.00  0.00    +0.026 C 
ATOM     24  C   UNL     1      -4.401   1.179  24.904  0.00  0.00    -0.034 C 
ATOM     25  C   UNL     1      -4.463   1.956  24.631  0.00  0.00    +0.037 C 
BRANCH   4   2
ATOM      1  C   UNL     1      -3.834   3.746  24.589  0.00  0.00    +0.000 C 
ATOM      2  C   UNL     1      -3.862   3.117  24.054  0.00  0.00    +0.000 C 
ATOM      3  C   UNL     1      -3.953   3.266  23.247  0.00  0.00    +0.000 C 
ENDBRANCH   4   2
BRANCH  25  26
ATOM     26  C   UNL     1      -5.188   2.347  24.663  0.00  0.00    +0.110 C 
BRANCH  26  27
ATOM     27  C   UNL     1      -5.844   1.973  24.994  0.00  0.00    +0.073 C 
ATOM     28  N   UNL     1      -6.501   1.599  25.326  0.00  0.00    -0.196 NA
ENDBRANCH  26  27
ENDBRANCH  25  26
ENDBRANCH   7   6
TORSDOF 6
ENDMDL
MODEL 3
REMARK VINA RESULT:      -9.4      1.243      5.538
REMARK  Name = 
REMARK  6 active torsions:
REMARK  status: ('A' for Active; 'I' for Inactive)
REMARK    1  A    between atoms: C_2  and  C_4
REMARK    2  A    between atoms: C_6  and  C_7
REMARK    3  A    between atoms: C_7  and  C_8
REMARK    4  A    between atoms: N_13  and  C_16
REMARK    5  A    between atoms: C_25  and  C_26
REMARK    6  A    between atoms: C_26  and  C_27
REMARK                            x       y       z     vdW  Elec       q    Type
REMARK                         _______ _______ _______ _____ _____    ______ ____
ROOT
ATOM      7  C   UNL     1      -3.466   0.679  24.655  0.00  0.00    +0.089 C 
ENDROOT
BRANCH   7   8
ATOM      8  C   UNL     1      -3.126   1.128  24.053  0.00  0.00    +0.226 C 
ATOM      9  O   UNL     1      -3.147   0.859  23.274  0.00  0.00    -0.275 OA
ATOM     10  N   UNL     1      -2.764   1.848  24.229  0.00  0.00    -0.276 N 
ATOM     11  C   UNL     1      -2.742   2.118  25.009  0.00  0.00    +0.115 C 
ATOM     12  C   UNL     1      -2.380   2.838  25.186  0.00  0.00    +0.114 C 
ATOM     13  N   UNL     1      -2.040   3.287  24.584  0.00  0.00    -0.288 N 
ATOM     14  C   UNL     1      -2.062   3.018  23.805  0.00  0.00    +0.114 C 
ATOM     15  C   UNL     1      -2.424   2.297  23.628  0.00  0.00    +0.115 C 
BRANCH  13  16
ATOM     16  C   UNL     1      -1.678   4.008  24.761  0.00  0.00    +0.151 A 
ATOM     17  C   UNL     1      -2.119   4.619  25.096  0.00  0.00    +0.133 A 
ATOM     18  N   UNL     1      -1.756   5.340  25.273  0.00  0.00    -0.238 NA
ATOM     19  C   UNL     1      -0.954   5.448  25.115  0.00  0.00    +0.120 A 
ATOM     20  C   UNL     1      -0.514   4.836  24.780  0.00  0.00    +0.121 A 
ATOM     21  N   UNL     1      -0.875   4.116  24.603  0.00  0.00    -0.226 NA
ENDBRANCH  13  16
ENDBRANCH   7   8
BRANCH   7   6
ATOM      4  C   UNL     1      -2.488  -1.269  24.769  0.00  0.00    +0.005 C 
ATOM      5  C   UNL     1      -2.597  -0.452  24.753  0.00  0.00    +0.005 C 
ATOM      6  C   UNL     1      -3.356  -0.138  24.671  0.00  0.00    +0.027 C 
ATOM     22  C   UNL     1      -4.006  -0.644  24.606  0.00  0.00    -0.048 C 
ATOM     23  C   UNL     1      -4.765  -0.331  24.524  0.00  0.00    +0.026 C 
ATOM     24  C   UNL     1      -3.897  -1.461  24.622  0.00  0.00    -0.034 C 
ATOM     25  C   UNL     1      -3.137  -1.775  24.703  0.00  0.00    +0.037 C 
BRANCH   4   2
ATOM      1  C   UNL     1      -1.308  -1.826  24.183  0.00  0.00    +0.000 C 
ATOM      2  C   UNL     1      -1.729  -1.582  24.850  0.00  0.00    +0.000 C 
ATOM      3  C   UNL     1      -1.389  -1.652  25.600  0.00  0.00    +0.000 C 
ENDBRANCH   4   2
BRANCH  25  26
ATOM     26  C   UNL     1      -3.027  -2.592  24.719  0.00  0.00    +0.110 C 
BRANCH  26  27
ATOM     27  C   UNL     1      -3.593  -3.090  24.385  0.00  0.00    +0.073 C 
ATOM     28  N   UNL     1      -4.158  -3.589  24.050  0.00  0.00    -0.196 NA
ENDBRANCH  26  27
ENDBRANCH  25  26
ENDBRANCH   7   6
TORSDOF 6
ENDMDL
