MODEL 1
REMARK VINA RESULT:     -12.5      0.000      0.000
REMARK  Name = 
REMARK  7 active torsions:
REMARK  status: ('A' for Active; 'I' for Inactive)
REMARK    1  A    between atoms: O_2  and  C_3
REMARK    2  A    between atoms: C_3  and  C_4
REMARK    3  A    between atoms: C_13  and  C_15
REMARK    4  A    between atoms: C_23  and  C_24
REMARK    5  A    between atoms: C_24  and  C_25
REMARK    6  A    between atoms: N_27  and  C_28
REMARK    7  A    between atoms: C_28  and  C_29
REMARK                            x       y       z     vdW  Elec       q    Type
REMARK                         _______ _______ _______ _____ _____    ______ ____
ROOT
ATOM      4  C   UNL     1       0.444   0.629  23.532  0.00  0.00    +0.277 C 
ATOM      5  O   UNL     1       0.726   1.330  23.863  0.00  0.00    -0.270 OA
ATOM      6  N   UNL     1      -0.366   0.476  23.523  0.00  0.00    -0.152 NA
ATOM      7  C   UNL     1      -0.894   1.023  23.844  0.00  0.00    +0.185 A 
ATOM      8  N   UNL     1      -1.714   0.944  23.873  0.00  0.00    -0.227 NA
ATOM      9  C   UNL     1      -2.022   1.617  24.239  0.00  0.00    +0.063 A 
ATOM     10  C   UNL     1      -1.390   2.110  24.435  0.00  0.00    +0.023 A 
ATOM     11  C   UNL     1      -1.533   2.831  24.811  0.00  0.00    +0.034 C 
ATOM     12  C   UNL     1      -2.305   3.058  24.991  0.00  0.00    +0.010 C 
ATOM     13  C   UNL     1      -2.446   3.778  25.367  0.00  0.00    +0.059 C 
ATOM     14  C   UNL     1      -1.624   3.805  25.311  0.00  0.00    +0.005 C 
ATOM     17  C   UNL     1      -3.219   4.005  25.546  0.00  0.00    +0.154 C 
ATOM     18  O   UNL     1      -3.361   4.726  25.923  0.00  0.00    -0.223 OA
ATOM     19  C   UNL     1      -3.850   3.511  25.350  0.00  0.00    +0.033 C 
ATOM     20  C   UNL     1      -3.709   2.790  24.974  0.00  0.00    +0.003 C 
ATOM     21  C   UNL     1      -2.936   2.564  24.794  0.00  0.00    +0.006 C 
ATOM     22  C   UNL     1      -3.567   2.070  24.598  0.00  0.00    +0.000 C 
ATOM     23  C   UNL     1      -2.795   1.844  24.418  0.00  0.00    +0.050 C 
ATOM     35  S   UNL     1      -0.693   1.743  24.191  0.00  0.00    -0.054 S 
ENDROOT
BRANCH  13  15
ATOM     15  C   UNL     1      -2.303   4.508  25.723  0.00  0.00    +0.184 C 
ATOM     16  O   UNL     1      -1.621   4.932  25.536  0.00  0.00    -0.220 OA
ENDBRANCH  13  15
BRANCH   4   3
ATOM      3  C   UNL     1       0.972   0.082  23.212  0.00  0.00    +0.229 C 
BRANCH   3   2
ATOM      1  C   UNL     1       2.159  -0.200  22.469  0.00  0.00    +0.175 C 
ATOM      2  O   UNL     1       1.660   0.343  22.838  0.00  0.00    -0.342 OA
ENDBRANCH   3   2
ENDBRANCH   4   3
BRANCH  23  24
ATOM     24  C   UNL     1      -3.425   1.350  24.222  0.00  0.00    +0.093 C 
BRANCH  24  25
ATOM     25  C   UNL     1      -3.629   0.723  24.718  0.00  0.00    +0.242 C 
ATOM     26  O   UNL     1      -3.700   0.847  25.530  0.00  0.00    -0.273 OA
ATOM     27  N   UNL     1      -3.761  -0.027  24.401  0.00  0.00    -0.200 NA
BRANCH  27  28
ATOM     28  C   UNL     1      -3.964  -0.653  24.897  0.00  0.00    +0.143 C 
BRANCH  28  29
ATOM     29  C   UNL     1      -3.906  -1.430  24.625  0.00  0.00    +0.019 A 
ATOM     30  C   UNL     1      -3.433  -1.974  25.028  0.00  0.00    +0.001 A 
ATOM     31  C   UNL     1      -3.375  -2.751  24.756  0.00  0.00    +0.020 A 
ATOM     32  C   UNL     1      -3.790  -2.985  24.082  0.00  0.00    +0.099 A 
ATOM     33  N   UNL     1      -4.263  -2.441  23.680  0.00  0.00    -0.243 NA
ATOM     34  C   UNL     1      -4.321  -1.664  23.952  0.00  0.00    +0.096 A 
ENDBRANCH  28  29
ENDBRANCH  27  28
ENDBRANCH  24  25
ENDBRANCH  23  24
TORSDOF 7
ENDMDL
MODEL 2
REMARK VINA RESULT:     -11.6      1.767      4.600
REMARK  Name = 
REMARK  7 active torsions:
REMARK  status: ('A' for Active; 'I' for Inactive)
REMARK    1  A    between atoms: O_2  and  C_3
REMARK    2  A    between atoms: C_3  and  C_4
REMARK    3  A    between atoms: C_13  and  C_15
REMARK    4  A    between atoms: C_23  and  C_24
REMARK    5  A    between atoms: C_24  and  C_25
REMARK    6  A    between atoms: N_27  and  C_28
REMARK    7  A    between atoms: C_28  and  C_29
REMARK                            x       y       z     vdW  Elec       q    Type
REMARK                         _______ _______ _______ _____ _____    ______ ____
ROOT
ATOM      4  C   UNL     1       1.318   0.099  23.050  0.00  0.00    +0.277 C 
ATOM      5  O   UNL     1       1.122  -0.683  22.874  0.00  0.00    -0.270 OA
ATOM      6  N   UNL     1       0.833   0.542  23.548  0.00  0.00    -0.152 NA
ATOM      7  C   UNL     1       0.153   0.204  23.872  0.00  0.00    +0.185 A 
ATOM      8  N   UNL     1      -0.380   0.579  24.377  0.00  0.00    -0.227 NA
ATOM      9  C   UNL     1      -0.975   0.038  24.564  0.00  0.00    +0.063 A 
ATOM     10  C   UNL     1      -0.809  -0.669  24.174  0.00  0.00    +0.023 A 
ATOM     11  C   UNL     1      -1.314  -1.316  24.260  0.00  0.00    +0.034 C 
ATOM     12  C   UNL     1      -1.986  -1.255  24.734  0.00  0.00    +0.010 C 
ATOM     13  C   UNL     1      -2.491  -1.901  24.820  0.00  0.00    +0.059 C 
ATOM     14  C   UNL     1      -1.927  -2.226  24.314  0.00  0.00    +0.005 C 
ATOM     17  C   UNL     1      -3.163  -1.840  25.294  0.00  0.00    +0.154 C 
ATOM     18  O   UNL     1      -3.669  -2.487  25.380  0.00  0.00    -0.223 OA
ATOM     19  C   UNL     1      -3.330  -1.132  25.684  0.00  0.00    +0.033 C 
ATOM     20  C   UNL     1      -2.824  -0.485  25.599  0.00  0.00    +0.003 C 
ATOM     21  C   UNL     1      -2.153  -0.547  25.124  0.00  0.00    +0.006 C 
ATOM     22  C   UNL     1      -2.319   0.161  25.513  0.00  0.00    +0.000 C 
ATOM     23  C   UNL     1      -1.648   0.100  25.039  0.00  0.00    +0.050 C 
ATOM     35  S   UNL     1      -0.111  -0.567  23.746  0.00  0.00    -0.054 S 
ENDROOT
BRANCH  13  15
ATOM     15  C   UNL     1      -2.801  -2.661  24.729  0.00  0.00    +0.184 C 
ATOM     16  O   UNL     1      -2.501  -3.162  24.148  0.00  0.00    -0.220 OA
ENDBRANCH  13  15
BRANCH   4   3
ATOM      3  C   UNL     1       1.997   0.437  22.726  0.00  0.00    +0.229 C 
BRANCH   3   2
ATOM      1  C   UNL     1       3.399   0.370  22.464  0.00  0.00    +0.175 C 
ATOM      2  O   UNL     1       2.697   0.002  22.693  0.00  0.00    -0.342 OA
ENDBRANCH   3   2
ENDBRANCH   4   3
BRANCH  23  24
ATOM     24  C   UNL     1      -1.814   0.807  25.428  0.00  0.00    +0.093 C 
BRANCH  24  25
ATOM     25  C   UNL     1      -2.124   1.446  25.009  0.00  0.00    +0.242 C 
ATOM     26  O   UNL     1      -2.671   1.316  24.405  0.00  0.00    -0.273 OA
ATOM     27  N   UNL     1      -1.887   2.215  25.193  0.00  0.00    -0.200 NA
BRANCH  27  28
ATOM     28  C   UNL     1      -2.197   2.853  24.773  0.00  0.00    +0.143 C 
BRANCH  28  29
ATOM     29  C   UNL     1      -1.937   3.619  24.936  0.00  0.00    +0.019 A 
ATOM     30  C   UNL     1      -1.184   3.859  24.697  0.00  0.00    +0.001 A 
ATOM     31  C   UNL     1      -0.924   4.625  24.860  0.00  0.00    +0.020 A 
ATOM     32  C   UNL     1      -1.416   5.151  25.262  0.00  0.00    +0.099 A 
ATOM     33  N   UNL     1      -2.168   4.911  25.501  0.00  0.00    -0.243 NA
ATOM     34  C   UNL     1      -2.428   4.145  25.339  0.00  0.00    +0.096 A 
ENDBRANCH  28  29
ENDBRANCH  27  28
ENDBRANCH  24  25
ENDBRANCH  23  24
TORSDOF 7
ENDMDL
MODEL 3
REMARK VINA RESULT:     -11.6      2.083      4.638
REMARK  Name = 
REMARK  7 active torsions:
REMARK  status: ('A' for Active; 'I' for Inactive)
REMARK    1  A    between atoms: O_2  and  C_3
REMARK    2  A    between atoms: C_3  and  C_4
REMARK    3  A    between atoms: C_13  and  C_15
REMARK    4  A    between atoms: C_23  and  C_24
REMARK    5  A    between atoms: C_24  and  C_25
REMARK    6  A    between atoms: N_27  and  C_28
REMARK    7  A    between atoms: C_28  and  C_29
REMARK                            x       y       z     vdW  Elec       q    Type
REMARK                         _______ _______ _______ _____ _____    ______ ____
ROOT
ATOM      4  C   UNL     1      -0.468   1.582  25.253  0.00  0.00    +0.277 C 
ATOM      5  O   UNL     1      -0.134   0.829  25.297  0.00  0.00    -0.270 OA
ATOM      6  N   UNL     1      -1.263   1.668  25.052  0.00  0.00    -0.152 NA
ATOM      7  C   UNL     1      -1.724   1.002  24.897  0.00  0.00    +0.185 A 
ATOM      8  N   UNL     1      -2.523   1.004  24.691  0.00  0.00    -0.227 NA
ATOM      9  C   UNL     1      -2.761   0.221  24.586  0.00  0.00    +0.063 A 
ATOM     10  C   UNL     1      -2.109  -0.264  24.728  0.00  0.00    +0.023 A 
ATOM     11  C   UNL     1      -2.183  -1.084  24.663  0.00  0.00    +0.034 C 
ATOM     12  C   UNL     1      -2.908  -1.418  24.458  0.00  0.00    +0.010 C 
ATOM     13  C   UNL     1      -2.981  -2.236  24.393  0.00  0.00    +0.059 C 
ATOM     14  C   UNL     1      -2.185  -2.180  24.602  0.00  0.00    +0.005 C 
ATOM     17  C   UNL     1      -3.707  -2.571  24.188  0.00  0.00    +0.154 C 
ATOM     18  O   UNL     1      -3.781  -3.390  24.123  0.00  0.00    -0.223 OA
ATOM     19  C   UNL     1      -4.359  -2.086  24.046  0.00  0.00    +0.033 C 
ATOM     20  C   UNL     1      -4.286  -1.266  24.110  0.00  0.00    +0.003 C 
ATOM     21  C   UNL     1      -3.560  -0.933  24.316  0.00  0.00    +0.006 C 
ATOM     22  C   UNL     1      -4.212  -0.448  24.174  0.00  0.00    +0.000 C 
ATOM     23  C   UNL     1      -3.487  -0.113  24.380  0.00  0.00    +0.050 C 
ATOM     35  S   UNL     1      -1.468   0.219  24.920  0.00  0.00    -0.054 S 
ENDROOT
BRANCH  13  15
ATOM     15  C   UNL     1      -2.779  -3.036  24.401  0.00  0.00    +0.184 C 
ATOM     16  O   UNL     1      -1.987  -3.262  24.368  0.00  0.00    -0.220 OA
ENDBRANCH  13  15
BRANCH   4   3
ATOM      3  C   UNL     1      -0.006   2.248  25.409  0.00  0.00    +0.229 C 
BRANCH   3   2
ATOM      1  C   UNL     1       0.516   2.962  26.530  0.00  0.00    +0.175 C 
ATOM      2  O   UNL     1       0.469   2.271  26.082  0.00  0.00    -0.342 OA
ENDBRANCH   3   2
ENDBRANCH   4   3
BRANCH  23  24
ATOM     24  C   UNL     1      -4.138   0.371  24.239  0.00  0.00    +0.093 C 
BRANCH  24  25
ATOM     25  C   UNL     1      -4.548   0.707  24.871  0.00  0.00    +0.242 C 
ATOM     26  O   UNL     1      -4.732   0.250  25.532  0.00  0.00    -0.273 OA
ATOM     27  N   UNL     1      -4.774   1.500  24.842  0.00  0.00    -0.200 NA
BRANCH  27  28
ATOM     28  C   UNL     1      -5.183   1.835  25.474  0.00  0.00    +0.143 C 
BRANCH  28  29
ATOM     29  C   UNL     1      -5.299   2.652  25.503  0.00  0.00    +0.019 A 
ATOM     30  C   UNL     1      -4.673   3.164  25.341  0.00  0.00    +0.001 A 
ATOM     31  C   UNL     1      -4.789   3.980  25.371  0.00  0.00    +0.020 A 
ATOM     32  C   UNL     1      -5.532   4.285  25.562  0.00  0.00    +0.099 A 
ATOM     33  N   UNL     1      -6.158   3.773  25.725  0.00  0.00    -0.243 NA
ATOM     34  C   UNL     1      -6.041   2.957  25.695  0.00  0.00    +0.096 A 
ENDBRANCH  28  29
ENDBRANCH  27  28
ENDBRANCH  24  25
ENDBRANCH  23  24
TORSDOF 7
ENDMDL
MODEL 4
REMARK VINA RESULT:     -11.5      2.080      5.607
REMARK  Name = 
REMARK  7 active torsions:
REMARK  status: ('A' for Active; 'I' for Inactive)
REMARK    1  A    between atoms: O_2  and  C_3
REMARK    2  A    between atoms: C_3  and  C_4
REMARK    3  A    between atoms: C_13  and  C_15
REMARK    4  A    between atoms: C_23  and  C_24
REMARK    5  A    between atoms: C_24  and  C_25
REMARK    6  A    between atoms: N_27  and  C_28
REMARK    7  A    between atoms: C_28  and  C_29
REMARK                            x       y       z     vdW  Elec       q    Type
REMARK                         _______ _______ _______ _____ _____    ______ ____
ROOT
ATOM      4  C   UNL     1      -4.909   2.351  24.856  0.00  0.00    +0.277 C 
ATOM      5  O   UNL     1      -5.423   1.804  24.513  0.00  0.00    -0.270 OA
ATOM      6  N   UNL     1      -4.161   2.111  25.107  0.00  0.00    -0.152 NA
ATOM      7  C   UNL     1      -3.926   1.325  25.013  0.00  0.00    +0.185 A 
ATOM      8  N   UNL     1      -3.198   1.008  25.236  0.00  0.00    -0.227 NA
ATOM      9  C   UNL     1      -3.200   0.206  25.041  0.00  0.00    +0.063 A 
ATOM     10  C   UNL     1      -3.929   0.029  24.698  0.00  0.00    +0.023 A 
ATOM     11  C   UNL     1      -4.090  -0.740  24.445  0.00  0.00    +0.034 C 
ATOM     12  C   UNL     1      -3.522  -1.331  24.536  0.00  0.00    +0.010 C 
ATOM     13  C   UNL     1      -3.683  -2.099  24.283  0.00  0.00    +0.059 C 
ATOM     14  C   UNL     1      -4.393  -1.730  24.081  0.00  0.00    +0.005 C 
ATOM     17  C   UNL     1      -3.116  -2.692  24.374  0.00  0.00    +0.154 C 
ATOM     18  O   UNL     1      -3.276  -3.461  24.121  0.00  0.00    -0.223 OA
ATOM     19  C   UNL     1      -2.387  -2.515  24.717  0.00  0.00    +0.033 C 
ATOM     20  C   UNL     1      -2.225  -1.745  24.970  0.00  0.00    +0.003 C 
ATOM     21  C   UNL     1      -2.793  -1.154  24.879  0.00  0.00    +0.006 C 
ATOM     22  C   UNL     1      -2.064  -0.977  25.222  0.00  0.00    +0.000 C 
ATOM     23  C   UNL     1      -2.632  -0.386  25.132  0.00  0.00    +0.050 C 
ATOM     35  S   UNL     1      -4.378   0.722  24.681  0.00  0.00    -0.054 S 
ENDROOT
BRANCH  13  15
ATOM     15  C   UNL     1      -4.091  -2.740  23.960  0.00  0.00    +0.184 C 
ATOM     16  O   UNL     1      -4.795  -2.618  23.550  0.00  0.00    -0.220 OA
ENDBRANCH  13  15
BRANCH   4   3
ATOM      3  C   UNL     1      -5.144   3.136  24.950  0.00  0.00    +0.229 C 
BRANCH   3   2
ATOM      1  C   UNL     1      -5.869   4.128  25.677  0.00  0.00    +0.175 C 
ATOM      2  O   UNL     1      -5.691   3.336  25.534  0.00  0.00    -0.342 OA
ENDBRANCH   3   2
ENDBRANCH   4   3
BRANCH  23  24
ATOM     24  C   UNL     1      -1.903  -0.209  25.475  0.00  0.00    +0.093 C 
BRANCH  24  25
ATOM     25  C   UNL     1      -1.326   0.186  25.037  0.00  0.00    +0.242 C 
ATOM     26  O   UNL     1      -1.088  -0.113  24.306  0.00  0.00    -0.273 OA
ATOM     27  N   UNL     1      -0.988   0.879  25.331  0.00  0.00    -0.200 NA
BRANCH  27  28
ATOM     28  C   UNL     1      -0.411   1.273  24.893  0.00  0.00    +0.143 C 
BRANCH  28  29
ATOM     29  C   UNL     1      -0.317   2.088  24.975  0.00  0.00    +0.019 A 
ATOM     30  C   UNL     1      -0.146   2.412  25.715  0.00  0.00    +0.001 A 
ATOM     31  C   UNL     1      -0.052   3.228  25.797  0.00  0.00    +0.020 A 
ATOM     32  C   UNL     1      -0.129   3.721  25.139  0.00  0.00    +0.099 A 
ATOM     33  N   UNL     1      -0.300   3.397  24.400  0.00  0.00    -0.243 NA
ATOM     34  C   UNL     1      -0.394   2.581  24.318  0.00  0.00    +0.096 A 
ENDBRANCH  28  29
ENDBRANCH  27  28
ENDBRANCH  24  25
ENDBRANCH  23  24
TORSDOF 7
ENDMDL
MODEL 5
REMARK VINA RESULT:     -11.1      1.670      4.012
REMARK  Name = 
REMARK  7 active torsions:
REMARK  status: ('A' for Active; 'I' for Inactive)
REMARK    1  A    between atoms: O_2  and  C_3
REMARK    2  A    between atoms: C_3  and  C_4
REMARK    3  A    between atoms: C_13  and  C_15
REMARK    4  A    between atoms: C_23  and  C_24
REMARK    5  A    between atoms: C_24  and  C_25
REMARK    6  A    between atoms: N_27  and  C_28
REMARK    7  A    between atoms: C_28  and  C_29
REMARK                            x       y       z     vdW  Elec       q    Type
REMARK                         _______ _______ _______ _____ _____    ______ ____
ROOT
ATOM      4  C   UNL     1      -4.088  -1.488  24.124  0.00  0.00    +0.277 C 
ATOM      5  O   UNL     1      -4.802  -1.311  24.499  0.00  0.00    -0.270 OA
ATOM      6  N   UNL     1      -3.547  -0.887  23.964  0.00  0.00    -0.152 NA
ATOM      7  C   UNL     1      -3.719  -0.109  24.179  0.00  0.00    +0.185 A 
ATOM      8  N   UNL     1      -3.233   0.546  24.055  0.00  0.00    -0.227 NA
ATOM      9  C   UNL     1      -3.620   1.211  24.354  0.00  0.00    +0.063 A 
ATOM     10  C   UNL     1      -4.345   0.965  24.663  0.00  0.00    +0.023 A 
ATOM     11  C   UNL     1      -4.856   1.517  25.003  0.00  0.00    +0.034 C 
ATOM     12  C   UNL     1      -4.643   2.313  25.034  0.00  0.00    +0.010 C 
ATOM     13  C   UNL     1      -5.153   2.864  25.374  0.00  0.00    +0.059 C 
ATOM     14  C   UNL     1      -5.598   2.176  25.473  0.00  0.00    +0.005 C 
ATOM     17  C   UNL     1      -4.940   3.660  25.406  0.00  0.00    +0.154 C 
ATOM     18  O   UNL     1      -5.451   4.212  25.746  0.00  0.00    -0.223 OA
ATOM     19  C   UNL     1      -4.216   3.905  25.097  0.00  0.00    +0.033 C 
ATOM     20  C   UNL     1      -3.704   3.354  24.757  0.00  0.00    +0.003 C 
ATOM     21  C   UNL     1      -3.918   2.558  24.726  0.00  0.00    +0.006 C 
ATOM     22  C   UNL     1      -3.193   2.803  24.417  0.00  0.00    +0.000 C 
ATOM     23  C   UNL     1      -3.407   2.007  24.386  0.00  0.00    +0.050 C 
ATOM     35  S   UNL     1      -4.406   0.149  24.554  0.00  0.00    -0.054 S 
ENDROOT
BRANCH  13  15
ATOM     15  C   UNL     1      -5.819   3.176  25.749  0.00  0.00    +0.184 C 
ATOM     16  O   UNL     1      -6.251   2.714  26.278  0.00  0.00    -0.220 OA
ENDBRANCH  13  15
BRANCH   4   3
ATOM      3  C   UNL     1      -3.917  -2.266  23.910  0.00  0.00    +0.229 C 
BRANCH   3   2
ATOM      1  C   UNL     1      -3.359  -3.527  24.284  0.00  0.00    +0.175 C 
ATOM      2  O   UNL     1      -3.739  -2.824  24.490  0.00  0.00    -0.342 OA
ENDBRANCH   3   2
ENDBRANCH   4   3
BRANCH  23  24
ATOM     24  C   UNL     1      -2.683   2.252  24.077  0.00  0.00    +0.093 C 
BRANCH  24  25
ATOM     25  C   UNL     1      -1.987   2.115  24.498  0.00  0.00    +0.242 C 
ATOM     26  O   UNL     1      -1.963   2.254  25.311  0.00  0.00    -0.273 OA
ATOM     27  N   UNL     1      -1.315   1.839  24.107  0.00  0.00    -0.200 NA
BRANCH  27  28
ATOM     28  C   UNL     1      -0.620   1.702  24.528  0.00  0.00    +0.143 C 
BRANCH  28  29
ATOM     29  C   UNL     1       0.033   1.369  24.149  0.00  0.00    +0.019 A 
ATOM     30  C   UNL     1      -0.017   0.608  23.832  0.00  0.00    +0.001 A 
ATOM     31  C   UNL     1       0.636   0.276  23.453  0.00  0.00    +0.020 A 
ATOM     32  C   UNL     1       1.340   0.703  23.391  0.00  0.00    +0.099 A 
ATOM     33  N   UNL     1       1.389   1.463  23.708  0.00  0.00    -0.243 NA
ATOM     34  C   UNL     1       0.736   1.796  24.087  0.00  0.00    +0.096 A 
ENDBRANCH  28  29
ENDBRANCH  27  28
ENDBRANCH  24  25
ENDBRANCH  23  24
TORSDOF 7
ENDMDL
MODEL 6
REMARK VINA RESULT:     -10.8      1.835      3.808
REMARK  Name = 
REMARK  7 active torsions:
REMARK  status: ('A' for Active; 'I' for Inactive)
REMARK    1  A    between atoms: O_2  and  C_3
REMARK    2  A    between atoms: C_3  and  C_4
REMARK    3  A    between atoms: C_13  and  C_15
REMARK    4  A    between atoms: C_23  and  C_24
REMARK    5  A    between atoms: C_24  and  C_25
REMARK    6  A    between atoms: N_27  and  C_28
REMARK    7  A    between atoms: C_28  and  C_29
REMARK                            x       y       z     vdW  Elec       q    Type
REMARK                         _______ _______ _______ _____ _____    ______ ____
ROOT
ATOM      4  C   UNL     1      -5.494   2.477  25.754  0.00  0.00    +0.277 C 
ATOM      5  O   UNL     1      -5.319   3.261  25.941  0.00  0.00    -0.270 OA
ATOM      6  N   UNL     1      -4.918   1.999  25.408  0.00  0.00    -0.152 NA
ATOM      7  C   UNL     1      -4.169   2.304  25.249  0.00  0.00    +0.185 A 
ATOM      8  N   UNL     1      -3.541   1.892  24.907  0.00  0.00    -0.227 NA
ATOM      9  C   UNL     1      -2.899   2.408  24.851  0.00  0.00    +0.063 A 
ATOM     10  C   UNL     1      -3.131   3.137  25.159  0.00  0.00    +0.023 A 
ATOM     11  C   UNL     1      -2.596   3.766  25.175  0.00  0.00    +0.034 C 
ATOM     12  C   UNL     1      -1.832   3.666  24.883  0.00  0.00    +0.010 C 
ATOM     13  C   UNL     1      -1.299   4.294  24.899  0.00  0.00    +0.059 C 
ATOM     14  C   UNL     1      -1.958   4.657  25.237  0.00  0.00    +0.005 C 
ATOM     17  C   UNL     1      -0.533   4.194  24.608  0.00  0.00    +0.154 C 
ATOM     18  O   UNL     1       0.001   4.823  24.624  0.00  0.00    -0.223 OA
ATOM     19  C   UNL     1      -0.302   3.465  24.300  0.00  0.00    +0.033 C 
ATOM     20  C   UNL     1      -0.836   2.835  24.283  0.00  0.00    +0.003 C 
ATOM     21  C   UNL     1      -1.600   2.936  24.575  0.00  0.00    +0.006 C 
ATOM     22  C   UNL     1      -1.369   2.207  24.267  0.00  0.00    +0.000 C 
ATOM     23  C   UNL     1      -2.133   2.307  24.559  0.00  0.00    +0.050 C 
ATOM     35  S   UNL     1      -3.916   3.073  25.405  0.00  0.00    -0.054 S 
ENDROOT
BRANCH  13  15
ATOM     15  C   UNL     1      -0.993   5.049  25.033  0.00  0.00    +0.184 C 
ATOM     16  O   UNL     1      -1.502   5.677  25.198  0.00  0.00    -0.220 OA
ENDBRANCH  13  15
BRANCH   4   3
ATOM      3  C   UNL     1      -6.244   2.172  25.913  0.00  0.00    +0.229 C 
BRANCH   3   2
ATOM      1  C   UNL     1      -6.923   1.519  26.986  0.00  0.00    +0.175 C 
ATOM      2  O   UNL     1      -6.538   2.182  26.683  0.00  0.00    -0.342 OA
ENDBRANCH   3   2
ENDBRANCH   4   3
BRANCH  23  24
ATOM     24  C   UNL     1      -1.902   1.578  24.251  0.00  0.00    +0.093 C 
BRANCH  24  25
ATOM     25  C   UNL     1      -1.740   0.949  24.758  0.00  0.00    +0.242 C 
ATOM     26  O   UNL     1      -1.312   1.079  25.452  0.00  0.00    -0.273 OA
ATOM     27  N   UNL     1      -2.004   0.190  24.573  0.00  0.00    -0.200 NA
BRANCH  27  28
ATOM     28  C   UNL     1      -1.841  -0.439  25.080  0.00  0.00    +0.143 C 
BRANCH  28  29
ATOM     29  C   UNL     1      -2.141  -1.190  24.916  0.00  0.00    +0.019 A 
ATOM     30  C   UNL     1      -2.915  -1.381  25.131  0.00  0.00    +0.001 A 
ATOM     31  C   UNL     1      -3.215  -2.132  24.967  0.00  0.00    +0.020 A 
ATOM     32  C   UNL     1      -2.742  -2.692  24.588  0.00  0.00    +0.099 A 
ATOM     33  N   UNL     1      -1.968  -2.501  24.374  0.00  0.00    -0.243 NA
ATOM     34  C   UNL     1      -1.668  -1.750  24.538  0.00  0.00    +0.096 A 
ENDBRANCH  28  29
ENDBRANCH  27  28
ENDBRANCH  24  25
ENDBRANCH  23  24
TORSDOF 7
ENDMDL
MODEL 7
REMARK VINA RESULT:     -10.5      1.755      5.233
REMARK  Name = 
REMARK  7 active torsions:
REMARK  status: ('A' for Active; 'I' for Inactive)
REMARK    1  A    between atoms: O_2  and  C_3
REMARK    2  A    between atoms: C_3  and  C_4
REMARK    3  A    between atoms: C_13  and  C_15
REMARK    4  A    between atoms: C_23  and  C_24
REMARK    5  A    between atoms: C_24  and  C_25
REMARK    6  A    between atoms: N_27  and  C_28
REMARK    7  A    between atoms: C_28  and  C_29
REMARK                            x       y       z     vdW  Elec       q    Type
REMARK                         _______ _______ _______ _____ _____    ______ ____
ROOT
ATOM      4  C   UNL     1      -1.522   3.060  25.364  0.00  0.00    +0.277 C 
ATOM      5  O   UNL     1      -2.305   2.833  25.489  0.00  0.00    -0.270 OA
ATOM      6  N   UNL     1      -0.959   2.495  25.153  0.00  0.00    -0.152 NA
ATOM      7  C   UNL     1      -1.178   1.705  25.068  0.00  0.00    +0.185 A 
ATOM      8  N   UNL     1      -0.677   1.083  24.860  0.00  0.00    -0.227 NA
ATOM      9  C   UNL     1      -1.126   0.391  24.839  0.00  0.00    +0.063 A 
ATOM     10  C   UNL     1      -1.904   0.586  25.033  0.00  0.00    +0.023 A 
ATOM     11  C   UNL     1      -2.483  -0.002  25.056  0.00  0.00    +0.034 C 
ATOM     12  C   UNL     1      -2.285  -0.784  24.885  0.00  0.00    +0.010 C 
ATOM     13  C   UNL     1      -2.863  -1.370  24.907  0.00  0.00    +0.059 C 
ATOM     14  C   UNL     1      -3.318  -0.713  25.111  0.00  0.00    +0.005 C 
ATOM     17  C   UNL     1      -2.665  -2.153  24.736  0.00  0.00    +0.154 C 
ATOM     18  O   UNL     1      -3.243  -2.741  24.759  0.00  0.00    -0.223 OA
ATOM     19  C   UNL     1      -1.887  -2.348  24.542  0.00  0.00    +0.033 C 
ATOM     20  C   UNL     1      -1.307  -1.760  24.519  0.00  0.00    +0.003 C 
ATOM     21  C   UNL     1      -1.507  -0.978  24.691  0.00  0.00    +0.006 C 
ATOM     22  C   UNL     1      -0.729  -1.173  24.497  0.00  0.00    +0.000 C 
ATOM     23  C   UNL     1      -0.927  -0.392  24.668  0.00  0.00    +0.050 C 
ATOM     35  S   UNL     1      -1.936   1.398  25.174  0.00  0.00    -0.054 S 
ENDROOT
BRANCH  13  15
ATOM     15  C   UNL     1      -3.600  -1.730  25.001  0.00  0.00    +0.184 C 
ATOM     16  O   UNL     1      -4.288  -1.276  24.972  0.00  0.00    -0.220 OA
ENDBRANCH  13  15
BRANCH   4   3
ATOM      3  C   UNL     1      -1.302   3.850  25.450  0.00  0.00    +0.229 C 
BRANCH   3   2
ATOM      1  C   UNL     1      -1.524   5.229  25.149  0.00  0.00    +0.175 C 
ATOM      2  O   UNL     1      -1.788   4.447  25.153  0.00  0.00    -0.342 OA
ENDBRANCH   3   2
ENDBRANCH   4   3
BRANCH  23  24
ATOM     24  C   UNL     1      -0.151  -0.587  24.474  0.00  0.00    +0.093 C 
BRANCH  24  25
ATOM     25  C   UNL     1       0.146  -0.406  23.725  0.00  0.00    +0.242 C 
ATOM     26  O   UNL     1      -0.346  -0.456  23.065  0.00  0.00    -0.273 OA
ATOM     27  N   UNL     1       0.934  -0.177  23.637  0.00  0.00    -0.200 NA
BRANCH  27  28
ATOM     28  C   UNL     1       1.229   0.003  22.889  0.00  0.00    +0.143 C 
BRANCH  28  29
ATOM     29  C   UNL     1       2.010   0.254  22.804  0.00  0.00    +0.019 A 
ATOM     30  C   UNL     1       2.527  -0.163  22.314  0.00  0.00    +0.001 A 
ATOM     31  C   UNL     1       3.308   0.088  22.228  0.00  0.00    +0.020 A 
ATOM     32  C   UNL     1       3.574   0.756  22.633  0.00  0.00    +0.099 A 
ATOM     33  N   UNL     1       3.057   1.173  23.123  0.00  0.00    -0.243 NA
ATOM     34  C   UNL     1       2.276   0.922  23.208  0.00  0.00    +0.096 A 
ENDBRANCH  28  29
ENDBRANCH  27  28
ENDBRANCH  24  25
ENDBRANCH  23  24
TORSDOF 7
ENDMDL
MODEL 8
REMARK VINA RESULT:      -8.9     15.003     18.129
REMARK  Name = 
REMARK  7 active torsions:
REMARK  status: ('A' for Active; 'I' for Inactive)
REMARK    1  A    between atoms: O_2  and  C_3
REMARK    2  A    between atoms: C_3  and  C_4
REMARK    3  A    between atoms: C_13  and  C_15
REMARK    4  A    between atoms: C_23  and  C_24
REMARK    5  A    between atoms: C_24  and  C_25
REMARK    6  A    between atoms: N_27  and  C_28
REMARK    7  A    between atoms: C_28  and  C_29
REMARK                            x       y       z     vdW  Elec       q    Type
REMARK                         _______ _______ _______ _____ _____    ______ ____
ROOT
ATOM      4  C   UNL     1      15.845   6.588  20.031  0.00  0.00    +0.277 C 
ATOM      5  O   UNL     1      16.142   6.501  19.267  0.00  0.00    -0.270 OA
ATOM      6  N   UNL     1      15.141   7.000  20.154  0.00  0.00    -0.152 NA
ATOM      7  C   UNL     1      14.735   7.325  19.514  0.00  0.00    +0.185 A 
ATOM      8  N   UNL     1      14.029   7.749  19.553  0.00  0.00    -0.227 NA
ATOM      9  C   UNL     1      13.821   7.968  18.785  0.00  0.00    +0.063 A 
ATOM     10  C   UNL     1      14.399   7.680  18.272  0.00  0.00    +0.023 A 
ATOM     11  C   UNL     1      14.336   7.817  17.461  0.00  0.00    +0.034 C 
ATOM     12  C   UNL     1      13.696   8.242  17.163  0.00  0.00    +0.010 C 
ATOM     13  C   UNL     1      13.633   8.379  16.352  0.00  0.00    +0.059 C 
ATOM     14  C   UNL     1      14.337   7.950  16.371  0.00  0.00    +0.005 C 
ATOM     17  C   UNL     1      12.993   8.805  16.053  0.00  0.00    +0.154 C 
ATOM     18  O   UNL     1      12.930   8.942  15.242  0.00  0.00    -0.223 OA
ATOM     19  C   UNL     1      12.414   9.093  16.566  0.00  0.00    +0.033 C 
ATOM     20  C   UNL     1      12.477   8.956  17.378  0.00  0.00    +0.003 C 
ATOM     21  C   UNL     1      13.118   8.531  17.676  0.00  0.00    +0.006 C 
ATOM     22  C   UNL     1      12.539   8.819  18.189  0.00  0.00    +0.000 C 
ATOM     23  C   UNL     1      13.180   8.394  18.487  0.00  0.00    +0.050 C 
ATOM     35  S   UNL     1      14.965   7.282  18.723  0.00  0.00    -0.054 S 
ENDROOT
BRANCH  13  15
ATOM     15  C   UNL     1      13.815   8.367  15.547  0.00  0.00    +0.184 C 
ATOM     16  O   UNL     1      14.593   8.477  15.298  0.00  0.00    -0.220 OA
ENDBRANCH  13  15
BRANCH   4   3
ATOM      3  C   UNL     1      16.251   6.263  20.672  0.00  0.00    +0.229 C 
BRANCH   3   2
ATOM      1  C   UNL     1      17.361   6.332  21.568  0.00  0.00    +0.175 C 
ATOM      2  O   UNL     1      17.022   6.505  20.837  0.00  0.00    -0.342 OA
ENDBRANCH   3   2
ENDBRANCH   4   3
BRANCH  23  24
ATOM     24  C   UNL     1      12.602   8.682  18.999  0.00  0.00    +0.093 C 
BRANCH  24  25
ATOM     25  C   UNL     1      12.047   8.168  19.327  0.00  0.00    +0.242 C 
ATOM     26  O   UNL     1      11.838   7.478  18.925  0.00  0.00    -0.273 OA
ATOM     27  N   UNL     1      11.702   8.342  20.056  0.00  0.00    -0.200 NA
BRANCH  27  28
ATOM     28  C   UNL     1      11.148   7.827  20.383  0.00  0.00    +0.143 C 
BRANCH  28  29
ATOM     29  C   UNL     1      10.847   7.970  21.138  0.00  0.00    +0.019 A 
ATOM     30  C   UNL     1      10.556   7.345  21.592  0.00  0.00    +0.001 A 
ATOM     31  C   UNL     1      10.256   7.488  22.347  0.00  0.00    +0.020 A 
ATOM     32  C   UNL     1      10.246   8.257  22.649  0.00  0.00    +0.099 A 
ATOM     33  N   UNL     1      10.537   8.881  22.195  0.00  0.00    -0.243 NA
ATOM     34  C   UNL     1      10.837   8.738  21.440  0.00  0.00    +0.096 A 
ENDBRANCH  28  29
ENDBRANCH  27  28
ENDBRANCH  24  25
ENDBRANCH  23  24
TORSDOF 7
ENDMDL
