MODEL 1
REMARK VINA RESULT:     -14.4      0.000      0.000
REMARK  Name = 
REMARK  4 active torsions:
REMARK  status: ('A' for Active; 'I' for Inactive)
REMARK    1  A    between atoms: S_2  and  N_5
REMARK    2  A    between atoms: N_5  and  C_6
REMARK    3  A    between atoms: C_18  and  C_21
REMARK    4  A    between atoms: C_23  and  C_27
REMARK                            x       y       z     vdW  Elec       q    Type
REMARK                         _______ _______ _______ _____ _____    ______ ____
ROOT
ATOM      6  C   UNL     1      -2.098   3.901  25.386  0.00  0.00    +0.101 C 
ATOM      7  C   UNL     1      -1.570   3.295  25.197  0.00  0.00    +0.041 C 
ATOM      8  C   UNL     1      -1.850   2.535  25.044  0.00  0.00    +0.096 C 
ATOM      9  N   UNL     1      -2.661   2.380  25.079  0.00  0.00    -0.269 N 
ATOM     10  C   UNL     1      -3.188   2.985  25.267  0.00  0.00    +0.155 C 
ATOM     11  C   UNL     1      -2.907   3.745  25.421  0.00  0.00    +0.049 C 
ATOM     12  C   UNL     1      -4.011   2.949  25.332  0.00  0.00    +0.264 C 
ATOM     13  O   UNL     1      -4.385   3.656  25.531  0.00  0.00    -0.271 OA
ATOM     14  N   UNL     1      -4.507   2.299  25.223  0.00  0.00    -0.178 NA
ATOM     15  C   UNL     1      -4.304   1.525  25.023  0.00  0.00    +0.078 A 
ATOM     16  C   UNL     1      -3.556   1.209  24.883  0.00  0.00    +0.069 A 
ATOM     17  C   UNL     1      -3.473   0.411  24.688  0.00  0.00    +0.006 A 
ATOM     18  C   UNL     1      -4.141  -0.070  24.634  0.00  0.00    +0.000 A 
ATOM     19  C   UNL     1      -4.890   0.246  24.775  0.00  0.00    +0.001 A 
ATOM     20  C   UNL     1      -4.972   1.043  24.969  0.00  0.00    +0.017 A 
ATOM     31  C   UNL     1      -2.824   1.590  24.908  0.00  0.00    +0.251 C 
ATOM     32  O   UNL     1      -2.169   1.118  24.739  0.00  0.00    -0.270 OA
ENDROOT
BRANCH  18  21
ATOM     21  C   UNL     1      -4.060  -0.868  24.440  0.00  0.00    -0.000 A 
ATOM     22  C   UNL     1      -3.611  -1.366  24.920  0.00  0.00    +0.004 A 
ATOM     23  C   UNL     1      -3.529  -2.164  24.725  0.00  0.00    +0.071 A 
ATOM     24  C   UNL     1      -3.898  -2.463  24.050  0.00  0.00    +0.004 A 
ATOM     25  C   UNL     1      -4.348  -1.965  23.570  0.00  0.00    -0.000 A 
ATOM     26  C   UNL     1      -4.429  -1.168  23.764  0.00  0.00    -0.000 A 
BRANCH  23  27
ATOM     27  C   UNL     1      -3.080  -2.662  25.205  0.00  0.00    +0.419 C 
ATOM     28  F   UNL     1      -2.631  -3.159  25.685  0.00  0.00    -0.166 F 
ATOM     29  F   UNL     1      -3.726  -2.757  25.710  0.00  0.00    -0.166 F 
ATOM     30  F   UNL     1      -2.435  -2.566  24.700  0.00  0.00    -0.166 F 
ENDBRANCH  23  27
ENDBRANCH  18  21
BRANCH   6   5
ATOM      5  N   UNL     1      -1.816   4.660  25.540  0.00  0.00    -0.083 NA
BRANCH   5   2
ATOM      1  C   UNL     1      -0.678   5.334  24.553  0.00  0.00    +0.197 C 
ATOM      2  S   UNL     1      -1.247   4.997  25.046  0.00  0.00    +0.059 S 
ATOM      3  O   UNL     1      -0.658   4.567  25.431  0.00  0.00    -0.156 OA
ATOM      4  O   UNL     1      -1.836   5.428  24.661  0.00  0.00    -0.156 OA
ENDBRANCH   5   2
ENDBRANCH   6   5
TORSDOF 4
ENDMDL
MODEL 2
REMARK VINA RESULT:     -13.1      1.572      2.442
REMARK  Name = 
REMARK  4 active torsions:
REMARK  status: ('A' for Active; 'I' for Inactive)
REMARK    1  A    between atoms: S_2  and  N_5
REMARK    2  A    between atoms: N_5  and  C_6
REMARK    3  A    between atoms: C_18  and  C_21
REMARK    4  A    between atoms: C_23  and  C_27
REMARK                            x       y       z     vdW  Elec       q    Type
REMARK                         _______ _______ _______ _____ _____    ______ ____
ROOT
ATOM      6  C   UNL     1      -1.012   3.557  25.319  0.00  0.00    +0.101 C 
ATOM      7  C   UNL     1      -1.806   3.391  25.468  0.00  0.00    +0.041 C 
ATOM      8  C   UNL     1      -2.082   2.615  25.419  0.00  0.00    +0.096 C 
ATOM      9  N   UNL     1      -1.563   2.004  25.221  0.00  0.00    -0.269 N 
ATOM     10  C   UNL     1      -0.769   2.171  25.071  0.00  0.00    +0.155 C 
ATOM     11  C   UNL     1      -0.494   2.946  25.120  0.00  0.00    +0.049 C 
ATOM     12  C   UNL     1      -0.164   1.648  24.866  0.00  0.00    +0.264 C 
ATOM     13  O   UNL     1       0.579   1.988  24.752  0.00  0.00    -0.271 OA
ATOM     14  N   UNL     1      -0.204   0.831  24.760  0.00  0.00    -0.178 NA
ATOM     15  C   UNL     1      -0.859   0.334  24.833  0.00  0.00    +0.078 A 
ATOM     16  C   UNL     1      -1.635   0.532  25.030  0.00  0.00    +0.069 A 
ATOM     17  C   UNL     1      -2.213  -0.056  25.073  0.00  0.00    +0.006 A 
ATOM     18  C   UNL     1      -2.013  -0.842  24.919  0.00  0.00    +0.000 A 
ATOM     19  C   UNL     1      -1.237  -1.039  24.722  0.00  0.00    +0.001 A 
ATOM     20  C   UNL     1      -0.660  -0.452  24.679  0.00  0.00    +0.017 A 
ATOM     31  C   UNL     1      -1.949   1.276  25.202  0.00  0.00    +0.251 C 
ATOM     32  O   UNL     1      -2.754   1.292  25.380  0.00  0.00    -0.270 OA
ENDROOT
BRANCH  18  21
ATOM     21  C   UNL     1      -2.590  -1.430  24.962  0.00  0.00    -0.000 A 
ATOM     22  C   UNL     1      -3.106  -1.549  24.330  0.00  0.00    +0.004 A 
ATOM     23  C   UNL     1      -3.683  -2.137  24.373  0.00  0.00    +0.071 A 
ATOM     24  C   UNL     1      -3.744  -2.607  25.049  0.00  0.00    +0.004 A 
ATOM     25  C   UNL     1      -3.228  -2.488  25.681  0.00  0.00    -0.000 A 
ATOM     26  C   UNL     1      -2.651  -1.900  25.639  0.00  0.00    -0.000 A 
BRANCH  23  27
ATOM     27  C   UNL     1      -4.199  -2.256  23.740  0.00  0.00    +0.419 C 
ATOM     28  F   UNL     1      -4.715  -2.375  23.108  0.00  0.00    -0.166 F 
ATOM     29  F   UNL     1      -4.587  -1.551  23.924  0.00  0.00    -0.166 F 
ATOM     30  F   UNL     1      -3.811  -2.960  23.557  0.00  0.00    -0.166 F 
ENDBRANCH  23  27
ENDBRANCH  18  21
BRANCH   6   5
ATOM      5  N   UNL     1      -0.737   4.333  25.368  0.00  0.00    -0.083 NA
BRANCH   5   2
ATOM      1  C   UNL     1      -1.574   5.554  24.638  0.00  0.00    +0.197 C 
ATOM      2  S   UNL     1      -1.156   4.944  25.003  0.00  0.00    +0.059 S 
ATOM      3  O   UNL     1      -1.670   4.975  25.647  0.00  0.00    -0.156 OA
ATOM      4  O   UNL     1      -0.640   4.911  24.359  0.00  0.00    -0.156 OA
ENDBRANCH   5   2
ENDBRANCH   6   5
TORSDOF 4
ENDMDL
MODEL 3
REMARK VINA RESULT:     -12.6      3.368      5.913
REMARK  Name = 
REMARK  4 active torsions:
REMARK  status: ('A' for Active; 'I' for Inactive)
REMARK    1  A    between atoms: S_2  and  N_5
REMARK    2  A    between atoms: N_5  and  C_6
REMARK    3  A    between atoms: C_18  and  C_21
REMARK    4  A    between atoms: C_23  and  C_27
REMARK                            x       y       z     vdW  Elec       q    Type
REMARK                         _______ _______ _______ _____ _____    ______ ____
ROOT
ATOM      6  C   UNL     1      -2.330  -1.708  24.865  0.00  0.00    +0.101 C 
ATOM      7  C   UNL     1      -2.943  -1.184  25.036  0.00  0.00    +0.041 C 
ATOM      8  C   UNL     1      -2.796  -0.373  25.074  0.00  0.00    +0.096 C 
ATOM      9  N   UNL     1      -2.033  -0.087  24.940  0.00  0.00    -0.269 N 
ATOM     10  C   UNL     1      -1.420  -0.611  24.768  0.00  0.00    +0.155 C 
ATOM     11  C   UNL     1      -1.568  -1.421  24.731  0.00  0.00    +0.049 C 
ATOM     12  C   UNL     1      -0.626  -0.442  24.617  0.00  0.00    +0.264 C 
ATOM     13  O   UNL     1      -0.145  -1.094  24.463  0.00  0.00    -0.271 OA
ATOM     14  N   UNL     1      -0.250   0.292  24.601  0.00  0.00    -0.178 NA
ATOM     15  C   UNL     1      -0.575   1.039  24.732  0.00  0.00    +0.078 A 
ATOM     16  C   UNL     1      -1.356   1.237  24.911  0.00  0.00    +0.069 A 
ATOM     17  C   UNL     1      -1.567   2.026  25.021  0.00  0.00    +0.006 A 
ATOM     18  C   UNL     1      -0.997   2.619  24.953  0.00  0.00    +0.000 A 
ATOM     19  C   UNL     1      -0.216   2.421  24.774  0.00  0.00    +0.001 A 
ATOM     20  C   UNL     1      -0.005   1.632  24.663  0.00  0.00    +0.017 A 
ATOM     31  C   UNL     1      -2.005   0.735  25.003  0.00  0.00    +0.251 C 
ATOM     32  O   UNL     1      -2.720   1.105  25.183  0.00  0.00    -0.270 OA
ENDROOT
BRANCH  18  21
ATOM     21  C   UNL     1      -1.207   3.409  25.063  0.00  0.00    -0.000 A 
ATOM     22  C   UNL     1      -1.925   3.598  25.423  0.00  0.00    +0.004 A 
ATOM     23  C   UNL     1      -2.135   4.388  25.533  0.00  0.00    +0.071 A 
ATOM     24  C   UNL     1      -1.627   4.990  25.283  0.00  0.00    +0.004 A 
ATOM     25  C   UNL     1      -0.910   4.800  24.924  0.00  0.00    -0.000 A 
ATOM     26  C   UNL     1      -0.699   4.010  24.813  0.00  0.00    -0.000 A 
BRANCH  23  27
ATOM     27  C   UNL     1      -2.853   4.578  25.893  0.00  0.00    +0.419 C 
ATOM     28  F   UNL     1      -3.570   4.767  26.253  0.00  0.00    -0.166 F 
ATOM     29  F   UNL     1      -3.220   4.591  25.154  0.00  0.00    -0.166 F 
ATOM     30  F   UNL     1      -2.486   4.564  26.632  0.00  0.00    -0.166 F 
ENDBRANCH  23  27
ENDBRANCH  18  21
BRANCH   6   5
ATOM      5  N   UNL     1      -2.479  -2.518  24.827  0.00  0.00    -0.083 NA
BRANCH   5   2
ATOM      1  C   UNL     1      -3.931  -3.067  24.266  0.00  0.00    +0.197 C 
ATOM      2  S   UNL     1      -3.205  -2.793  24.547  0.00  0.00    +0.059 S 
ATOM      3  O   UNL     1      -3.503  -2.790  25.316  0.00  0.00    -0.156 OA
ATOM      4  O   UNL     1      -2.906  -2.796  23.777  0.00  0.00    -0.156 OA
ENDBRANCH   5   2
ENDBRANCH   6   5
TORSDOF 4
ENDMDL
MODEL 4
REMARK VINA RESULT:     -12.3      3.269      4.518
REMARK  Name = 
REMARK  4 active torsions:
REMARK  status: ('A' for Active; 'I' for Inactive)
REMARK    1  A    between atoms: S_2  and  N_5
REMARK    2  A    between atoms: N_5  and  C_6
REMARK    3  A    between atoms: C_18  and  C_21
REMARK    4  A    between atoms: C_23  and  C_27
REMARK                            x       y       z     vdW  Elec       q    Type
REMARK                         _______ _______ _______ _____ _____    ______ ____
ROOT
ATOM      6  C   UNL     1       0.218  -0.126  23.785  0.00  0.00    +0.101 C 
ATOM      7  C   UNL     1      -0.032   0.633  23.582  0.00  0.00    +0.041 C 
ATOM      8  C   UNL     1      -0.797   0.880  23.766  0.00  0.00    +0.096 C 
ATOM      9  N   UNL     1      -1.313   0.365  24.155  0.00  0.00    -0.269 N 
ATOM     10  C   UNL     1      -1.063  -0.394  24.358  0.00  0.00    +0.155 C 
ATOM     11  C   UNL     1      -0.297  -0.639  24.173  0.00  0.00    +0.049 C 
ATOM     12  C   UNL     1      -1.486  -0.988  24.744  0.00  0.00    +0.264 C 
ATOM     13  O   UNL     1      -1.078  -1.694  24.869  0.00  0.00    -0.271 OA
ATOM     14  N   UNL     1      -2.262  -0.970  25.022  0.00  0.00    -0.178 NA
ATOM     15  C   UNL     1      -2.808  -0.353  24.982  0.00  0.00    +0.078 A 
ATOM     16  C   UNL     1      -2.713   0.398  24.655  0.00  0.00    +0.069 A 
ATOM     17  C   UNL     1      -3.335   0.940  24.673  0.00  0.00    +0.006 A 
ATOM     18  C   UNL     1      -4.055   0.728  25.019  0.00  0.00    +0.000 A 
ATOM     19  C   UNL     1      -4.150  -0.023  25.346  0.00  0.00    +0.001 A 
ATOM     20  C   UNL     1      -3.528  -0.563  25.327  0.00  0.00    +0.017 A 
ATOM     31  C   UNL     1      -2.047   0.718  24.287  0.00  0.00    +0.251 C 
ATOM     32  O   UNL     1      -2.126   1.493  24.015  0.00  0.00    -0.270 OA
ENDROOT
BRANCH  18  21
ATOM     21  C   UNL     1      -4.678   1.268  25.038  0.00  0.00    -0.000 A 
ATOM     22  C   UNL     1      -4.550   2.036  25.309  0.00  0.00    +0.004 A 
ATOM     23  C   UNL     1      -5.174   2.577  25.327  0.00  0.00    +0.071 A 
ATOM     24  C   UNL     1      -5.925   2.348  25.074  0.00  0.00    +0.004 A 
ATOM     25  C   UNL     1      -6.053   1.580  24.803  0.00  0.00    -0.000 A 
ATOM     26  C   UNL     1      -5.430   1.039  24.784  0.00  0.00    -0.000 A 
BRANCH  23  27
ATOM     27  C   UNL     1      -5.046   3.345  25.599  0.00  0.00    +0.419 C 
ATOM     28  F   UNL     1      -4.918   4.113  25.870  0.00  0.00    -0.166 F 
ATOM     29  F   UNL     1      -5.205   3.098  26.370  0.00  0.00    -0.166 F 
ATOM     30  F   UNL     1      -4.887   3.591  24.828  0.00  0.00    -0.166 F 
ENDBRANCH  23  27
ENDBRANCH  18  21
BRANCH   6   5
ATOM      5  N   UNL     1       0.984  -0.372  23.600  0.00  0.00    -0.083 NA
BRANCH   5   2
ATOM      1  C   UNL     1       1.693   0.125  22.195  0.00  0.00    +0.197 C 
ATOM      2  S   UNL     1       1.338  -0.123  22.897  0.00  0.00    +0.059 S 
ATOM      3  O   UNL     1       0.929  -0.708  22.484  0.00  0.00    -0.156 OA
ATOM      4  O   UNL     1       1.748   0.461  23.311  0.00  0.00    -0.156 OA
ENDBRANCH   5   2
ENDBRANCH   6   5
TORSDOF 4
ENDMDL
MODEL 5
REMARK VINA RESULT:     -12.1      3.100      5.551
REMARK  Name = 
REMARK  4 active torsions:
REMARK  status: ('A' for Active; 'I' for Inactive)
REMARK    1  A    between atoms: S_2  and  N_5
REMARK    2  A    between atoms: N_5  and  C_6
REMARK    3  A    between atoms: C_18  and  C_21
REMARK    4  A    between atoms: C_23  and  C_27
REMARK                            x       y       z     vdW  Elec       q    Type
REMARK                         _______ _______ _______ _____ _____    ______ ____
ROOT
ATOM      6  C   UNL     1      -3.783  -1.156  24.924  0.00  0.00    +0.101 C 
ATOM      7  C   UNL     1      -2.989  -0.992  25.075  0.00  0.00    +0.041 C 
ATOM      8  C   UNL     1      -2.724  -0.211  25.095  0.00  0.00    +0.096 C 
ATOM      9  N   UNL     1      -3.255   0.407  24.963  0.00  0.00    -0.269 N 
ATOM     10  C   UNL     1      -4.049   0.244  24.811  0.00  0.00    +0.155 C 
ATOM     11  C   UNL     1      -4.313  -0.537  24.792  0.00  0.00    +0.049 C 
ATOM     12  C   UNL     1      -4.664   0.774  24.666  0.00  0.00    +0.264 C 
ATOM     13  O   UNL     1      -5.404   0.436  24.532  0.00  0.00    -0.271 OA
ATOM     14  N   UNL     1      -4.637   1.599  24.637  0.00  0.00    -0.178 NA
ATOM     15  C   UNL     1      -3.988   2.096  24.745  0.00  0.00    +0.078 A 
ATOM     16  C   UNL     1      -3.206   1.892  24.910  0.00  0.00    +0.069 A 
ATOM     17  C   UNL     1      -2.635   2.481  24.999  0.00  0.00    +0.006 A 
ATOM     18  C   UNL     1      -2.848   3.276  24.923  0.00  0.00    +0.000 A 
ATOM     19  C   UNL     1      -3.630   3.479  24.758  0.00  0.00    +0.001 A 
ATOM     20  C   UNL     1      -4.200   2.890  24.669  0.00  0.00    +0.017 A 
ATOM     31  C   UNL     1      -2.880   1.140  25.007  0.00  0.00    +0.251 C 
ATOM     32  O   UNL     1      -2.071   1.119  25.170  0.00  0.00    -0.270 OA
ENDROOT
BRANCH  18  21
ATOM     21  C   UNL     1      -2.279   3.866  25.012  0.00  0.00    -0.000 A 
ATOM     22  C   UNL     1      -1.605   3.863  24.537  0.00  0.00    +0.004 A 
ATOM     23  C   UNL     1      -1.035   4.454  24.626  0.00  0.00    +0.071 A 
ATOM     24  C   UNL     1      -1.140   5.046  25.191  0.00  0.00    +0.004 A 
ATOM     25  C   UNL     1      -1.814   5.049  25.666  0.00  0.00    -0.000 A 
ATOM     26  C   UNL     1      -2.384   4.459  25.577  0.00  0.00    -0.000 A 
BRANCH  23  27
ATOM     27  C   UNL     1      -0.361   4.451  24.151  0.00  0.00    +0.419 C 
ATOM     28  F   UNL     1       0.313   4.449  23.676  0.00  0.00    -0.166 F 
ATOM     29  F   UNL     1      -0.460   5.258  24.007  0.00  0.00    -0.166 F 
ATOM     30  F   UNL     1      -0.262   3.645  24.295  0.00  0.00    -0.166 F 
ENDBRANCH  23  27
ENDBRANCH  18  21
BRANCH   6   5
ATOM      5  N   UNL     1      -4.048  -1.937  24.904  0.00  0.00    -0.083 NA
BRANCH   5   2
ATOM      1  C   UNL     1      -3.086  -3.118  24.268  0.00  0.00    +0.197 C 
ATOM      2  S   UNL     1      -3.566  -2.527  24.586  0.00  0.00    +0.059 S 
ATOM      3  O   UNL     1      -3.857  -2.358  23.832  0.00  0.00    -0.156 OA
ATOM      4  O   UNL     1      -3.277  -2.696  25.340  0.00  0.00    -0.156 OA
ENDBRANCH   5   2
ENDBRANCH   6   5
TORSDOF 4
ENDMDL
MODEL 6
REMARK VINA RESULT:     -11.4      3.189      4.600
REMARK  Name = 
REMARK  4 active torsions:
REMARK  status: ('A' for Active; 'I' for Inactive)
REMARK    1  A    between atoms: S_2  and  N_5
REMARK    2  A    between atoms: N_5  and  C_6
REMARK    3  A    between atoms: C_18  and  C_21
REMARK    4  A    between atoms: C_23  and  C_27
REMARK                            x       y       z     vdW  Elec       q    Type
REMARK                         _______ _______ _______ _____ _____    ______ ____
ROOT
ATOM      6  C   UNL     1       0.243   0.690  24.086  0.00  0.00    +0.101 C 
ATOM      7  C   UNL     1      -0.482   0.430  23.793  0.00  0.00    +0.041 C 
ATOM      8  C   UNL     1      -1.176   0.831  23.991  0.00  0.00    +0.096 C 
ATOM      9  N   UNL     1      -1.142   1.493  24.483  0.00  0.00    -0.269 N 
ATOM     10  C   UNL     1      -0.416   1.753  24.776  0.00  0.00    +0.155 C 
ATOM     11  C   UNL     1       0.276   1.351  24.578  0.00  0.00    +0.049 C 
ATOM     12  C   UNL     1      -0.262   2.395  25.271  0.00  0.00    +0.264 C 
ATOM     13  O   UNL     1       0.530   2.512  25.468  0.00  0.00    -0.271 OA
ATOM     14  N   UNL     1      -0.795   2.936  25.594  0.00  0.00    -0.178 NA
ATOM     15  C   UNL     1      -1.614   2.968  25.502  0.00  0.00    +0.078 A 
ATOM     16  C   UNL     1      -2.103   2.467  25.065  0.00  0.00    +0.069 A 
ATOM     17  C   UNL     1      -2.917   2.597  25.047  0.00  0.00    +0.006 A 
ATOM     18  C   UNL     1      -3.243   3.230  25.466  0.00  0.00    +0.000 A 
ATOM     19  C   UNL     1      -2.754   3.730  25.903  0.00  0.00    +0.001 A 
ATOM     20  C   UNL     1      -1.940   3.599  25.922  0.00  0.00    +0.017 A 
ATOM     31  C   UNL     1      -1.893   1.811  24.611  0.00  0.00    +0.251 C 
ATOM     32  O   UNL     1      -2.515   1.420  24.237  0.00  0.00    -0.270 OA
ENDROOT
BRANCH  18  21
ATOM     21  C   UNL     1      -4.057   3.361  25.449  0.00  0.00    -0.000 A 
ATOM     22  C   UNL     1      -4.578   2.751  25.643  0.00  0.00    +0.004 A 
ATOM     23  C   UNL     1      -5.392   2.882  25.625  0.00  0.00    +0.071 A 
ATOM     24  C   UNL     1      -5.686   3.624  25.412  0.00  0.00    +0.004 A 
ATOM     25  C   UNL     1      -5.166   4.234  25.218  0.00  0.00    -0.000 A 
ATOM     26  C   UNL     1      -4.351   4.103  25.236  0.00  0.00    -0.000 A 
BRANCH  23  27
ATOM     27  C   UNL     1      -5.912   2.273  25.820  0.00  0.00    +0.419 C 
ATOM     28  F   UNL     1      -6.433   1.663  26.014  0.00  0.00    -0.166 F 
ATOM     29  F   UNL     1      -5.975   2.072  25.021  0.00  0.00    -0.166 F 
ATOM     30  F   UNL     1      -5.850   2.474  26.617  0.00  0.00    -0.166 F 
ENDBRANCH  23  27
ENDBRANCH  18  21
BRANCH   6   5
ATOM      5  N   UNL     1       0.936   0.288  23.888  0.00  0.00    -0.083 NA
BRANCH   5   2
ATOM      1  C   UNL     1       1.173  -0.235  22.341  0.00  0.00    +0.197 C 
ATOM      2  S   UNL     1       1.054   0.026  23.114  0.00  0.00    +0.059 S 
ATOM      3  O   UNL     1       0.623  -0.657  23.280  0.00  0.00    -0.156 OA
ATOM      4  O   UNL     1       1.485   0.711  22.949  0.00  0.00    -0.156 OA
ENDBRANCH   5   2
ENDBRANCH   6   5
TORSDOF 4
ENDMDL
