MODEL 1
REMARK VINA RESULT:     -11.7      0.000      0.000
REMARK  Name = 
REMARK  5 active torsions:
REMARK  status: ('A' for Active; 'I' for Inactive)
REMARK    1  A    between atoms: C_2  and  S_3
REMARK    2  A    between atoms: S_3  and  C_6
REMARK    3  A    between atoms: C_11  and  C_13
REMARK    4  A    between atoms: N_16  and  C_17
REMARK    5  A    between atoms: C_17  and  C_18
REMARK                            x       y       z     vdW  Elec       q    Type
REMARK                         _______ _______ _______ _____ _____    ______ ____
ROOT
ATOM      6  C   UNL     1      -0.813   3.410  25.287  0.00  0.00    +0.107 A 
ATOM      7  C   UNL     1      -1.336   2.835  25.012  0.00  0.00    +0.041 A 
ATOM      8  C   UNL     1      -1.242   2.047  25.240  0.00  0.00    +0.120 A 
ATOM      9  C   UNL     1      -0.624   1.835  25.744  0.00  0.00    +0.164 A 
ATOM     10  O   UNL     1      -0.668   1.022  25.873  0.00  0.00    -0.438 OA
ATOM     11  C   UNL     1      -1.313   0.731  25.450  0.00  0.00    +0.207 A 
ATOM     12  N   UNL     1      -1.667   1.365  25.059  0.00  0.00    -0.212 NA
ATOM     25  C   UNL     1      -0.100   2.411  26.019  0.00  0.00    +0.040 A 
ATOM     26  C   UNL     1      -0.195   3.198  25.791  0.00  0.00    +0.022 A 
ENDROOT
BRANCH  11  13
ATOM     13  C   UNL     1      -1.561  -0.055  25.423  0.00  0.00    +0.094 C 
ATOM     14  C   UNL     1      -1.093  -0.704  25.223  0.00  0.00    +0.028 C 
ATOM     15  C   UNL     1      -1.562  -1.382  25.267  0.00  0.00    +0.073 C 
ATOM     16  N   UNL     1      -2.320  -1.151  25.494  0.00  0.00    -0.272 NA
ATOM     24  C   UNL     1      -2.319  -0.331  25.590  0.00  0.00    +0.081 C 
BRANCH  16  17
ATOM     17  C   UNL     1      -2.967  -1.651  25.605  0.00  0.00    +0.072 C 
BRANCH  17  18
ATOM     18  C   UNL     1      -3.417  -1.895  24.958  0.00  0.00    +0.016 C 
ATOM     19  C   UNL     1      -3.338  -2.663  24.666  0.00  0.00    +0.001 C 
ATOM     20  C   UNL     1      -3.788  -2.906  24.019  0.00  0.00    +0.000 C 
ATOM     21  C   UNL     1      -4.317  -2.382  23.664  0.00  0.00    +0.000 C 
ATOM     22  C   UNL     1      -4.396  -1.614  23.956  0.00  0.00    +0.000 C 
ATOM     23  C   UNL     1      -3.946  -1.370  24.603  0.00  0.00    +0.001 C 
ENDBRANCH  17  18
ENDBRANCH  16  17
ENDBRANCH  11  13
BRANCH   6   3
ATOM      3  S   UNL     1      -0.908   4.196  25.059  0.00  0.00    +0.009 S 
ATOM      4  O   UNL     1      -1.421   4.319  25.693  0.00  0.00    -0.169 OA
ATOM      5  O   UNL     1      -0.394   4.075  24.425  0.00  0.00    -0.169 OA
BRANCH   3   2
ATOM      1  C   UNL     1      -1.648   5.418  25.105  0.00  0.00    +0.028 C 
ATOM      2  C   UNL     1      -1.002   4.984  24.831  0.00  0.00    +0.156 C 
ENDBRANCH   3   2
ENDBRANCH   6   3
TORSDOF 5
ENDMDL
MODEL 2
REMARK VINA RESULT:     -11.3      2.054      5.510
REMARK  Name = 
REMARK  5 active torsions:
REMARK  status: ('A' for Active; 'I' for Inactive)
REMARK    1  A    between atoms: C_2  and  S_3
REMARK    2  A    between atoms: S_3  and  C_6
REMARK    3  A    between atoms: C_11  and  C_13
REMARK    4  A    between atoms: N_16  and  C_17
REMARK    5  A    between atoms: C_17  and  C_18
REMARK                            x       y       z     vdW  Elec       q    Type
REMARK                         _______ _______ _______ _____ _____    ______ ____
ROOT
ATOM      6  C   UNL     1      -2.465  -1.907  24.713  0.00  0.00    +0.107 A 
ATOM      7  C   UNL     1      -2.543  -1.087  24.676  0.00  0.00    +0.041 A 
ATOM      8  C   UNL     1      -1.883  -0.603  24.783  0.00  0.00    +0.120 A 
ATOM      9  C   UNL     1      -1.144  -0.941  24.927  0.00  0.00    +0.164 A 
ATOM     10  O   UNL     1      -0.597  -0.330  25.010  0.00  0.00    -0.438 OA
ATOM     11  C   UNL     1      -0.997   0.385  24.917  0.00  0.00    +0.207 A 
ATOM     12  N   UNL     1      -1.791   0.216  24.776  0.00  0.00    -0.212 NA
ATOM     25  C   UNL     1      -1.066  -1.762  24.965  0.00  0.00    +0.040 A 
ATOM     26  C   UNL     1      -1.726  -2.244  24.858  0.00  0.00    +0.022 A 
ENDROOT
BRANCH  11  13
ATOM     13  C   UNL     1      -0.661   1.137  24.957  0.00  0.00    +0.094 C 
ATOM     14  C   UNL     1      -0.101   1.447  24.436  0.00  0.00    +0.028 C 
ATOM     15  C   UNL     1       0.081   2.213  24.681  0.00  0.00    +0.073 C 
ATOM     16  N   UNL     1      -0.367   2.378  25.354  0.00  0.00    -0.272 NA
ATOM     24  C   UNL     1      -0.826   1.713  25.524  0.00  0.00    +0.081 C 
BRANCH  16  17
ATOM     17  C   UNL     1      -0.359   3.083  25.782  0.00  0.00    +0.072 C 
BRANCH  17  18
ATOM     18  C   UNL     1      -0.867   3.699  25.572  0.00  0.00    +0.016 C 
ATOM     19  C   UNL     1      -0.602   4.298  25.068  0.00  0.00    +0.001 C 
ATOM     20  C   UNL     1      -1.110   4.913  24.859  0.00  0.00    +0.000 C 
ATOM     21  C   UNL     1      -1.880   4.932  25.152  0.00  0.00    +0.000 C 
ATOM     22  C   UNL     1      -2.144   4.334  25.655  0.00  0.00    +0.000 C 
ATOM     23  C   UNL     1      -1.637   3.717  25.866  0.00  0.00    +0.001 C 
ENDBRANCH  17  18
ENDBRANCH  16  17
ENDBRANCH  11  13
BRANCH   6   3
ATOM      3  S   UNL     1      -3.125  -2.389  24.607  0.00  0.00    +0.009 S 
ATOM      4  O   UNL     1      -3.404  -2.175  25.353  0.00  0.00    -0.169 OA
ATOM      5  O   UNL     1      -2.847  -2.605  23.860  0.00  0.00    -0.169 OA
BRANCH   3   2
ATOM      1  C   UNL     1      -4.292  -2.742  23.862  0.00  0.00    +0.028 C 
ATOM      2  C   UNL     1      -3.786  -2.873  24.500  0.00  0.00    +0.156 C 
ENDBRANCH   3   2
ENDBRANCH   6   3
TORSDOF 5
ENDMDL
MODEL 3
REMARK VINA RESULT:     -11.3      2.413      5.818
REMARK  Name = 
REMARK  5 active torsions:
REMARK  status: ('A' for Active; 'I' for Inactive)
REMARK    1  A    between atoms: C_2  and  S_3
REMARK    2  A    between atoms: S_3  and  C_6
REMARK    3  A    between atoms: C_11  and  C_13
REMARK    4  A    between atoms: N_16  and  C_17
REMARK    5  A    between atoms: C_17  and  C_18
REMARK                            x       y       z     vdW  Elec       q    Type
REMARK                         _______ _______ _______ _____ _____    ______ ____
ROOT
ATOM      6  C   UNL     1      -3.578  -1.260  24.575  0.00  0.00    +0.107 A 
ATOM      7  C   UNL     1      -3.119  -0.616  24.808  0.00  0.00    +0.041 A 
ATOM      8  C   UNL     1      -3.431   0.147  24.773  0.00  0.00    +0.120 A 
ATOM      9  C   UNL     1      -4.202   0.265  24.506  0.00  0.00    +0.164 A 
ATOM     10  O   UNL     1      -4.360   1.074  24.531  0.00  0.00    -0.438 OA
ATOM     11  C   UNL     1      -3.687   1.456  24.815  0.00  0.00    +0.207 A 
ATOM     12  N   UNL     1      -3.113   0.883  24.964  0.00  0.00    -0.212 NA
ATOM     25  C   UNL     1      -4.662  -0.380  24.273  0.00  0.00    +0.040 A 
ATOM     26  C   UNL     1      -4.349  -1.142  24.308  0.00  0.00    +0.022 A 
ENDROOT
BRANCH  11  13
ATOM     13  C   UNL     1      -3.602   2.269  24.929  0.00  0.00    +0.094 C 
ATOM     14  C   UNL     1      -4.038   2.860  24.553  0.00  0.00    +0.028 C 
ATOM     15  C   UNL     1      -3.773   3.590  24.831  0.00  0.00    +0.073 C 
ATOM     16  N   UNL     1      -3.172   3.450  25.379  0.00  0.00    -0.272 NA
ATOM     24  C   UNL     1      -3.067   2.634  25.440  0.00  0.00    +0.081 C 
BRANCH  16  17
ATOM     17  C   UNL     1      -2.751   4.025  25.794  0.00  0.00    +0.072 C 
BRANCH  17  18
ATOM     18  C   UNL     1      -2.046   4.325  25.484  0.00  0.00    +0.016 C 
ATOM     19  C   UNL     1      -1.365   3.859  25.484  0.00  0.00    +0.001 C 
ATOM     20  C   UNL     1      -0.662   4.160  25.174  0.00  0.00    +0.000 C 
ATOM     21  C   UNL     1      -0.639   4.924  24.866  0.00  0.00    +0.000 C 
ATOM     22  C   UNL     1      -1.321   5.389  24.866  0.00  0.00    +0.000 C 
ATOM     23  C   UNL     1      -2.025   5.090  25.176  0.00  0.00    +0.001 C 
ENDBRANCH  17  18
ENDBRANCH  16  17
ENDBRANCH  11  13
BRANCH   6   3
ATOM      3  S   UNL     1      -3.266  -2.022  24.610  0.00  0.00    +0.009 S 
ATOM      4  O   UNL     1      -3.573  -2.114  25.370  0.00  0.00    -0.169 OA
ATOM      5  O   UNL     1      -2.958  -1.932  23.850  0.00  0.00    -0.169 OA
BRANCH   3   2
ATOM      1  C   UNL     1      -2.155  -2.912  24.480  0.00  0.00    +0.028 C 
ATOM      2  C   UNL     1      -2.953  -2.786  24.645  0.00  0.00    +0.156 C 
ENDBRANCH   3   2
ENDBRANCH   6   3
TORSDOF 5
ENDMDL
MODEL 4
REMARK VINA RESULT:     -10.9      1.665      2.263
REMARK  Name = 
REMARK  5 active torsions:
REMARK  status: ('A' for Active; 'I' for Inactive)
REMARK    1  A    between atoms: C_2  and  S_3
REMARK    2  A    between atoms: S_3  and  C_6
REMARK    3  A    between atoms: C_11  and  C_13
REMARK    4  A    between atoms: N_16  and  C_17
REMARK    5  A    between atoms: C_17  and  C_18
REMARK                            x       y       z     vdW  Elec       q    Type
REMARK                         _______ _______ _______ _____ _____    ______ ____
ROOT
ATOM      6  C   UNL     1      -2.770   3.871  25.145  0.00  0.00    +0.107 A 
ATOM      7  C   UNL     1      -2.522   3.085  25.113  0.00  0.00    +0.041 A 
ATOM      8  C   UNL     1      -3.077   2.480  25.030  0.00  0.00    +0.120 A 
ATOM      9  C   UNL     1      -3.881   2.662  24.981  0.00  0.00    +0.164 A 
ATOM     10  O   UNL     1      -4.298   1.955  24.902  0.00  0.00    -0.438 OA
ATOM     11  C   UNL     1      -3.752   1.336  24.903  0.00  0.00    +0.207 A 
ATOM     12  N   UNL     1      -2.999   1.661  24.982  0.00  0.00    -0.212 NA
ATOM     25  C   UNL     1      -4.129   3.448  25.013  0.00  0.00    +0.040 A 
ATOM     26  C   UNL     1      -3.573   4.052  25.096  0.00  0.00    +0.022 A 
ENDROOT
BRANCH  11  13
ATOM     13  C   UNL     1      -3.930   0.533  24.837  0.00  0.00    +0.094 C 
ATOM     14  C   UNL     1      -4.456   0.195  24.299  0.00  0.00    +0.028 C 
ATOM     15  C   UNL     1      -4.464  -0.620  24.426  0.00  0.00    +0.073 C 
ATOM     16  N   UNL     1      -3.943  -0.786  25.043  0.00  0.00    -0.272 NA
ATOM     24  C   UNL     1      -3.613  -0.074  25.297  0.00  0.00    +0.081 C 
BRANCH  16  17
ATOM     17  C   UNL     1      -3.780  -1.533  25.353  0.00  0.00    +0.072 C 
BRANCH  17  18
ATOM     18  C   UNL     1      -3.254  -2.036  24.963  0.00  0.00    +0.016 C 
ATOM     19  C   UNL     1      -3.542  -2.648  24.489  0.00  0.00    +0.001 C 
ATOM     20  C   UNL     1      -3.016  -3.150  24.101  0.00  0.00    +0.000 C 
ATOM     21  C   UNL     1      -2.203  -3.041  24.184  0.00  0.00    +0.000 C 
ATOM     22  C   UNL     1      -1.915  -2.430  24.658  0.00  0.00    +0.000 C 
ATOM     23  C   UNL     1      -2.441  -1.927  25.047  0.00  0.00    +0.001 C 
ENDBRANCH  17  18
ENDBRANCH  16  17
ENDBRANCH  11  13
BRANCH   6   3
ATOM      3  S   UNL     1      -2.215   4.475  25.227  0.00  0.00    +0.009 S 
ATOM      4  O   UNL     1      -2.359   4.498  26.039  0.00  0.00    -0.169 OA
ATOM      5  O   UNL     1      -2.070   4.453  24.415  0.00  0.00    -0.169 OA
BRANCH   3   2
ATOM      1  C   UNL     1      -0.947   5.044  24.894  0.00  0.00    +0.028 C 
ATOM      2  C   UNL     1      -1.659   5.080  25.309  0.00  0.00    +0.156 C 
ENDBRANCH   3   2
ENDBRANCH   6   3
TORSDOF 5
ENDMDL
