MODEL 1
REMARK VINA RESULT:      -7.9      0.000      0.000
REMARK  Name = 
REMARK  8 active torsions:
REMARK  status: ('A' for Active; 'I' for Inactive)
REMARK    1  A    between atoms: C_5  and  S_8
REMARK    2  A    between atoms: S_8  and  N_11
REMARK    3  A    between atoms: N_11  and  C_12
REMARK    4  A    between atoms: C_12  and  C_13
REMARK    5  A    between atoms: C_16  and  N_17
REMARK    6  A    between atoms: N_17  and  C_18
REMARK    7  A    between atoms: C_18  and  C_19
REMARK    8  A    between atoms: C_22  and  S_25
REMARK                            x       y       z     vdW  Elec       q    Type
REMARK                         _______ _______ _______ _____ _____    ______ ____
ROOT
ATOM     13  C   UNL     1      -0.649   0.646  23.818  0.00  0.00    +0.166 C 
ATOM     14  O   UNL     1      -0.528  -0.087  23.460  0.00  0.00    -0.350 OA
ATOM     15  C   UNL     1       0.271  -0.147  23.267  0.00  0.00    +0.162 C 
ATOM     16  C   UNL     1       0.644   0.549  23.505  0.00  0.00    +0.135 C 
ATOM     29  C   UNL     1       0.076   1.039  23.846  0.00  0.00    +0.199 C 
ATOM     30  O   UNL     1       0.208   1.790  24.160  0.00  0.00    -0.219 OA
ENDROOT
BRANCH  13  12
ATOM     12  C   UNL     1      -1.369   0.936  24.100  0.00  0.00    +0.148 C 
BRANCH  12  11
ATOM     11  N   UNL     1      -2.067   0.527  23.943  0.00  0.00    -0.075 NA
BRANCH  11   8
ATOM      8  S   UNL     1      -2.792   0.838  24.188  0.00  0.00    +0.077 S 
ATOM      9  O   UNL     1      -2.615   0.636  24.968  0.00  0.00    -0.152 OA
ATOM     10  O   UNL     1      -2.969   1.041  23.408  0.00  0.00    -0.152 OA
BRANCH   8   5
ATOM      1  C   UNL     1      -5.687   2.083  25.167  0.00  0.00    +0.031 C 
ATOM      2  C   UNL     1      -4.963   1.771  24.921  0.00  0.00    -0.022 A 
ATOM      3  C   UNL     1      -4.389   2.268  24.599  0.00  0.00    -0.003 A 
ATOM      4  C   UNL     1      -3.665   1.957  24.354  0.00  0.00    +0.020 A 
ATOM      5  C   UNL     1      -3.515   1.149  24.432  0.00  0.00    +0.124 A 
ATOM      6  C   UNL     1      -4.090   0.653  24.755  0.00  0.00    +0.020 A 
ATOM      7  C   UNL     1      -4.813   0.964  25.000  0.00  0.00    -0.003 A 
ENDBRANCH   8   5
ENDBRANCH  11   8
ENDBRANCH  12  11
ENDBRANCH  13  12
BRANCH  16  17
ATOM     17  N   UNL     1       1.446   0.724  23.417  0.00  0.00    -0.209 NA
BRANCH  17  18
ATOM     18  C   UNL     1       1.913   0.274  22.907  0.00  0.00    +0.115 C 
BRANCH  18  19
ATOM     19  C   UNL     1       2.732   0.260  23.002  0.00  0.00    -0.005 A 
ATOM     20  C   UNL     1       3.183   0.919  22.794  0.00  0.00    -0.002 A 
ATOM     21  C   UNL     1       4.002   0.905  22.890  0.00  0.00    +0.018 A 
ATOM     22  C   UNL     1       4.371   0.232  23.194  0.00  0.00    +0.106 A 
ATOM     23  C   UNL     1       3.920  -0.427  23.402  0.00  0.00    +0.018 A 
ATOM     24  C   UNL     1       3.101  -0.412  23.306  0.00  0.00    -0.002 A 
BRANCH  22  25
ATOM     25  S   UNL     1       5.190   0.218  23.290  0.00  0.00    +0.010 S 
ATOM     26  C   UNL     1       6.010   0.204  23.385  0.00  0.00    +0.182 C 
ATOM     27  O   UNL     1       5.101   0.400  24.088  0.00  0.00    -0.169 OA
ATOM     28  O   UNL     1       5.280   0.036  22.489  0.00  0.00    -0.169 OA
ENDBRANCH  22  25
ENDBRANCH  18  19
ENDBRANCH  17  18
ENDBRANCH  16  17
TORSDOF 8
ENDMDL
MODEL 2
REMARK VINA RESULT:      -7.7      1.376      7.255
REMARK  Name = 
REMARK  8 active torsions:
REMARK  status: ('A' for Active; 'I' for Inactive)
REMARK    1  A    between atoms: C_5  and  S_8
REMARK    2  A    between atoms: S_8  and  N_11
REMARK    3  A    between atoms: N_11  and  C_12
REMARK    4  A    between atoms: C_12  and  C_13
REMARK    5  A    between atoms: C_16  and  N_17
REMARK    6  A    between atoms: N_17  and  C_18
REMARK    7  A    between atoms: C_18  and  C_19
REMARK    8  A    between atoms: C_22  and  S_25
REMARK                            x       y       z     vdW  Elec       q    Type
REMARK                         _______ _______ _______ _____ _____    ______ ____
ROOT
ATOM     13  C   UNL     1       0.450   0.706  23.571  0.00  0.00    +0.166 C 
ATOM     14  O   UNL     1       0.004   0.199  23.097  0.00  0.00    -0.350 OA
ATOM     15  C   UNL     1      -0.793   0.331  23.261  0.00  0.00    +0.162 C 
ATOM     16  C   UNL     1      -0.841   0.920  23.837  0.00  0.00    +0.135 C 
ATOM     29  C   UNL     1      -0.073   1.152  24.029  0.00  0.00    +0.199 C 
ATOM     30  O   UNL     1       0.136   1.729  24.580  0.00  0.00    -0.219 OA
ENDROOT
BRANCH  13  12
ATOM     12  C   UNL     1       1.273   0.759  23.586  0.00  0.00    +0.148 C 
BRANCH  12  11
ATOM     11  N   UNL     1       1.714   0.491  22.943  0.00  0.00    -0.075 NA
BRANCH  11   8
ATOM      8  S   UNL     1       2.533   0.404  23.012  0.00  0.00    +0.077 S 
ATOM      9  O   UNL     1       2.599   1.198  23.225  0.00  0.00    -0.152 OA
ATOM     10  O   UNL     1       2.466  -0.390  22.799  0.00  0.00    -0.152 OA
BRANCH   8   5
ATOM      1  C   UNL     1       5.803   0.056  23.288  0.00  0.00    +0.031 C 
ATOM      2  C   UNL     1       4.984   0.143  23.219  0.00  0.00    -0.022 A 
ATOM      3  C   UNL     1       4.484  -0.471  23.449  0.00  0.00    -0.003 A 
ATOM      4  C   UNL     1       3.666  -0.384  23.380  0.00  0.00    +0.020 A 
ATOM      5  C   UNL     1       3.349   0.317  23.081  0.00  0.00    +0.124 A 
ATOM      6  C   UNL     1       3.851   0.930  22.851  0.00  0.00    +0.020 A 
ATOM      7  C   UNL     1       4.668   0.843  22.920  0.00  0.00    -0.003 A 
ENDBRANCH   8   5
ENDBRANCH  11   8
ENDBRANCH  12  11
ENDBRANCH  13  12
BRANCH  16  17
ATOM     17  N   UNL     1      -1.535   1.224  24.163  0.00  0.00    -0.209 NA
BRANCH  17  18
ATOM     18  C   UNL     1      -2.256   1.114  23.776  0.00  0.00    +0.115 C 
BRANCH  18  19
ATOM     19  C   UNL     1      -2.951   1.411  24.106  0.00  0.00    -0.005 A 
ATOM     20  C   UNL     1      -3.215   2.166  23.900  0.00  0.00    -0.002 A 
ATOM     21  C   UNL     1      -3.910   2.463  24.230  0.00  0.00    +0.018 A 
ATOM     22  C   UNL     1      -4.341   2.007  24.767  0.00  0.00    +0.106 A 
ATOM     23  C   UNL     1      -4.076   1.253  24.972  0.00  0.00    +0.018 A 
ATOM     24  C   UNL     1      -3.381   0.956  24.642  0.00  0.00    -0.002 A 
BRANCH  22  25
ATOM     25  S   UNL     1      -5.035   2.305  25.097  0.00  0.00    +0.010 S 
ATOM     26  C   UNL     1      -5.731   2.602  25.427  0.00  0.00    +0.182 C 
ATOM     27  O   UNL     1      -4.593   2.808  25.576  0.00  0.00    -0.169 OA
ATOM     28  O   UNL     1      -5.479   1.800  24.617  0.00  0.00    -0.169 OA
ENDBRANCH  22  25
ENDBRANCH  18  19
ENDBRANCH  17  18
ENDBRANCH  16  17
TORSDOF 8
ENDMDL
MODEL 3
REMARK VINA RESULT:      -6.4     17.457     18.142
REMARK  Name = 
REMARK  8 active torsions:
REMARK  status: ('A' for Active; 'I' for Inactive)
REMARK    1  A    between atoms: C_5  and  S_8
REMARK    2  A    between atoms: S_8  and  N_11
REMARK    3  A    between atoms: N_11  and  C_12
REMARK    4  A    between atoms: C_12  and  C_13
REMARK    5  A    between atoms: C_16  and  N_17
REMARK    6  A    between atoms: N_17  and  C_18
REMARK    7  A    between atoms: C_18  and  C_19
REMARK    8  A    between atoms: C_22  and  S_25
REMARK                            x       y       z     vdW  Elec       q    Type
REMARK                         _______ _______ _______ _____ _____    ______ ____
ROOT
ATOM     13  C   UNL     1      -6.944  -8.439   8.894  0.00  0.00    +0.166 C 
ATOM     14  O   UNL     1      -6.538  -8.663   8.212  0.00  0.00    -0.350 OA
ATOM     15  C   UNL     1      -5.884  -9.111   8.440  0.00  0.00    +0.162 C 
ATOM     16  C   UNL     1      -5.886  -9.164   9.264  0.00  0.00    +0.135 C 
ATOM     29  C   UNL     1      -6.541  -8.749   9.544  0.00  0.00    +0.199 C 
ATOM     30  O   UNL     1      -6.755  -8.659  10.335  0.00  0.00    -0.219 OA
ENDROOT
BRANCH  13  12
ATOM     12  C   UNL     1      -7.631  -7.984   8.922  0.00  0.00    +0.148 C 
BRANCH  12  11
ATOM     11  N   UNL     1      -7.829  -7.497   8.287  0.00  0.00    -0.075 NA
BRANCH  11   8
ATOM      8  S   UNL     1      -8.408  -6.914   8.378  0.00  0.00    +0.077 S 
ATOM      9  O   UNL     1      -7.827  -6.330   8.329  0.00  0.00    -0.152 OA
ATOM     10  O   UNL     1      -8.988  -7.499   8.427  0.00  0.00    -0.152 OA
BRANCH   8   5
ATOM      1  C   UNL     1     -10.720  -4.588   8.742  0.00  0.00    +0.031 C 
ATOM      2  C   UNL     1     -10.141  -5.170   8.651  0.00  0.00    -0.022 A 
ATOM      3  C   UNL     1      -9.355  -4.953   8.526  0.00  0.00    -0.003 A 
ATOM      4  C   UNL     1      -8.777  -5.535   8.434  0.00  0.00    +0.020 A 
ATOM      5  C   UNL     1      -8.985  -6.333   8.469  0.00  0.00    +0.124 A 
ATOM      6  C   UNL     1      -9.771  -6.549   8.595  0.00  0.00    +0.020 A 
ATOM      7  C   UNL     1     -10.349  -5.967   8.686  0.00  0.00    -0.003 A 
ENDBRANCH   8   5
ENDBRANCH  11   8
ENDBRANCH  12  11
ENDBRANCH  13  12
BRANCH  16  17
ATOM     17  N   UNL     1      -5.331  -9.564   9.725  0.00  0.00    -0.209 NA
BRANCH  17  18
ATOM     18  C   UNL     1      -4.528  -9.521   9.535  0.00  0.00    +0.115 C 
BRANCH  18  19
ATOM     19  C   UNL     1      -3.961  -9.754  10.086  0.00  0.00    -0.005 A 
ATOM     20  C   UNL     1      -3.375  -9.223  10.324  0.00  0.00    -0.002 A 
ATOM     21  C   UNL     1      -2.808  -9.456  10.875  0.00  0.00    +0.018 A 
ATOM     22  C   UNL     1      -2.826 -10.220  11.189  0.00  0.00    +0.106 A 
ATOM     23  C   UNL     1      -3.412 -10.749  10.951  0.00  0.00    +0.018 A 
ATOM     24  C   UNL     1      -3.979 -10.516  10.400  0.00  0.00    -0.002 A 
BRANCH  22  25
ATOM     25  S   UNL     1      -2.258 -10.453  11.741  0.00  0.00    +0.010 S 
ATOM     26  C   UNL     1      -1.690 -10.686  12.292  0.00  0.00    +0.182 C 
ATOM     27  O   UNL     1      -2.856 -10.646  12.275  0.00  0.00    -0.169 OA
ATOM     28  O   UNL     1      -1.660 -10.259  11.206  0.00  0.00    -0.169 OA
ENDBRANCH  22  25
ENDBRANCH  18  19
ENDBRANCH  17  18
ENDBRANCH  16  17
TORSDOF 8
ENDMDL
MODEL 4
REMARK VINA RESULT:      -6.0     15.036     16.542
REMARK  Name = 
REMARK  8 active torsions:
REMARK  status: ('A' for Active; 'I' for Inactive)
REMARK    1  A    between atoms: C_5  and  S_8
REMARK    2  A    between atoms: S_8  and  N_11
REMARK    3  A    between atoms: N_11  and  C_12
REMARK    4  A    between atoms: C_12  and  C_13
REMARK    5  A    between atoms: C_16  and  N_17
REMARK    6  A    between atoms: N_17  and  C_18
REMARK    7  A    between atoms: C_18  and  C_19
REMARK    8  A    between atoms: C_22  and  S_25
REMARK                            x       y       z     vdW  Elec       q    Type
REMARK                         _______ _______ _______ _____ _____    ______ ____
ROOT
ATOM     13  C   UNL     1      -4.179 -10.702  13.435  0.00  0.00    +0.166 C 
ATOM     14  O   UNL     1      -3.464 -10.746  13.844  0.00  0.00    -0.350 OA
ATOM     15  C   UNL     1      -3.633 -10.781  14.650  0.00  0.00    +0.162 C 
ATOM     16  C   UNL     1      -4.453 -10.759  14.740  0.00  0.00    +0.135 C 
ATOM     29  C   UNL     1      -4.790 -10.710  13.990  0.00  0.00    +0.199 C 
ATOM     30  O   UNL     1      -5.597 -10.675  13.822  0.00  0.00    -0.219 OA
ENDROOT
BRANCH  13  12
ATOM     12  C   UNL     1      -4.268 -10.658  12.616  0.00  0.00    +0.148 C 
BRANCH  12  11
ATOM     11  N   UNL     1      -3.833 -10.107  12.184  0.00  0.00    -0.075 NA
BRANCH  11   8
ATOM      8  S   UNL     1      -3.995  -9.990  11.382  0.00  0.00    +0.077 S 
ATOM      9  O   UNL     1      -3.481 -10.606  11.189  0.00  0.00    -0.152 OA
ATOM     10  O   UNL     1      -4.509  -9.374  11.576  0.00  0.00    -0.152 OA
BRANCH   8   5
ATOM      1  C   UNL     1      -4.643  -9.524   8.180  0.00  0.00    +0.031 C 
ATOM      2  C   UNL     1      -4.481  -9.641   8.982  0.00  0.00    -0.022 A 
ATOM      3  C   UNL     1      -3.979  -9.121   9.381  0.00  0.00    -0.003 A 
ATOM      4  C   UNL     1      -3.818  -9.237  10.181  0.00  0.00    +0.020 A 
ATOM      5  C   UNL     1      -4.157  -9.874  10.583  0.00  0.00    +0.124 A 
ATOM      6  C   UNL     1      -4.657 -10.393  10.183  0.00  0.00    +0.020 A 
ATOM      7  C   UNL     1      -4.819 -10.277   9.382  0.00  0.00    -0.003 A 
ENDBRANCH   8   5
ENDBRANCH  11   8
ENDBRANCH  12  11
ENDBRANCH  13  12
BRANCH  16  17
ATOM     17  N   UNL     1      -4.863 -10.781  15.456  0.00  0.00    -0.209 NA
BRANCH  17  18
ATOM     18  C   UNL     1      -4.628 -10.296  16.082  0.00  0.00    +0.115 C 
BRANCH  18  19
ATOM     19  C   UNL     1      -4.968 -10.392  16.827  0.00  0.00    -0.005 A 
ATOM     20  C   UNL     1      -5.786 -10.331  16.918  0.00  0.00    -0.002 A 
ATOM     21  C   UNL     1      -6.126 -10.427  17.663  0.00  0.00    +0.018 A 
ATOM     22  C   UNL     1      -5.649 -10.583  18.318  0.00  0.00    +0.106 A 
ATOM     23  C   UNL     1      -4.831 -10.644  18.227  0.00  0.00    +0.018 A 
ATOM     24  C   UNL     1      -4.491 -10.548  17.481  0.00  0.00    -0.002 A 
BRANCH  22  25
ATOM     25  S   UNL     1      -5.989 -10.679  19.063  0.00  0.00    +0.010 S 
ATOM     26  C   UNL     1      -6.330 -10.774  19.809  0.00  0.00    +0.182 C 
ATOM     27  O   UNL     1      -5.240 -10.768  19.395  0.00  0.00    -0.169 OA
ATOM     28  O   UNL     1      -6.739 -10.589  18.732  0.00  0.00    -0.169 OA
ENDBRANCH  22  25
ENDBRANCH  18  19
ENDBRANCH  17  18
ENDBRANCH  16  17
TORSDOF 8
ENDMDL
MODEL 5
REMARK VINA RESULT:      -5.5     15.363     16.524
REMARK  Name = 
REMARK  8 active torsions:
REMARK  status: ('A' for Active; 'I' for Inactive)
REMARK    1  A    between atoms: C_5  and  S_8
REMARK    2  A    between atoms: S_8  and  N_11
REMARK    3  A    between atoms: N_11  and  C_12
REMARK    4  A    between atoms: C_12  and  C_13
REMARK    5  A    between atoms: C_16  and  N_17
REMARK    6  A    between atoms: N_17  and  C_18
REMARK    7  A    between atoms: C_18  and  C_19
REMARK    8  A    between atoms: C_22  and  S_25
REMARK                            x       y       z     vdW  Elec       q    Type
REMARK                         _______ _______ _______ _____ _____    ______ ____
ROOT
ATOM     13  C   UNL     1      -6.819 -10.160  14.699  0.00  0.00    +0.166 C 
ATOM     14  O   UNL     1      -7.565  -9.925  14.439  0.00  0.00    -0.350 OA
ATOM     15  C   UNL     1      -7.523  -9.797  13.626  0.00  0.00    +0.162 C 
ATOM     16  C   UNL     1      -6.750  -9.952  13.383  0.00  0.00    +0.135 C 
ATOM     29  C   UNL     1      -6.315 -10.176  14.045  0.00  0.00    +0.199 C 
ATOM     30  O   UNL     1      -5.516 -10.381  14.055  0.00  0.00    -0.219 OA
ENDROOT
BRANCH  13  12
ATOM     12  C   UNL     1      -6.612 -10.346  15.476  0.00  0.00    +0.148 C 
BRANCH  12  11
ATOM     11  N   UNL     1      -6.962  -9.942  16.103  0.00  0.00    -0.075 NA
BRANCH  11   8
ATOM      8  S   UNL     1      -6.735 -10.110  16.880  0.00  0.00    +0.077 S 
ATOM      9  O   UNL     1      -7.215 -10.781  16.874  0.00  0.00    -0.152 OA
ATOM     10  O   UNL     1      -6.256  -9.439  16.885  0.00  0.00    -0.152 OA
BRANCH   8   5
ATOM      1  C   UNL     1      -5.832 -10.781  19.982  0.00  0.00    +0.031 C 
ATOM      2  C   UNL     1      -6.058 -10.613  19.205  0.00  0.00    -0.022 A 
ATOM      3  C   UNL     1      -6.822 -10.343  19.048  0.00  0.00    -0.003 A 
ATOM      4  C   UNL     1      -7.047 -10.175  18.272  0.00  0.00    +0.020 A 
ATOM      5  C   UNL     1      -6.510 -10.278  17.654  0.00  0.00    +0.124 A 
ATOM      6  C   UNL     1      -5.747 -10.548  17.813  0.00  0.00    +0.020 A 
ATOM      7  C   UNL     1      -5.521 -10.716  18.588  0.00  0.00    -0.003 A 
ENDBRANCH   8   5
ENDBRANCH  11   8
ENDBRANCH  12  11
ENDBRANCH  13  12
BRANCH  16  17
ATOM     17  N   UNL     1      -6.463  -9.892  12.611  0.00  0.00    -0.209 NA
BRANCH  17  18
ATOM     18  C   UNL     1      -6.670  -9.245  12.142  0.00  0.00    +0.115 C 
BRANCH  18  19
ATOM     19  C   UNL     1      -6.477  -9.238  11.341  0.00  0.00    -0.005 A 
ATOM     20  C   UNL     1      -7.021  -9.511  10.783  0.00  0.00    -0.002 A 
ATOM     21  C   UNL     1      -6.828  -9.504   9.981  0.00  0.00    +0.018 A 
ATOM     22  C   UNL     1      -6.091  -9.225   9.736  0.00  0.00    +0.106 A 
ATOM     23  C   UNL     1      -5.548  -8.952  10.294  0.00  0.00    +0.018 A 
ATOM     24  C   UNL     1      -5.741  -8.959  11.096  0.00  0.00    -0.002 A 
BRANCH  22  25
ATOM     25  S   UNL     1      -5.897  -9.218   8.935  0.00  0.00    +0.010 S 
ATOM     26  C   UNL     1      -5.704  -9.212   8.132  0.00  0.00    +0.182 C 
ATOM     27  O   UNL     1      -6.372  -8.554   8.825  0.00  0.00    -0.169 OA
ATOM     28  O   UNL     1      -5.422  -9.884   9.044  0.00  0.00    -0.169 OA
ENDBRANCH  22  25
ENDBRANCH  18  19
ENDBRANCH  17  18
ENDBRANCH  16  17
TORSDOF 8
ENDMDL
MODEL 6
REMARK VINA RESULT:      -5.4     15.282     17.228
REMARK  Name = 
REMARK  8 active torsions:
REMARK  status: ('A' for Active; 'I' for Inactive)
REMARK    1  A    between atoms: C_5  and  S_8
REMARK    2  A    between atoms: S_8  and  N_11
REMARK    3  A    between atoms: N_11  and  C_12
REMARK    4  A    between atoms: C_12  and  C_13
REMARK    5  A    between atoms: C_16  and  N_17
REMARK    6  A    between atoms: N_17  and  C_18
REMARK    7  A    between atoms: C_18  and  C_19
REMARK    8  A    between atoms: C_22  and  S_25
REMARK                            x       y       z     vdW  Elec       q    Type
REMARK                         _______ _______ _______ _____ _____    ______ ____
ROOT
ATOM     13  C   UNL     1      -6.049  -9.988  13.575  0.00  0.00    +0.166 C 
ATOM     14  O   UNL     1      -5.487  -9.969  14.179  0.00  0.00    -0.350 OA
ATOM     15  C   UNL     1      -5.885 -10.028  14.898  0.00  0.00    +0.162 C 
ATOM     16  C   UNL     1      -6.693 -10.084  14.740  0.00  0.00    +0.135 C 
ATOM     29  C   UNL     1      -6.795 -10.059  13.922  0.00  0.00    +0.199 C 
ATOM     30  O   UNL     1      -7.514 -10.098  13.522  0.00  0.00    -0.219 OA
ENDROOT
BRANCH  13  12
ATOM     12  C   UNL     1      -5.894  -9.943  12.766  0.00  0.00    +0.148 C 
BRANCH  12  11
ATOM     11  N   UNL     1      -5.124  -9.812  12.501  0.00  0.00    -0.075 NA
BRANCH  11   8
ATOM      8  S   UNL     1      -4.972  -9.745  11.692  0.00  0.00    +0.077 S 
ATOM      9  O   UNL     1      -5.195  -8.951  11.716  0.00  0.00    -0.152 OA
ATOM     10  O   UNL     1      -4.749 -10.539  11.668  0.00  0.00    -0.152 OA
BRANCH   8   5
ATOM      1  C   UNL     1      -4.364  -9.477   8.459  0.00  0.00    +0.031 C 
ATOM      2  C   UNL     1      -4.517  -9.544   9.268  0.00  0.00    -0.022 A 
ATOM      3  C   UNL     1      -5.225  -9.877   9.528  0.00  0.00    -0.003 A 
ATOM      4  C   UNL     1      -5.377  -9.944  10.336  0.00  0.00    +0.020 A 
ATOM      5  C   UNL     1      -4.820  -9.678  10.885  0.00  0.00    +0.124 A 
ATOM      6  C   UNL     1      -4.112  -9.346  10.624  0.00  0.00    +0.020 A 
ATOM      7  C   UNL     1      -3.960  -9.279   9.816  0.00  0.00    -0.003 A 
ENDBRANCH   8   5
ENDBRANCH  11   8
ENDBRANCH  12  11
ENDBRANCH  13  12
BRANCH  16  17
ATOM     17  N   UNL     1      -7.293 -10.153  15.302  0.00  0.00    -0.209 NA
BRANCH  17  18
ATOM     18  C   UNL     1      -7.143  -9.966  16.092  0.00  0.00    +0.115 C 
BRANCH  18  19
ATOM     19  C   UNL     1      -7.751 -10.007  16.648  0.00  0.00    -0.005 A 
ATOM     20  C   UNL     1      -8.082  -9.313  16.948  0.00  0.00    -0.002 A 
ATOM     21  C   UNL     1      -8.690  -9.354  17.504  0.00  0.00    +0.018 A 
ATOM     22  C   UNL     1      -8.967 -10.088  17.760  0.00  0.00    +0.106 A 
ATOM     23  C   UNL     1      -8.636 -10.781  17.459  0.00  0.00    +0.018 A 
ATOM     24  C   UNL     1      -8.028 -10.740  16.903  0.00  0.00    -0.002 A 
BRANCH  22  25
ATOM     25  S   UNL     1      -9.575 -10.129  18.316  0.00  0.00    +0.010 S 
ATOM     26  C   UNL     1     -10.184 -10.169  18.872  0.00  0.00    +0.182 C 
ATOM     27  O   UNL     1      -9.055 -10.462  18.861  0.00  0.00    -0.169 OA
ATOM     28  O   UNL     1     -10.096  -9.795  17.769  0.00  0.00    -0.169 OA
ENDBRANCH  22  25
ENDBRANCH  18  19
ENDBRANCH  17  18
ENDBRANCH  16  17
TORSDOF 8
ENDMDL
MODEL 7
REMARK VINA RESULT:      -5.3     15.346     16.233
REMARK  Name = 
REMARK  8 active torsions:
REMARK  status: ('A' for Active; 'I' for Inactive)
REMARK    1  A    between atoms: C_5  and  S_8
REMARK    2  A    between atoms: S_8  and  N_11
REMARK    3  A    between atoms: N_11  and  C_12
REMARK    4  A    between atoms: C_12  and  C_13
REMARK    5  A    between atoms: C_16  and  N_17
REMARK    6  A    between atoms: N_17  and  C_18
REMARK    7  A    between atoms: C_18  and  C_19
REMARK    8  A    between atoms: C_22  and  S_25
REMARK                            x       y       z     vdW  Elec       q    Type
REMARK                         _______ _______ _______ _____ _____    ______ ____
ROOT
ATOM     13  C   UNL     1      -7.009 -10.020  14.822  0.00  0.00    +0.166 C 
ATOM     14  O   UNL     1      -6.210 -10.063  15.023  0.00  0.00    -0.350 OA
ATOM     15  C   UNL     1      -5.770 -10.034  14.326  0.00  0.00    +0.162 C 
ATOM     16  C   UNL     1      -6.297  -9.974  13.694  0.00  0.00    +0.135 C 
ATOM     29  C   UNL     1      -7.062  -9.965  14.000  0.00  0.00    +0.199 C 
ATOM     30  O   UNL     1      -7.759  -9.911  13.562  0.00  0.00    -0.219 OA
ENDROOT
BRANCH  13  12
ATOM     12  C   UNL     1      -7.643 -10.031  15.349  0.00  0.00    +0.148 C 
BRANCH  12  11
ATOM     11  N   UNL     1      -7.516  -9.885  16.150  0.00  0.00    -0.075 NA
BRANCH  11   8
ATOM      8  S   UNL     1      -8.157  -9.837  16.669  0.00  0.00    +0.077 S 
ATOM      9  O   UNL     1      -8.019  -9.030  16.765  0.00  0.00    -0.152 OA
ATOM     10  O   UNL     1      -8.295 -10.645  16.572  0.00  0.00    -0.152 OA
BRANCH   8   5
ATOM      1  C   UNL     1     -10.719  -9.648  18.740  0.00  0.00    +0.031 C 
ATOM      2  C   UNL     1     -10.078  -9.695  18.221  0.00  0.00    -0.022 A 
ATOM      3  C   UNL     1     -10.059  -9.222  17.545  0.00  0.00    -0.003 A 
ATOM      4  C   UNL     1      -9.418  -9.270  17.028  0.00  0.00    +0.020 A 
ATOM      5  C   UNL     1      -8.797  -9.790  17.186  0.00  0.00    +0.124 A 
ATOM      6  C   UNL     1      -8.818 -10.263  17.862  0.00  0.00    +0.020 A 
ATOM      7  C   UNL     1      -9.458 -10.215  18.379  0.00  0.00    -0.003 A 
ENDBRANCH   8   5
ENDBRANCH  11   8
ENDBRANCH  12  11
ENDBRANCH  13  12
BRANCH  16  17
ATOM     17  N   UNL     1      -6.093  -9.929  12.896  0.00  0.00    -0.209 NA
BRANCH  17  18
ATOM     18  C   UNL     1      -5.317  -9.749  12.677  0.00  0.00    +0.115 C 
BRANCH  18  19
ATOM     19  C   UNL     1      -5.124  -9.658  11.880  0.00  0.00    -0.005 A 
ATOM     20  C   UNL     1      -5.245  -8.932  11.507  0.00  0.00    -0.002 A 
ATOM     21  C   UNL     1      -5.052  -8.841  10.711  0.00  0.00    +0.018 A 
ATOM     22  C   UNL     1      -4.739  -9.476  10.286  0.00  0.00    +0.106 A 
ATOM     23  C   UNL     1      -4.618 -10.202  10.660  0.00  0.00    +0.018 A 
ATOM     24  C   UNL     1      -4.811 -10.292  11.457  0.00  0.00    -0.002 A 
BRANCH  22  25
ATOM     25  S   UNL     1      -4.546  -9.385   9.490  0.00  0.00    +0.010 S 
ATOM     26  C   UNL     1      -4.352  -9.294   8.692  0.00  0.00    +0.182 C 
ATOM     27  O   UNL     1      -5.252  -9.752   9.276  0.00  0.00    -0.169 OA
ATOM     28  O   UNL     1      -3.838  -9.017   9.704  0.00  0.00    -0.169 OA
ENDBRANCH  22  25
ENDBRANCH  18  19
ENDBRANCH  17  18
ENDBRANCH  16  17
TORSDOF 8
ENDMDL
MODEL 8
REMARK VINA RESULT:      -5.2     14.833     16.826
REMARK  Name = 
REMARK  8 active torsions:
REMARK  status: ('A' for Active; 'I' for Inactive)
REMARK    1  A    between atoms: C_5  and  S_8
REMARK    2  A    between atoms: S_8  and  N_11
REMARK    3  A    between atoms: N_11  and  C_12
REMARK    4  A    between atoms: C_12  and  C_13
REMARK    5  A    between atoms: C_16  and  N_17
REMARK    6  A    between atoms: N_17  and  C_18
REMARK    7  A    between atoms: C_18  and  C_19
REMARK    8  A    between atoms: C_22  and  S_25
REMARK                            x       y       z     vdW  Elec       q    Type
REMARK                         _______ _______ _______ _____ _____    ______ ____
ROOT
ATOM     13  C   UNL     1      -5.037 -10.319  13.699  0.00  0.00    +0.166 C 
ATOM     14  O   UNL     1      -4.917 -10.779  14.373  0.00  0.00    -0.350 OA
ATOM     15  C   UNL     1      -5.568 -10.679  14.869  0.00  0.00    +0.162 C 
ATOM     16  C   UNL     1      -6.091 -10.156  14.502  0.00  0.00    +0.135 C 
ATOM     29  C   UNL     1      -5.763  -9.934  13.779  0.00  0.00    +0.199 C 
ATOM     30  O   UNL     1      -6.100  -9.417  13.232  0.00  0.00    -0.219 OA
ENDROOT
BRANCH  13  12
ATOM     12  C   UNL     1      -4.522 -10.254  13.058  0.00  0.00    +0.148 C 
BRANCH  12  11
ATOM     11  N   UNL     1      -3.805 -10.660  13.064  0.00  0.00    -0.075 NA
BRANCH  11   8
ATOM      8  S   UNL     1      -3.167 -10.377  12.622  0.00  0.00    +0.077 S 
ATOM      9  O   UNL     1      -3.607 -10.464  11.930  0.00  0.00    -0.152 OA
ATOM     10  O   UNL     1      -2.726 -10.290  13.314  0.00  0.00    -0.152 OA
BRANCH   8   5
ATOM      1  C   UNL     1      -0.618  -9.246  10.857  0.00  0.00    +0.031 C 
ATOM      2  C   UNL     1      -1.256  -9.529  11.299  0.00  0.00    -0.022 A 
ATOM      3  C   UNL     1      -2.021  -9.486  10.992  0.00  0.00    -0.003 A 
ATOM      4  C   UNL     1      -2.658  -9.769  11.433  0.00  0.00    +0.020 A 
ATOM      5  C   UNL     1      -2.530 -10.095  12.181  0.00  0.00    +0.124 A 
ATOM      6  C   UNL     1      -1.765 -10.138  12.486  0.00  0.00    +0.020 A 
ATOM      7  C   UNL     1      -1.128  -9.855  12.045  0.00  0.00    -0.003 A 
ENDBRANCH   8   5
ENDBRANCH  11   8
ENDBRANCH  12  11
ENDBRANCH  13  12
BRANCH  16  17
ATOM     17  N   UNL     1      -6.815  -9.901  14.805  0.00  0.00    -0.209 NA
BRANCH  17  18
ATOM     18  C   UNL     1      -7.082 -10.187  15.532  0.00  0.00    +0.115 C 
BRANCH  18  19
ATOM     19  C   UNL     1      -7.710  -9.815  15.916  0.00  0.00    -0.005 A 
ATOM     20  C   UNL     1      -7.569  -9.355  16.586  0.00  0.00    -0.002 A 
ATOM     21  C   UNL     1      -8.197  -8.983  16.970  0.00  0.00    +0.018 A 
ATOM     22  C   UNL     1      -8.967  -9.071  16.683  0.00  0.00    +0.106 A 
ATOM     23  C   UNL     1      -9.107  -9.532  16.013  0.00  0.00    +0.018 A 
ATOM     24  C   UNL     1      -8.478  -9.903  15.630  0.00  0.00    -0.002 A 
BRANCH  22  25
ATOM     25  S   UNL     1      -9.595  -8.699  17.067  0.00  0.00    +0.010 S 
ATOM     26  C   UNL     1     -10.224  -8.326  17.450  0.00  0.00    +0.182 C 
ATOM     27  O   UNL     1      -9.429  -9.124  17.753  0.00  0.00    -0.169 OA
ATOM     28  O   UNL     1      -9.761  -8.273  16.380  0.00  0.00    -0.169 OA
ENDBRANCH  22  25
ENDBRANCH  18  19
ENDBRANCH  17  18
ENDBRANCH  16  17
TORSDOF 8
ENDMDL
MODEL 9
REMARK VINA RESULT:      -5.0     16.427     17.184
REMARK  Name = 
REMARK  8 active torsions:
REMARK  status: ('A' for Active; 'I' for Inactive)
REMARK    1  A    between atoms: C_5  and  S_8
REMARK    2  A    between atoms: S_8  and  N_11
REMARK    3  A    between atoms: N_11  and  C_12
REMARK    4  A    between atoms: C_12  and  C_13
REMARK    5  A    between atoms: C_16  and  N_17
REMARK    6  A    between atoms: N_17  and  C_18
REMARK    7  A    between atoms: C_18  and  C_19
REMARK    8  A    between atoms: C_22  and  S_25
REMARK                            x       y       z     vdW  Elec       q    Type
REMARK                         _______ _______ _______ _____ _____    ______ ____
ROOT
ATOM     13  C   UNL     1      -5.256  -9.760  10.385  0.00  0.00    +0.166 C 
ATOM     14  O   UNL     1      -4.569 -10.039  10.024  0.00  0.00    -0.350 OA
ATOM     15  C   UNL     1      -4.033 -10.240  10.618  0.00  0.00    +0.162 C 
ATOM     16  C   UNL     1      -4.389 -10.084  11.346  0.00  0.00    +0.135 C 
ATOM     29  C   UNL     1      -5.144  -9.788  11.202  0.00  0.00    +0.199 C 
ATOM     30  O   UNL     1      -5.692  -9.559  11.774  0.00  0.00    -0.219 OA
ENDROOT
BRANCH  13  12
ATOM     12  C   UNL     1      -5.936  -9.498   9.997  0.00  0.00    +0.148 C 
BRANCH  12  11
ATOM     11  N   UNL     1      -5.876  -8.939   9.394  0.00  0.00    -0.075 NA
BRANCH  11   8
ATOM      8  S   UNL     1      -6.550  -8.533   9.140  0.00  0.00    +0.077 S 
ATOM      9  O   UNL     1      -6.190  -7.816   9.333  0.00  0.00    -0.152 OA
ATOM     10  O   UNL     1      -6.909  -9.250   8.947  0.00  0.00    -0.152 OA
BRANCH   8   5
ATOM      1  C   UNL     1      -9.239  -6.913   8.124  0.00  0.00    +0.031 C 
ATOM      2  C   UNL     1      -8.566  -7.319   8.378  0.00  0.00    -0.022 A 
ATOM      3  C   UNL     1      -7.817  -7.062   8.144  0.00  0.00    -0.003 A 
ATOM      4  C   UNL     1      -7.145  -7.467   8.398  0.00  0.00    +0.020 A 
ATOM      5  C   UNL     1      -7.221  -8.129   8.886  0.00  0.00    +0.124 A 
ATOM      6  C   UNL     1      -7.970  -8.384   9.120  0.00  0.00    +0.020 A 
ATOM      7  C   UNL     1      -8.642  -7.979   8.866  0.00  0.00    -0.003 A 
ENDBRANCH   8   5
ENDBRANCH  11   8
ENDBRANCH  12  11
ENDBRANCH  13  12
BRANCH  16  17
ATOM     17  N   UNL     1      -4.048 -10.205  12.088  0.00  0.00    -0.209 NA
BRANCH  17  18
ATOM     18  C   UNL     1      -3.236 -10.340  12.152  0.00  0.00    +0.115 C 
BRANCH  18  19
ATOM     19  C   UNL     1      -2.886 -10.400  12.896  0.00  0.00    -0.005 A 
ATOM     20  C   UNL     1      -3.347 -10.586  13.554  0.00  0.00    -0.002 A 
ATOM     21  C   UNL     1      -2.997 -10.647  14.299  0.00  0.00    +0.018 A 
ATOM     22  C   UNL     1      -2.186 -10.522  14.385  0.00  0.00    +0.106 A 
ATOM     23  C   UNL     1      -1.725 -10.336  13.726  0.00  0.00    +0.018 A 
ATOM     24  C   UNL     1      -2.075 -10.276  12.982  0.00  0.00    -0.002 A 
BRANCH  22  25
ATOM     25  S   UNL     1      -1.836 -10.583  15.130  0.00  0.00    +0.010 S 
ATOM     26  C   UNL     1      -1.485 -10.643  15.874  0.00  0.00    +0.182 C 
ATOM     27  O   UNL     1      -2.578 -10.692  15.471  0.00  0.00    -0.169 OA
ATOM     28  O   UNL     1      -1.092 -10.473  14.788  0.00  0.00    -0.169 OA
ENDBRANCH  22  25
ENDBRANCH  18  19
ENDBRANCH  17  18
ENDBRANCH  16  17
TORSDOF 8
ENDMDL
MODEL 10
REMARK VINA RESULT:      -4.9     15.622     16.835
REMARK  Name = 
REMARK  8 active torsions:
REMARK  status: ('A' for Active; 'I' for Inactive)
REMARK    1  A    between atoms: C_5  and  S_8
REMARK    2  A    between atoms: S_8  and  N_11
REMARK    3  A    between atoms: N_11  and  C_12
REMARK    4  A    between atoms: C_12  and  C_13
REMARK    5  A    between atoms: C_16  and  N_17
REMARK    6  A    between atoms: N_17  and  C_18
REMARK    7  A    between atoms: C_18  and  C_19
REMARK    8  A    between atoms: C_22  and  S_25
REMARK                            x       y       z     vdW  Elec       q    Type
REMARK                         _______ _______ _______ _____ _____    ______ ____
ROOT
ATOM     13  C   UNL     1      -6.186 -10.097  12.935  0.00  0.00    +0.166 C 
ATOM     14  O   UNL     1      -5.383  -9.941  13.040  0.00  0.00    -0.350 OA
ATOM     15  C   UNL     1      -5.209 -10.033  13.841  0.00  0.00    +0.162 C 
ATOM     16  C   UNL     1      -5.905 -10.245  14.231  0.00  0.00    +0.135 C 
ATOM     29  C   UNL     1      -6.509 -10.284  13.671  0.00  0.00    +0.199 C 
ATOM     30  O   UNL     1      -7.296 -10.477  13.820  0.00  0.00    -0.219 OA
ENDROOT
BRANCH  13  12
ATOM     12  C   UNL     1      -6.596 -10.070  12.219  0.00  0.00    +0.148 C 
BRANCH  12  11
ATOM     11  N   UNL     1      -6.260  -9.695  11.566  0.00  0.00    -0.075 NA
BRANCH  11   8
ATOM      8  S   UNL     1      -6.706  -9.582  10.880  0.00  0.00    +0.077 S 
ATOM      9  O   UNL     1      -6.824  -8.793  11.086  0.00  0.00    -0.152 OA
ATOM     10  O   UNL     1      -6.587 -10.372  10.674  0.00  0.00    -0.152 OA
BRANCH   8   5
ATOM      1  C   UNL     1      -8.487  -9.134   8.138  0.00  0.00    +0.031 C 
ATOM      2  C   UNL     1      -8.041  -9.246   8.825  0.00  0.00    -0.022 A 
ATOM      3  C   UNL     1      -7.486  -9.856   8.860  0.00  0.00    -0.003 A 
ATOM      4  C   UNL     1      -7.041  -9.968   9.546  0.00  0.00    +0.020 A 
ATOM      5  C   UNL     1      -7.150  -9.470  10.195  0.00  0.00    +0.124 A 
ATOM      6  C   UNL     1      -7.705  -8.861  10.159  0.00  0.00    +0.020 A 
ATOM      7  C   UNL     1      -8.151  -8.749   9.473  0.00  0.00    -0.003 A 
ENDBRANCH   8   5
ENDBRANCH  11   8
ENDBRANCH  12  11
ENDBRANCH  13  12
BRANCH  16  17
ATOM     17  N   UNL     1      -5.982 -10.391  15.040  0.00  0.00    -0.209 NA
BRANCH  17  18
ATOM     18  C   UNL     1      -5.517  -9.977  15.581  0.00  0.00    +0.115 C 
BRANCH  18  19
ATOM     19  C   UNL     1      -5.584 -10.134  16.387  0.00  0.00    -0.005 A 
ATOM     20  C   UNL     1      -6.279  -9.944  16.788  0.00  0.00    -0.002 A 
ATOM     21  C   UNL     1      -6.346 -10.101  17.595  0.00  0.00    +0.018 A 
ATOM     22  C   UNL     1      -5.718 -10.450  18.002  0.00  0.00    +0.106 A 
ATOM     23  C   UNL     1      -5.023 -10.640  17.600  0.00  0.00    +0.018 A 
ATOM     24  C   UNL     1      -4.956 -10.483  16.793  0.00  0.00    -0.002 A 
BRANCH  22  25
ATOM     25  S   UNL     1      -5.785 -10.607  18.808  0.00  0.00    +0.010 S 
ATOM     26  C   UNL     1      -5.853 -10.765  19.616  0.00  0.00    +0.182 C 
ATOM     27  O   UNL     1      -4.980 -10.781  18.842  0.00  0.00    -0.169 OA
ATOM     28  O   UNL     1      -6.591 -10.433  18.775  0.00  0.00    -0.169 OA
ENDBRANCH  22  25
ENDBRANCH  18  19
ENDBRANCH  17  18
ENDBRANCH  16  17
TORSDOF 8
ENDMDL
