MODEL 1
REMARK VINA RESULT:      -9.9      0.000      0.000
REMARK  Name = 
REMARK  4 active torsions:
REMARK  status: ('A' for Active; 'I' for Inactive)
REMARK    1  A    between atoms: N_4  and  C_5
REMARK    2  A    between atoms: C_8  and  S_11
REMARK    3  A    between atoms: S_11  and  N_14
REMARK    4  A    between atoms: N_14  and  C_15
REMARK                            x       y       z     vdW  Elec       q    Type
REMARK                         _______ _______ _______ _____ _____    ______ ____
ROOT
ATOM     11  S   UNL     1      -4.065   1.046  24.424  0.00  0.00    +0.077 S 
ATOM     12  O   UNL     1      -4.515   1.178  25.103  0.00  0.00    -0.152 OA
ATOM     13  O   UNL     1      -3.615   0.915  23.745  0.00  0.00    -0.152 OA
ENDROOT
BRANCH  11   8
ATOM      5  C   UNL     1      -3.038   3.285  24.668  0.00  0.00    +0.073 A 
ATOM      6  C   UNL     1      -3.687   3.076  25.132  0.00  0.00    +0.018 A 
ATOM      7  C   UNL     1      -4.030   2.330  25.051  0.00  0.00    +0.021 A 
ATOM      8  C   UNL     1      -3.723   1.793  24.506  0.00  0.00    +0.124 A 
ATOM      9  C   UNL     1      -3.073   2.001  24.041  0.00  0.00    +0.021 A 
ATOM     10  C   UNL     1      -2.731   2.747  24.123  0.00  0.00    +0.018 A 
BRANCH   5   4
ATOM      1  C   UNL     1      -1.704   4.881  25.329  0.00  0.00    +0.097 C 
ATOM      2  C   UNL     1      -2.047   4.135  25.248  0.00  0.00    +0.246 C 
ATOM      3  O   UNL     1      -1.741   3.494  25.666  0.00  0.00    -0.273 OA
ATOM      4  N   UNL     1      -2.695   4.031  24.749  0.00  0.00    -0.179 NA
ENDBRANCH   5   4
ENDBRANCH  11   8
BRANCH  11  14
ATOM     14  N   UNL     1      -4.407   0.300  24.342  0.00  0.00    -0.074 NA
BRANCH  14  15
ATOM     15  C   UNL     1      -4.061  -0.355  24.705  0.00  0.00    +0.157 C 
ATOM     16  C   UNL     1      -3.638  -0.350  25.413  0.00  0.00    +0.164 C 
ATOM     17  O   UNL     1      -3.393  -1.122  25.569  0.00  0.00    -0.349 OA
ATOM     18  C   UNL     1      -3.663  -1.604  24.958  0.00  0.00    +0.176 C 
ATOM     19  C   UNL     1      -3.679  -2.379  24.675  0.00  0.00    +0.211 C 
ATOM     20  O   UNL     1      -3.333  -3.034  25.038  0.00  0.00    -0.218 OA
ATOM     21  C   UNL     1      -4.102  -2.384  23.967  0.00  0.00    +0.178 C 
ATOM     22  O   UNL     1      -4.347  -1.613  23.811  0.00  0.00    -0.349 OA
ATOM     23  C   UNL     1      -4.076  -1.130  24.423  0.00  0.00    +0.165 C 
ENDBRANCH  14  15
ENDBRANCH  11  14
TORSDOF 4
ENDMDL
MODEL 2
REMARK VINA RESULT:      -9.6      1.105      4.836
REMARK  Name = 
REMARK  4 active torsions:
REMARK  status: ('A' for Active; 'I' for Inactive)
REMARK    1  A    between atoms: N_4  and  C_5
REMARK    2  A    between atoms: C_8  and  S_11
REMARK    3  A    between atoms: S_11  and  N_14
REMARK    4  A    between atoms: N_14  and  C_15
REMARK                            x       y       z     vdW  Elec       q    Type
REMARK                         _______ _______ _______ _____ _____    ______ ____
ROOT
ATOM     11  S   UNL     1      -3.584   1.509  24.423  0.00  0.00    +0.077 S 
ATOM     12  O   UNL     1      -3.415   1.461  23.617  0.00  0.00    -0.152 OA
ATOM     13  O   UNL     1      -3.754   1.556  25.229  0.00  0.00    -0.152 OA
ENDROOT
BRANCH  11   8
ATOM      5  C   UNL     1      -3.929  -0.941  24.495  0.00  0.00    +0.073 A 
ATOM      6  C   UNL     1      -3.856  -0.514  25.196  0.00  0.00    +0.018 A 
ATOM      7  C   UNL     1      -3.741   0.303  25.173  0.00  0.00    +0.021 A 
ATOM      8  C   UNL     1      -3.699   0.693  24.447  0.00  0.00    +0.124 A 
ATOM      9  C   UNL     1      -3.773   0.266  23.744  0.00  0.00    +0.021 A 
ATOM     10  C   UNL     1      -3.888  -0.551  23.769  0.00  0.00    +0.018 A 
BRANCH   5   4
ATOM      1  C   UNL     1      -3.511  -3.083  24.524  0.00  0.00    +0.097 C 
ATOM      2  C   UNL     1      -3.396  -2.266  24.500  0.00  0.00    +0.246 C 
ATOM      3  O   UNL     1      -2.632  -1.959  24.459  0.00  0.00    -0.273 OA
ATOM      4  N   UNL     1      -4.044  -1.757  24.518  0.00  0.00    -0.179 NA
ENDBRANCH   5   4
ENDBRANCH  11   8
BRANCH  11  14
ATOM     14  N   UNL     1      -3.469   2.326  24.399  0.00  0.00    -0.074 NA
BRANCH  14  15
ATOM     15  C   UNL     1      -2.712   2.639  24.492  0.00  0.00    +0.157 C 
ATOM     16  C   UNL     1      -2.007   2.283  24.254  0.00  0.00    +0.164 C 
ATOM     17  O   UNL     1      -1.386   2.787  24.455  0.00  0.00    -0.349 OA
ATOM     18  C   UNL     1      -1.706   3.455  24.817  0.00  0.00    +0.176 C 
ATOM     19  C   UNL     1      -1.522   4.179  25.166  0.00  0.00    +0.211 C 
ATOM     20  O   UNL     1      -0.764   4.493  25.259  0.00  0.00    -0.218 OA
ATOM     21  C   UNL     1      -2.226   4.536  25.405  0.00  0.00    +0.178 C 
ATOM     22  O   UNL     1      -2.847   4.031  25.204  0.00  0.00    -0.349 OA
ATOM     23  C   UNL     1      -2.526   3.363  24.841  0.00  0.00    +0.165 C 
ENDBRANCH  14  15
ENDBRANCH  11  14
TORSDOF 4
ENDMDL
MODEL 3
REMARK VINA RESULT:      -9.1      1.996      2.313
REMARK  Name = 
REMARK  4 active torsions:
REMARK  status: ('A' for Active; 'I' for Inactive)
REMARK    1  A    between atoms: N_4  and  C_5
REMARK    2  A    between atoms: C_8  and  S_11
REMARK    3  A    between atoms: S_11  and  N_14
REMARK    4  A    between atoms: N_14  and  C_15
REMARK                            x       y       z     vdW  Elec       q    Type
REMARK                         _______ _______ _______ _____ _____    ______ ____
ROOT
ATOM     11  S   UNL     1      -0.889   0.761  24.960  0.00  0.00    +0.077 S 
ATOM     12  O   UNL     1      -0.944   0.736  25.782  0.00  0.00    -0.152 OA
ATOM     13  O   UNL     1      -0.834   0.786  24.137  0.00  0.00    -0.152 OA
ENDROOT
BRANCH  11   8
ATOM      5  C   UNL     1      -0.786   3.232  25.039  0.00  0.00    +0.073 A 
ATOM      6  C   UNL     1      -0.746   2.796  25.737  0.00  0.00    +0.018 A 
ATOM      7  C   UNL     1      -0.780   1.971  25.711  0.00  0.00    +0.021 A 
ATOM      8  C   UNL     1      -0.855   1.585  24.986  0.00  0.00    +0.124 A 
ATOM      9  C   UNL     1      -0.895   2.022  24.287  0.00  0.00    +0.021 A 
ATOM     10  C   UNL     1      -0.861   2.845  24.314  0.00  0.00    +0.018 A 
BRANCH   5   4
ATOM      1  C   UNL     1      -1.413   5.321  25.139  0.00  0.00    +0.097 C 
ATOM      2  C   UNL     1      -1.447   4.497  25.113  0.00  0.00    +0.246 C 
ATOM      3  O   UNL     1      -2.177   4.114  25.136  0.00  0.00    -0.273 OA
ATOM      4  N   UNL     1      -0.752   4.056  25.064  0.00  0.00    -0.179 NA
ENDBRANCH   5   4
ENDBRANCH  11   8
BRANCH  11  14
ATOM     14  N   UNL     1      -0.923  -0.063  24.932  0.00  0.00    -0.074 NA
BRANCH  14  15
ATOM     15  C   UNL     1      -1.654  -0.445  24.893  0.00  0.00    +0.157 C 
ATOM     16  C   UNL     1      -2.391  -0.092  24.999  0.00  0.00    +0.164 C 
ATOM     17  O   UNL     1      -2.967  -0.676  24.913  0.00  0.00    -0.349 OA
ATOM     18  C   UNL     1      -2.587  -1.389  24.754  0.00  0.00    +0.176 C 
ATOM     19  C   UNL     1      -2.706  -2.191  24.603  0.00  0.00    +0.211 C 
ATOM     20  O   UNL     1      -3.437  -2.573  24.564  0.00  0.00    -0.218 OA
ATOM     21  C   UNL     1      -1.968  -2.545  24.497  0.00  0.00    +0.178 C 
ATOM     22  O   UNL     1      -1.392  -1.961  24.583  0.00  0.00    -0.349 OA
ATOM     23  C   UNL     1      -1.774  -1.247  24.742  0.00  0.00    +0.165 C 
ENDBRANCH  14  15
ENDBRANCH  11  14
TORSDOF 4
ENDMDL
MODEL 4
REMARK VINA RESULT:      -9.1      1.906      2.378
REMARK  Name = 
REMARK  4 active torsions:
REMARK  status: ('A' for Active; 'I' for Inactive)
REMARK    1  A    between atoms: N_4  and  C_5
REMARK    2  A    between atoms: C_8  and  S_11
REMARK    3  A    between atoms: S_11  and  N_14
REMARK    4  A    between atoms: N_14  and  C_15
REMARK                            x       y       z     vdW  Elec       q    Type
REMARK                         _______ _______ _______ _____ _____    ______ ____
ROOT
ATOM     11  S   UNL     1      -3.709   0.210  24.466  0.00  0.00    +0.077 S 
ATOM     12  O   UNL     1      -3.384   0.560  23.793  0.00  0.00    -0.152 OA
ATOM     13  O   UNL     1      -4.034  -0.140  25.139  0.00  0.00    -0.152 OA
ENDROOT
BRANCH  11   8
ATOM      5  C   UNL     1      -5.055   2.245  24.877  0.00  0.00    +0.073 A 
ATOM      6  C   UNL     1      -4.454   2.255  24.313  0.00  0.00    +0.018 A 
ATOM      7  C   UNL     1      -4.005   1.577  24.175  0.00  0.00    +0.021 A 
ATOM      8  C   UNL     1      -4.157   0.888  24.603  0.00  0.00    +0.124 A 
ATOM      9  C   UNL     1      -4.758   0.878  25.168  0.00  0.00    +0.021 A 
ATOM     10  C   UNL     1      -5.207   1.556  25.305  0.00  0.00    +0.018 A 
BRANCH   5   4
ATOM      1  C   UNL     1      -5.668   4.191  25.653  0.00  0.00    +0.097 C 
ATOM      2  C   UNL     1      -5.219   3.513  25.515  0.00  0.00    +0.246 C 
ATOM      3  O   UNL     1      -4.484   3.425  25.879  0.00  0.00    -0.273 OA
ATOM      4  N   UNL     1      -5.504   2.924  25.015  0.00  0.00    -0.179 NA
ENDBRANCH   5   4
ENDBRANCH  11   8
BRANCH  11  14
ATOM     14  N   UNL     1      -3.260  -0.470  24.330  0.00  0.00    -0.074 NA
BRANCH  14  15
ATOM     15  C   UNL     1      -2.523  -0.557  24.689  0.00  0.00    +0.157 C 
ATOM     16  C   UNL     1      -2.118   0.025  25.112  0.00  0.00    +0.164 C 
ATOM     17  O   UNL     1      -1.406  -0.300  25.373  0.00  0.00    -0.349 OA
ATOM     18  C   UNL     1      -1.370  -1.081  25.112  0.00  0.00    +0.176 C 
ATOM     19  C   UNL     1      -0.909  -1.765  25.111  0.00  0.00    +0.211 C 
ATOM     20  O   UNL     1      -0.171  -1.852  25.471  0.00  0.00    -0.218 OA
ATOM     21  C   UNL     1      -1.313  -2.346  24.689  0.00  0.00    +0.178 C 
ATOM     22  O   UNL     1      -2.025  -2.022  24.428  0.00  0.00    -0.349 OA
ATOM     23  C   UNL     1      -2.061  -1.240  24.689  0.00  0.00    +0.165 C 
ENDBRANCH  14  15
ENDBRANCH  11  14
TORSDOF 4
ENDMDL
