MODEL 1
REMARK VINA RESULT:     -12.4      0.000      0.000
REMARK  Name = 
REMARK  7 active torsions:
REMARK  status: ('A' for Active; 'I' for Inactive)
REMARK    1  A    between atoms: N_2  and  C_3
REMARK    2  A    between atoms: C_3  and  C_4
REMARK    3  A    between atoms: C_6  and  C_8
REMARK    4  A    between atoms: C_8  and  C_9
REMARK    5  A    between atoms: C_14  and  C_15
REMARK    6  A    between atoms: C_15  and  C_16
REMARK    7  A    between atoms: C_19  and  C_21
REMARK                            x       y       z     vdW  Elec       q    Type
REMARK                         _______ _______ _______ _____ _____    ______ ____
ROOT
ATOM      9  C   UNL     1      -4.251   2.912  25.065  0.00  0.00    +0.012 C 
ATOM     10  C   UNL     1      -4.736   3.496  25.388  0.00  0.00    +0.019 C 
ATOM     11  C   UNL     1      -5.539   3.345  25.507  0.00  0.00    +0.089 C 
ATOM     12  N   UNL     1      -5.856   2.611  25.303  0.00  0.00    -0.218 NA
ATOM     13  C   UNL     1      -5.370   2.027  24.979  0.00  0.00    +0.089 C 
ATOM     14  C   UNL     1      -4.568   2.178  24.861  0.00  0.00    +0.024 C 
ENDROOT
BRANCH   9   8
ATOM      8  C   UNL     1      -3.448   3.062  24.946  0.00  0.00    +0.085 C 
BRANCH   8   6
ATOM      1  C   UNL     1      -1.979   3.615  24.437  0.00  0.00    +0.116 C 
ATOM      2  N   UNL     1      -2.347   3.961  25.089  0.00  0.00    -0.266 N 
ATOM      6  C   UNL     1      -3.082   3.686  25.343  0.00  0.00    +0.226 C 
ATOM      7  O   UNL     1      -3.450   4.032  25.995  0.00  0.00    -0.275 OA
BRANCH   2   3
ATOM      3  C   UNL     1      -1.981   4.585  25.487  0.00  0.00    +0.172 C 
BRANCH   3   4
ATOM      4  C   UNL     1      -1.328   4.960  25.152  0.00  0.00    -0.056 C 
ATOM      5  C   UNL     1      -0.675   5.336  24.816  0.00  0.00    -0.012 C 
ENDBRANCH   3   4
ENDBRANCH   2   3
ENDBRANCH   8   6
ENDBRANCH   9   8
BRANCH  14  15
ATOM     15  C   UNL     1      -4.082   1.594  24.537  0.00  0.00    +0.051 C 
BRANCH  15  16
ATOM     16  C   UNL     1      -4.151   0.813  24.792  0.00  0.00    +0.101 A 
ATOM     17  N   UNL     1      -4.474   0.564  25.509  0.00  0.00    -0.081 NA
ATOM     18  O   UNL     1      -4.432  -0.260  25.535  0.00  0.00    -0.354 OA
ATOM     19  C   UNL     1      -4.083  -0.519  24.834  0.00  0.00    +0.177 A 
ATOM     20  C   UNL     1      -3.910   0.144  24.374  0.00  0.00    +0.058 A 
BRANCH  19  21
ATOM     21  C   UNL     1      -3.934  -1.305  24.628  0.00  0.00    +0.037 A 
ATOM     22  C   UNL     1      -3.412  -1.757  25.077  0.00  0.00    +0.005 A 
ATOM     23  C   UNL     1      -3.263  -2.542  24.871  0.00  0.00    +0.030 A 
ATOM     24  C   UNL     1      -3.637  -2.874  24.215  0.00  0.00    +0.140 A 
ATOM     25  F   UNL     1      -3.487  -3.659  24.009  0.00  0.00    -0.204 F 
ATOM     26  C   UNL     1      -4.159  -2.422  23.766  0.00  0.00    +0.030 A 
ATOM     27  C   UNL     1      -4.308  -1.637  23.971  0.00  0.00    +0.005 A 
ENDBRANCH  19  21
ENDBRANCH  15  16
ENDBRANCH  14  15
TORSDOF 7
ENDMDL
MODEL 2
REMARK VINA RESULT:     -11.2      3.085      6.241
REMARK  Name = 
REMARK  7 active torsions:
REMARK  status: ('A' for Active; 'I' for Inactive)
REMARK    1  A    between atoms: N_2  and  C_3
REMARK    2  A    between atoms: C_3  and  C_4
REMARK    3  A    between atoms: C_6  and  C_8
REMARK    4  A    between atoms: C_8  and  C_9
REMARK    5  A    between atoms: C_14  and  C_15
REMARK    6  A    between atoms: C_15  and  C_16
REMARK    7  A    between atoms: C_19  and  C_21
REMARK                            x       y       z     vdW  Elec       q    Type
REMARK                         _______ _______ _______ _____ _____    ______ ____
ROOT
ATOM      9  C   UNL     1      -0.941  -0.328  24.625  0.00  0.00    +0.012 C 
ATOM     10  C   UNL     1      -0.592  -0.736  23.998  0.00  0.00    +0.019 C 
ATOM     11  C   UNL     1       0.070  -0.420  23.620  0.00  0.00    +0.089 C 
ATOM     12  N   UNL     1       0.382   0.302  23.868  0.00  0.00    -0.218 NA
ATOM     13  C   UNL     1       0.032   0.710  24.495  0.00  0.00    +0.089 C 
ATOM     14  C   UNL     1      -0.630   0.394  24.873  0.00  0.00    +0.024 C 
ENDROOT
BRANCH   9   8
ATOM      8  C   UNL     1      -1.604  -0.644  25.003  0.00  0.00    +0.085 C 
BRANCH   8   6
ATOM      1  C   UNL     1      -3.207  -1.036  24.989  0.00  0.00    +0.116 C 
ATOM      2  N   UNL     1      -2.639  -1.615  24.840  0.00  0.00    -0.266 N 
ATOM      6  C   UNL     1      -1.838  -1.420  24.847  0.00  0.00    +0.226 C 
ATOM      7  O   UNL     1      -1.270  -1.999  24.698  0.00  0.00    -0.275 OA
BRANCH   2   3
ATOM      3  C   UNL     1      -2.872  -2.391  24.684  0.00  0.00    +0.172 C 
BRANCH   3   4
ATOM      4  C   UNL     1      -3.593  -2.537  24.312  0.00  0.00    -0.056 C 
ATOM      5  C   UNL     1      -4.315  -2.684  23.939  0.00  0.00    -0.012 C 
ENDBRANCH   3   4
ENDBRANCH   2   3
ENDBRANCH   8   6
ENDBRANCH   9   8
BRANCH  14  15
ATOM     15  C   UNL     1      -0.980   0.801  25.500  0.00  0.00    +0.051 C 
BRANCH  15  16
ATOM     16  C   UNL     1      -0.804   1.597  25.624  0.00  0.00    +0.101 A 
ATOM     17  N   UNL     1      -0.164   1.890  26.055  0.00  0.00    -0.081 NA
ATOM     18  O   UNL     1      -0.200   2.714  26.037  0.00  0.00    -0.354 OA
ATOM     19  C   UNL     1      -0.863   2.930  25.595  0.00  0.00    +0.177 A 
ATOM     20  C   UNL     1      -1.235   2.239  25.340  0.00  0.00    +0.058 A 
BRANCH  19  21
ATOM     21  C   UNL     1      -1.109   3.702  25.436  0.00  0.00    +0.037 A 
ATOM     22  C   UNL     1      -1.846   3.962  25.698  0.00  0.00    +0.005 A 
ATOM     23  C   UNL     1      -2.093   4.733  25.539  0.00  0.00    +0.030 A 
ATOM     24  C   UNL     1      -1.601   5.244  25.117  0.00  0.00    +0.140 A 
ATOM     25  F   UNL     1      -1.847   6.015  24.958  0.00  0.00    -0.204 F 
ATOM     26  C   UNL     1      -0.864   4.984  24.855  0.00  0.00    +0.030 A 
ATOM     27  C   UNL     1      -0.617   4.213  25.014  0.00  0.00    +0.005 A 
ENDBRANCH  19  21
ENDBRANCH  15  16
ENDBRANCH  14  15
TORSDOF 7
ENDMDL
MODEL 3
REMARK VINA RESULT:     -11.1      2.225      3.117
REMARK  Name = 
REMARK  7 active torsions:
REMARK  status: ('A' for Active; 'I' for Inactive)
REMARK    1  A    between atoms: N_2  and  C_3
REMARK    2  A    between atoms: C_3  and  C_4
REMARK    3  A    between atoms: C_6  and  C_8
REMARK    4  A    between atoms: C_8  and  C_9
REMARK    5  A    between atoms: C_14  and  C_15
REMARK    6  A    between atoms: C_15  and  C_16
REMARK    7  A    between atoms: C_19  and  C_21
REMARK                            x       y       z     vdW  Elec       q    Type
REMARK                         _______ _______ _______ _____ _____    ______ ____
ROOT
ATOM      9  C   UNL     1      -0.577   1.594  24.727  0.00  0.00    +0.012 C 
ATOM     10  C   UNL     1       0.010   1.814  24.192  0.00  0.00    +0.019 C 
ATOM     11  C   UNL     1       0.474   1.236  23.827  0.00  0.00    +0.089 C 
ATOM     12  N   UNL     1       0.349   0.438  23.999  0.00  0.00    -0.218 NA
ATOM     13  C   UNL     1      -0.239   0.218  24.535  0.00  0.00    +0.089 C 
ATOM     14  C   UNL     1      -0.702   0.796  24.899  0.00  0.00    +0.024 C 
ENDROOT
BRANCH   9   8
ATOM      8  C   UNL     1      -1.041   2.172  25.091  0.00  0.00    +0.085 C 
BRANCH   8   6
ATOM      1  C   UNL     1      -2.026   3.493  25.021  0.00  0.00    +0.116 C 
ATOM      2  N   UNL     1      -1.224   3.585  25.191  0.00  0.00    -0.266 N 
ATOM      6  C   UNL     1      -0.731   2.925  25.226  0.00  0.00    +0.226 C 
ATOM      7  O   UNL     1       0.071   3.016  25.395  0.00  0.00    -0.275 OA
BRANCH   2   3
ATOM      3  C   UNL     1      -0.914   4.338  25.325  0.00  0.00    +0.172 C 
BRANCH   3   4
ATOM      4  C   UNL     1      -1.376   5.005  25.180  0.00  0.00    -0.056 C 
ATOM      5  C   UNL     1      -1.839   5.673  25.035  0.00  0.00    -0.012 C 
ENDBRANCH   3   4
ENDBRANCH   2   3
ENDBRANCH   8   6
ENDBRANCH   9   8
BRANCH  14  15
ATOM     15  C   UNL     1      -1.290   0.576  25.435  0.00  0.00    +0.051 C 
BRANCH  15  16
ATOM     16  C   UNL     1      -1.643  -0.166  25.378  0.00  0.00    +0.101 A 
ATOM     17  N   UNL     1      -1.411  -0.846  25.784  0.00  0.00    -0.081 NA
ATOM     18  O   UNL     1      -1.916  -1.460  25.561  0.00  0.00    -0.354 OA
ATOM     19  C   UNL     1      -2.459  -1.160  25.018  0.00  0.00    +0.177 A 
ATOM     20  C   UNL     1      -2.291  -0.360  24.905  0.00  0.00    +0.058 A 
BRANCH  19  21
ATOM     21  C   UNL     1      -3.065  -1.585  24.652  0.00  0.00    +0.037 A 
ATOM     22  C   UNL     1      -3.683  -1.186  24.280  0.00  0.00    +0.005 A 
ATOM     23  C   UNL     1      -4.288  -1.611  23.915  0.00  0.00    +0.030 A 
ATOM     24  C   UNL     1      -4.275  -2.435  23.922  0.00  0.00    +0.140 A 
ATOM     25  F   UNL     1      -4.881  -2.860  23.556  0.00  0.00    -0.204 F 
ATOM     26  C   UNL     1      -3.657  -2.834  24.294  0.00  0.00    +0.030 A 
ATOM     27  C   UNL     1      -3.052  -2.410  24.660  0.00  0.00    +0.005 A 
ENDBRANCH  19  21
ENDBRANCH  15  16
ENDBRANCH  14  15
TORSDOF 7
ENDMDL
MODEL 4
REMARK VINA RESULT:     -11.0      2.047      5.248
REMARK  Name = 
REMARK  7 active torsions:
REMARK  status: ('A' for Active; 'I' for Inactive)
REMARK    1  A    between atoms: N_2  and  C_3
REMARK    2  A    between atoms: C_3  and  C_4
REMARK    3  A    between atoms: C_6  and  C_8
REMARK    4  A    between atoms: C_8  and  C_9
REMARK    5  A    between atoms: C_14  and  C_15
REMARK    6  A    between atoms: C_15  and  C_16
REMARK    7  A    between atoms: C_19  and  C_21
REMARK                            x       y       z     vdW  Elec       q    Type
REMARK                         _______ _______ _______ _____ _____    ______ ____
ROOT
ATOM      9  C   UNL     1      -4.886   1.040  24.936  0.00  0.00    +0.012 C 
ATOM     10  C   UNL     1      -5.477   0.814  25.465  0.00  0.00    +0.019 C 
ATOM     11  C   UNL     1      -5.976   1.383  25.795  0.00  0.00    +0.089 C 
ATOM     12  N   UNL     1      -5.883   2.178  25.595  0.00  0.00    -0.218 NA
ATOM     13  C   UNL     1      -5.292   2.405  25.064  0.00  0.00    +0.089 C 
ATOM     14  C   UNL     1      -4.794   1.835  24.735  0.00  0.00    +0.024 C 
ENDROOT
BRANCH   9   8
ATOM      8  C   UNL     1      -4.388   0.471  24.606  0.00  0.00    +0.085 C 
BRANCH   8   6
ATOM      1  C   UNL     1      -3.954  -0.916  23.824  0.00  0.00    +0.116 C 
ATOM      2  N   UNL     1      -3.969  -0.894  24.648  0.00  0.00    -0.266 N 
ATOM      6  C   UNL     1      -4.186  -0.201  25.039  0.00  0.00    +0.226 C 
ATOM      7  O   UNL     1      -4.201  -0.180  25.864  0.00  0.00    -0.275 OA
BRANCH   2   3
ATOM      3  C   UNL     1      -3.767  -1.566  25.082  0.00  0.00    +0.172 C 
BRANCH   3   4
ATOM      4  C   UNL     1      -3.597  -2.272  24.692  0.00  0.00    -0.056 C 
ATOM      5  C   UNL     1      -3.428  -2.980  24.302  0.00  0.00    -0.012 C 
ENDBRANCH   3   4
ENDBRANCH   2   3
ENDBRANCH   8   6
ENDBRANCH   9   8
BRANCH  14  15
ATOM     15  C   UNL     1      -4.203   2.062  24.205  0.00  0.00    +0.051 C 
BRANCH  15  16
ATOM     16  C   UNL     1      -3.831   2.792  24.290  0.00  0.00    +0.101 A 
ATOM     17  N   UNL     1      -4.181   3.531  24.176  0.00  0.00    -0.081 NA
ATOM     18  O   UNL     1      -3.609   4.109  24.319  0.00  0.00    -0.354 OA
ATOM     19  C   UNL     1      -2.906   3.727  24.522  0.00  0.00    +0.177 A 
ATOM     20  C   UNL     1      -3.044   2.913  24.504  0.00  0.00    +0.058 A 
BRANCH  19  21
ATOM     21  C   UNL     1      -2.191   4.094  24.710  0.00  0.00    +0.037 A 
ATOM     22  C   UNL     1      -2.180   4.892  24.918  0.00  0.00    +0.005 A 
ATOM     23  C   UNL     1      -1.465   5.259  25.106  0.00  0.00    +0.030 A 
ATOM     24  C   UNL     1      -0.763   4.828  25.085  0.00  0.00    +0.140 A 
ATOM     25  F   UNL     1      -0.048   5.195  25.273  0.00  0.00    -0.204 F 
ATOM     26  C   UNL     1      -0.774   4.031  24.876  0.00  0.00    +0.030 A 
ATOM     27  C   UNL     1      -1.488   3.663  24.689  0.00  0.00    +0.005 A 
ENDBRANCH  19  21
ENDBRANCH  15  16
ENDBRANCH  14  15
TORSDOF 7
ENDMDL
MODEL 5
REMARK VINA RESULT:     -10.5      1.836      3.013
REMARK  Name = 
REMARK  7 active torsions:
REMARK  status: ('A' for Active; 'I' for Inactive)
REMARK    1  A    between atoms: N_2  and  C_3
REMARK    2  A    between atoms: C_3  and  C_4
REMARK    3  A    between atoms: C_6  and  C_8
REMARK    4  A    between atoms: C_8  and  C_9
REMARK    5  A    between atoms: C_14  and  C_15
REMARK    6  A    between atoms: C_15  and  C_16
REMARK    7  A    between atoms: C_19  and  C_21
REMARK                            x       y       z     vdW  Elec       q    Type
REMARK                         _______ _______ _______ _____ _____    ______ ____
ROOT
ATOM      9  C   UNL     1      -1.366   2.621  25.169  0.00  0.00    +0.012 C 
ATOM     10  C   UNL     1      -0.985   3.083  25.736  0.00  0.00    +0.019 C 
ATOM     11  C   UNL     1      -0.252   2.847  26.036  0.00  0.00    +0.089 C 
ATOM     12  N   UNL     1       0.097   2.149  25.767  0.00  0.00    -0.218 NA
ATOM     13  C   UNL     1      -0.285   1.687  25.200  0.00  0.00    +0.089 C 
ATOM     14  C   UNL     1      -1.016   1.924  24.901  0.00  0.00    +0.024 C 
ENDROOT
BRANCH   9   8
ATOM      8  C   UNL     1      -2.099   2.857  24.870  0.00  0.00    +0.085 C 
BRANCH   8   6
ATOM      1  C   UNL     1      -3.590   3.268  24.295  0.00  0.00    +0.116 C 
ATOM      2  N   UNL     1      -3.370   3.479  25.062  0.00  0.00    -0.266 N 
ATOM      6  C   UNL     1      -2.625   3.274  25.350  0.00  0.00    +0.226 C 
ATOM      7  O   UNL     1      -2.406   3.485  26.117  0.00  0.00    -0.275 OA
BRANCH   2   3
ATOM      3  C   UNL     1      -3.897   3.895  25.541  0.00  0.00    +0.172 C 
BRANCH   3   4
ATOM      4  C   UNL     1      -4.701   3.714  25.525  0.00  0.00    -0.056 C 
ATOM      5  C   UNL     1      -5.506   3.532  25.509  0.00  0.00    -0.012 C 
ENDBRANCH   3   4
ENDBRANCH   2   3
ENDBRANCH   8   6
ENDBRANCH   9   8
BRANCH  14  15
ATOM     15  C   UNL     1      -1.399   1.462  24.334  0.00  0.00    +0.051 C 
BRANCH  15  16
ATOM     16  C   UNL     1      -1.403   0.641  24.405  0.00  0.00    +0.101 A 
ATOM     17  N   UNL     1      -0.750   0.143  24.319  0.00  0.00    -0.081 NA
ATOM     18  O   UNL     1      -1.005  -0.633  24.436  0.00  0.00    -0.354 OA
ATOM     19  C   UNL     1      -1.814  -0.615  24.595  0.00  0.00    +0.177 A 
ATOM     20  C   UNL     1      -2.060   0.172  24.575  0.00  0.00    +0.058 A 
BRANCH  19  21
ATOM     21  C   UNL     1      -2.294  -1.270  24.746  0.00  0.00    +0.037 A 
ATOM     22  C   UNL     1      -2.103  -2.004  24.423  0.00  0.00    +0.005 A 
ATOM     23  C   UNL     1      -2.582  -2.659  24.574  0.00  0.00    +0.030 A 
ATOM     24  C   UNL     1      -3.253  -2.578  25.048  0.00  0.00    +0.140 A 
ATOM     25  F   UNL     1      -3.732  -3.232  25.199  0.00  0.00    -0.204 F 
ATOM     26  C   UNL     1      -3.444  -1.843  25.370  0.00  0.00    +0.030 A 
ATOM     27  C   UNL     1      -2.965  -1.189  25.219  0.00  0.00    +0.005 A 
ENDBRANCH  19  21
ENDBRANCH  15  16
ENDBRANCH  14  15
TORSDOF 7
ENDMDL
