REMARK  Name = 
REMARK  10 active torsions:
REMARK  status: ('A' for Active; 'I' for Inactive)
REMARK    1  A    between atoms: O_2  and  C_3
REMARK    2  A    between atoms: C_3  and  C_5
REMARK    3  A    between atoms: C_5  and  N_6
REMARK    4  A    between atoms: C_5  and  C_33
REMARK    5  A    between atoms: C_7  and  C_9
REMARK    6  A    between atoms: C_11  and  N_22
REMARK    7  A    between atoms: C_15  and  C_17
REMARK    8  A    between atoms: C_17  and  C_18
REMARK    9  A    between atoms: C_18  and  C_19
REMARK   10  A    between atoms: N_25  and  C_26
REMARK                            x       y       z     vdW  Elec       q    Type
REMARK                         _______ _______ _______ _____ _____    ______ ____
ROOT
ATOM      9  C   UNL     1       7.859  -7.838   0.000  0.00  0.00    +0.155 C 
ATOM     10  C   UNL     1       8.574  -7.425   0.000  0.00  0.00    +0.051 C 
ATOM     11  C   UNL     1       9.288  -7.838   0.000  0.00  0.00    +0.101 C 
ATOM     12  C   UNL     1       9.288  -8.662   0.000  0.00  0.00    +0.043 C 
ATOM     13  C   UNL     1       8.574  -9.075   0.000  0.00  0.00    +0.096 C 
ATOM     14  N   UNL     1       7.859  -8.662   0.000  0.00  0.00    -0.273 N 
ATOM     15  C   UNL     1       7.145  -9.075   0.000  0.00  0.00    +0.227 C 
ATOM     16  O   UNL     1       6.430  -8.662   0.000  0.00  0.00    -0.275 OA
ENDROOT
BRANCH  11  22
ATOM     22  N   UNL     1      10.003  -7.425   0.000  0.00  0.00    -0.189 NA
ATOM     23  C   UNL     1      10.717  -7.838   0.000  0.00  0.00    +0.343 C 
ATOM     24  O   UNL     1      10.717  -8.662   0.000  0.00  0.00    -0.249 OA
ATOM     25  N   UNL     1      11.431  -7.425   0.000  0.00  0.00    -0.161 NA
BRANCH  25  26
ATOM     26  C   UNL     1      12.146  -7.838   0.000  0.00  0.00    +0.077 A 
ATOM     27  C   UNL     1      12.861  -7.425   0.000  0.00  0.00    +0.017 A 
ATOM     28  C   UNL     1      13.575  -7.838   0.000  0.00  0.00    +0.004 A 
ATOM     29  C   UNL     1      13.575  -8.662   0.000  0.00  0.00    +0.030 A 
ATOM     30  C   UNL     1      12.861  -9.075   0.000  0.00  0.00    +0.141 A 
ATOM     31  F   UNL     1      12.861  -9.900   0.000  0.00  0.00    -0.204 F 
ATOM     32  C   UNL     1      12.146  -8.662   0.000  0.00  0.00    +0.046 A 
ENDBRANCH  25  26
ENDBRANCH  11  22
BRANCH   9   7
ATOM      6  N   UNL     1       6.430  -7.838   0.000  0.00  0.00    -0.194 NA
ATOM      7  C   UNL     1       7.145  -7.425   0.000  0.00  0.00    +0.260 C 
ATOM      8  O   UNL     1       7.145  -6.600   0.000  0.00  0.00    -0.272 OA
BRANCH   6   5
ATOM      5  C   UNL     1       5.716  -7.425   0.000  0.00  0.00    +0.193 C 
BRANCH   5  33
ATOM     33  C   UNL     1       5.716  -6.600   0.000  0.00  0.00    +0.031 C 
ATOM     34  C   UNL     1       6.430  -6.188   0.000  0.00  0.00    +0.002 C 
ATOM     35  C   UNL     1       5.001  -6.188   0.000  0.00  0.00    +0.002 C 
ENDBRANCH   5  33
BRANCH   5   3
ATOM      3  C   UNL     1       5.001  -7.838   0.000  0.00  0.00    +0.337 C 
ATOM      4  O   UNL     1       5.001  -8.662   0.000  0.00  0.00    -0.248 OA
BRANCH   3   2
ATOM      1  C   UNL     1       3.572  -7.838   0.000  0.00  0.00    +0.256 C 
ATOM      2  O   UNL     1       4.287  -7.425   0.000  0.00  0.00    -0.443 OA
ENDBRANCH   3   2
ENDBRANCH   5   3
ENDBRANCH   6   5
ENDBRANCH   9   7
BRANCH  15  17
ATOM     17  C   UNL     1       7.145  -9.900   0.000  0.00  0.00    +0.097 C 
BRANCH  17  18
ATOM     18  C   UNL     1       6.430 -10.312   0.000  0.00  0.00    +0.124 C 
BRANCH  18  19
ATOM     19  C   UNL     1       6.430 -11.137   0.000  0.00  0.00    +0.365 C 
ATOM     20  O   UNL     1       7.145 -11.550   0.000  0.00  0.00    -0.246 OA
ATOM     21  O   UNL     1       5.716 -11.550   0.000  0.00  0.00    -0.246 OA
ENDBRANCH  18  19
ENDBRANCH  17  18
ENDBRANCH  15  17
TORSDOF 10
