MODEL 1
REMARK VINA RESULT:     -11.7      0.000      0.000
REMARK  Name = 
REMARK  6 active torsions:
REMARK  status: ('A' for Active; 'I' for Inactive)
REMARK    1  A    between atoms: C_5  and  C_6
REMARK    2  A    between atoms: C_6  and  C_7
REMARK    3  A    between atoms: N_12  and  C_15
REMARK    4  A    between atoms: C_23  and  C_24
REMARK    5  A    between atoms: C_24  and  N_25
REMARK    6  A    between atoms: C_26  and  C_28
REMARK                            x       y       z     vdW  Elec       q    Type
REMARK                         _______ _______ _______ _____ _____    ______ ____
ROOT
ATOM      1  O   UNL     1      -1.688   4.857  25.085  0.00  0.00    -0.218 OA
ATOM      2  C   UNL     1      -1.714   4.033  25.069  0.00  0.00    +0.213 C 
ATOM      3  C   UNL     1      -1.080   3.531  24.907  0.00  0.00    +0.212 C 
ATOM      4  O   UNL     1      -0.308   3.765  24.733  0.00  0.00    -0.218 OA
ATOM      5  C   UNL     1      -1.353   2.753  24.951  0.00  0.00    +0.157 C 
ATOM     22  O   UNL     1      -2.156   2.775  25.140  0.00  0.00    -0.351 OA
ATOM     23  C   UNL     1      -2.379   3.566  25.213  0.00  0.00    +0.170 C 
ENDROOT
BRANCH   5   6
ATOM      6  C   UNL     1      -0.902   2.074  24.827  0.00  0.00    +0.117 C 
BRANCH   6   7
ATOM      7  C   UNL     1      -0.891   1.476  25.396  0.00  0.00    +0.228 C 
ATOM      8  O   UNL     1      -0.517   1.602  26.120  0.00  0.00    -0.275 OA
ATOM      9  N   UNL     1      -1.254   0.752  25.240  0.00  0.00    -0.276 N 
ATOM     10  C   UNL     1      -1.244   0.154  25.808  0.00  0.00    +0.115 C 
ATOM     11  C   UNL     1      -1.607  -0.570  25.652  0.00  0.00    +0.112 C 
ATOM     12  N   UNL     1      -1.981  -0.697  24.928  0.00  0.00    -0.304 N 
ATOM     13  C   UNL     1      -1.991  -0.098  24.359  0.00  0.00    +0.112 C 
ATOM     14  C   UNL     1      -1.628   0.626  24.515  0.00  0.00    +0.115 C 
BRANCH  12  15
ATOM     15  C   UNL     1      -2.344  -1.421  24.772  0.00  0.00    +0.048 A 
ATOM     16  C   UNL     1      -1.891  -2.065  24.527  0.00  0.00    +0.017 A 
ATOM     17  C   UNL     1      -2.255  -2.789  24.372  0.00  0.00    +0.031 A 
ATOM     18  C   UNL     1      -3.071  -2.868  24.461  0.00  0.00    +0.140 A 
ATOM     19  F   UNL     1      -3.435  -3.593  24.305  0.00  0.00    -0.204 F 
ATOM     20  C   UNL     1      -3.524  -2.224  24.705  0.00  0.00    +0.031 A 
ATOM     21  C   UNL     1      -3.161  -1.500  24.861  0.00  0.00    +0.017 A 
ENDBRANCH  12  15
ENDBRANCH   6   7
ENDBRANCH   5   6
BRANCH  23  24
ATOM     24  C   UNL     1      -3.134   3.841  25.397  0.00  0.00    +0.148 C 
BRANCH  24  25
ATOM     25  N   UNL     1      -3.757   3.308  25.492  0.00  0.00    -0.196 NA
ATOM     26  C   UNL     1      -4.534   3.581  25.520  0.00  0.00    +0.300 C 
ATOM     27  O   UNL     1      -4.690   4.389  25.454  0.00  0.00    -0.265 OA
BRANCH  26  28
ATOM     28  C   UNL     1      -5.156   3.048  25.615  0.00  0.00    +0.200 A 
ATOM     29  C   UNL     1      -5.458   2.545  25.034  0.00  0.00    +0.046 A 
ATOM     30  C   UNL     1      -6.074   2.111  25.368  0.00  0.00    +0.044 A 
ATOM     31  C   UNL     1      -6.154   2.345  26.155  0.00  0.00    +0.180 A 
ATOM     32  O   UNL     1      -5.587   2.923  26.308  0.00  0.00    -0.446 OA
ENDBRANCH  26  28
ENDBRANCH  24  25
ENDBRANCH  23  24
TORSDOF 6
ENDMDL
MODEL 2
REMARK VINA RESULT:     -11.4      1.465      3.454
REMARK  Name = 
REMARK  6 active torsions:
REMARK  status: ('A' for Active; 'I' for Inactive)
REMARK    1  A    between atoms: C_5  and  C_6
REMARK    2  A    between atoms: C_6  and  C_7
REMARK    3  A    between atoms: N_12  and  C_15
REMARK    4  A    between atoms: C_23  and  C_24
REMARK    5  A    between atoms: C_24  and  N_25
REMARK    6  A    between atoms: C_26  and  C_28
REMARK                            x       y       z     vdW  Elec       q    Type
REMARK                         _______ _______ _______ _____ _____    ______ ____
ROOT
ATOM      1  O   UNL     1      -4.004   4.698  26.425  0.00  0.00    -0.218 OA
ATOM      2  C   UNL     1      -3.957   4.009  25.974  0.00  0.00    +0.213 C 
ATOM      3  C   UNL     1      -4.593   3.552  25.719  0.00  0.00    +0.212 C 
ATOM      4  O   UNL     1      -5.391   3.703  25.869  0.00  0.00    -0.218 OA
ATOM      5  C   UNL     1      -4.294   2.915  25.287  0.00  0.00    +0.157 C 
ATOM     22  O   UNL     1      -3.471   2.980  25.275  0.00  0.00    -0.351 OA
ATOM     23  C   UNL     1      -3.263   3.656  25.700  0.00  0.00    +0.170 C 
ENDROOT
BRANCH   5   6
ATOM      6  C   UNL     1      -4.739   2.320  24.929  0.00  0.00    +0.117 C 
BRANCH   6   7
ATOM      7  C   UNL     1      -4.437   1.913  24.277  0.00  0.00    +0.228 C 
ATOM      8  O   UNL     1      -4.260   2.322  23.583  0.00  0.00    -0.275 OA
ATOM      9  N   UNL     1      -4.311   1.099  24.320  0.00  0.00    -0.276 N 
ATOM     10  C   UNL     1      -4.010   0.693  23.669  0.00  0.00    +0.115 C 
ATOM     11  C   UNL     1      -3.885  -0.121  23.712  0.00  0.00    +0.112 C 
ATOM     12  N   UNL     1      -4.061  -0.529  24.407  0.00  0.00    -0.304 N 
ATOM     13  C   UNL     1      -4.363  -0.123  25.058  0.00  0.00    +0.112 C 
ATOM     14  C   UNL     1      -4.488   0.691  25.015  0.00  0.00    +0.115 C 
BRANCH  12  15
ATOM     15  C   UNL     1      -3.936  -1.344  24.449  0.00  0.00    +0.048 A 
ATOM     16  C   UNL     1      -4.297  -1.846  23.904  0.00  0.00    +0.017 A 
ATOM     17  C   UNL     1      -4.171  -2.661  23.948  0.00  0.00    +0.031 A 
ATOM     18  C   UNL     1      -3.685  -2.972  24.536  0.00  0.00    +0.140 A 
ATOM     19  F   UNL     1      -3.559  -3.786  24.580  0.00  0.00    -0.204 F 
ATOM     20  C   UNL     1      -3.324  -2.470  25.082  0.00  0.00    +0.031 A 
ATOM     21  C   UNL     1      -3.449  -1.655  25.039  0.00  0.00    +0.017 A 
ENDBRANCH  12  15
ENDBRANCH   6   7
ENDBRANCH   5   6
BRANCH  23  24
ATOM     24  C   UNL     1      -2.496   3.930  25.829  0.00  0.00    +0.148 C 
BRANCH  24  25
ATOM     25  N   UNL     1      -1.861   3.403  25.815  0.00  0.00    -0.196 NA
ATOM     26  C   UNL     1      -1.116   3.661  25.574  0.00  0.00    +0.300 C 
ATOM     27  O   UNL     1      -1.005   4.447  25.348  0.00  0.00    -0.265 OA
BRANCH  26  28
ATOM     28  C   UNL     1      -0.481   3.135  25.560  0.00  0.00    +0.200 A 
ATOM     29  C   UNL     1      -0.083   2.836  26.219  0.00  0.00    +0.046 A 
ATOM     30  C   UNL     1       0.511   2.331  25.949  0.00  0.00    +0.044 A 
ATOM     31  C   UNL     1       0.481   2.318  25.125  0.00  0.00    +0.180 A 
ATOM     32  O   UNL     1      -0.132   2.815  24.885  0.00  0.00    -0.446 OA
ENDBRANCH  26  28
ENDBRANCH  24  25
ENDBRANCH  23  24
TORSDOF 6
ENDMDL
MODEL 3
REMARK VINA RESULT:     -11.3      1.362      3.350
REMARK  Name = 
REMARK  6 active torsions:
REMARK  status: ('A' for Active; 'I' for Inactive)
REMARK    1  A    between atoms: C_5  and  C_6
REMARK    2  A    between atoms: C_6  and  C_7
REMARK    3  A    between atoms: N_12  and  C_15
REMARK    4  A    between atoms: C_23  and  C_24
REMARK    5  A    between atoms: C_24  and  N_25
REMARK    6  A    between atoms: C_26  and  C_28
REMARK                            x       y       z     vdW  Elec       q    Type
REMARK                         _______ _______ _______ _____ _____    ______ ____
ROOT
ATOM      1  O   UNL     1      -5.682   4.230  25.945  0.00  0.00    -0.218 OA
ATOM      2  C   UNL     1      -5.261   3.553  25.730  0.00  0.00    +0.213 C 
ATOM      3  C   UNL     1      -5.584   2.811  25.573  0.00  0.00    +0.212 C 
ATOM      4  O   UNL     1      -6.385   2.615  25.602  0.00  0.00    -0.218 OA
ATOM      5  C   UNL     1      -4.965   2.299  25.381  0.00  0.00    +0.157 C 
ATOM     22  O   UNL     1      -4.260   2.725  25.420  0.00  0.00    -0.351 OA
ATOM     23  C   UNL     1      -4.443   3.501  25.636  0.00  0.00    +0.170 C 
ENDROOT
BRANCH   5   6
ATOM      6  C   UNL     1      -5.040   1.502  25.185  0.00  0.00    +0.117 C 
BRANCH   6   7
ATOM      7  C   UNL     1      -4.694   1.212  24.494  0.00  0.00    +0.228 C 
ATOM      8  O   UNL     1      -4.803   1.612  23.780  0.00  0.00    -0.275 OA
ATOM      9  N   UNL     1      -4.240   0.524  24.516  0.00  0.00    -0.276 N 
ATOM     10  C   UNL     1      -3.895   0.234  23.826  0.00  0.00    +0.115 C 
ATOM     11  C   UNL     1      -3.441  -0.454  23.848  0.00  0.00    +0.112 C 
ATOM     12  N   UNL     1      -3.333  -0.854  24.561  0.00  0.00    -0.304 N 
ATOM     13  C   UNL     1      -3.679  -0.564  25.253  0.00  0.00    +0.112 C 
ATOM     14  C   UNL     1      -4.132   0.124  25.230  0.00  0.00    +0.115 C 
BRANCH  12  15
ATOM     15  C   UNL     1      -2.879  -1.542  24.584  0.00  0.00    +0.048 A 
ATOM     16  C   UNL     1      -2.062  -1.495  24.682  0.00  0.00    +0.017 A 
ATOM     17  C   UNL     1      -1.608  -2.184  24.705  0.00  0.00    +0.031 A 
ATOM     18  C   UNL     1      -1.973  -2.920  24.628  0.00  0.00    +0.140 A 
ATOM     19  F   UNL     1      -1.519  -3.609  24.651  0.00  0.00    -0.204 F 
ATOM     20  C   UNL     1      -2.790  -2.968  24.530  0.00  0.00    +0.031 A 
ATOM     21  C   UNL     1      -3.243  -2.279  24.508  0.00  0.00    +0.017 A 
ENDBRANCH  12  15
ENDBRANCH   6   7
ENDBRANCH   5   6
BRANCH  23  24
ATOM     24  C   UNL     1      -3.902   4.115  25.739  0.00  0.00    +0.148 C 
BRANCH  24  25
ATOM     25  N   UNL     1      -3.138   4.048  25.436  0.00  0.00    -0.196 NA
ATOM     26  C   UNL     1      -2.557   4.590  25.657  0.00  0.00    +0.300 C 
ATOM     27  O   UNL     1      -2.741   5.200  26.182  0.00  0.00    -0.265 OA
BRANCH  26  28
ATOM     28  C   UNL     1      -1.792   4.523  25.355  0.00  0.00    +0.200 A 
ATOM     29  C   UNL     1      -1.344   5.134  25.028  0.00  0.00    +0.046 A 
ATOM     30  C   UNL     1      -0.617   4.821  24.797  0.00  0.00    +0.044 A 
ATOM     31  C   UNL     1      -0.616   4.016  24.981  0.00  0.00    +0.180 A 
ATOM     32  O   UNL     1      -1.342   3.832  25.325  0.00  0.00    -0.446 OA
ENDBRANCH  26  28
ENDBRANCH  24  25
ENDBRANCH  23  24
TORSDOF 6
ENDMDL
MODEL 4
REMARK VINA RESULT:     -11.3      2.499      5.133
REMARK  Name = 
REMARK  6 active torsions:
REMARK  status: ('A' for Active; 'I' for Inactive)
REMARK    1  A    between atoms: C_5  and  C_6
REMARK    2  A    between atoms: C_6  and  C_7
REMARK    3  A    between atoms: N_12  and  C_15
REMARK    4  A    between atoms: C_23  and  C_24
REMARK    5  A    between atoms: C_24  and  N_25
REMARK    6  A    between atoms: C_26  and  C_28
REMARK                            x       y       z     vdW  Elec       q    Type
REMARK                         _______ _______ _______ _____ _____    ______ ____
ROOT
ATOM      1  O   UNL     1       0.930  -0.493  23.856  0.00  0.00    -0.218 OA
ATOM      2  C   UNL     1       0.235  -0.056  23.947  0.00  0.00    +0.213 C 
ATOM      3  C   UNL     1       0.158   0.758  23.847  0.00  0.00    +0.212 C 
ATOM      4  O   UNL     1       0.761   1.281  23.638  0.00  0.00    -0.218 OA
ATOM      5  C   UNL     1      -0.629   0.960  23.993  0.00  0.00    +0.157 C 
ATOM     22  O   UNL     1      -1.038   0.269  24.183  0.00  0.00    -0.351 OA
ATOM     23  C   UNL     1      -0.504  -0.360  24.155  0.00  0.00    +0.170 C 
ENDROOT
BRANCH   5   6
ATOM      6  C   UNL     1      -0.951   1.718  23.955  0.00  0.00    +0.117 C 
BRANCH   6   7
ATOM      7  C   UNL     1      -1.624   1.860  23.499  0.00  0.00    +0.228 C 
ATOM      8  O   UNL     1      -1.623   1.674  22.695  0.00  0.00    -0.275 OA
ATOM      9  N   UNL     1      -2.297   2.187  23.846  0.00  0.00    -0.276 N 
ATOM     10  C   UNL     1      -2.969   2.328  23.390  0.00  0.00    +0.115 C 
ATOM     11  C   UNL     1      -3.642   2.655  23.737  0.00  0.00    +0.112 C 
ATOM     12  N   UNL     1      -3.643   2.841  24.541  0.00  0.00    -0.304 N 
ATOM     13  C   UNL     1      -2.970   2.700  24.997  0.00  0.00    +0.112 C 
ATOM     14  C   UNL     1      -2.297   2.373  24.650  0.00  0.00    +0.115 C 
BRANCH  12  15
ATOM     15  C   UNL     1      -4.316   3.168  24.888  0.00  0.00    +0.048 A 
ATOM     16  C   UNL     1      -4.361   3.982  25.015  0.00  0.00    +0.017 A 
ATOM     17  C   UNL     1      -5.034   4.308  25.362  0.00  0.00    +0.031 A 
ATOM     18  C   UNL     1      -5.662   3.821  25.582  0.00  0.00    +0.140 A 
ATOM     19  F   UNL     1      -6.336   4.148  25.929  0.00  0.00    -0.204 F 
ATOM     20  C   UNL     1      -5.618   3.007  25.455  0.00  0.00    +0.031 A 
ATOM     21  C   UNL     1      -4.944   2.681  25.108  0.00  0.00    +0.017 A 
ENDBRANCH  12  15
ENDBRANCH   6   7
ENDBRANCH   5   6
BRANCH  23  24
ATOM     24  C   UNL     1      -0.678  -1.151  24.308  0.00  0.00    +0.148 C 
BRANCH  24  25
ATOM     25  N   UNL     1      -1.461  -1.409  24.307  0.00  0.00    -0.196 NA
ATOM     26  C   UNL     1      -1.654  -2.143  24.629  0.00  0.00    +0.300 C 
ATOM     27  O   UNL     1      -1.064  -2.620  24.953  0.00  0.00    -0.265 OA
BRANCH  26  28
ATOM     28  C   UNL     1      -2.438  -2.402  24.629  0.00  0.00    +0.200 A 
ATOM     29  C   UNL     1      -2.993  -2.271  25.226  0.00  0.00    +0.046 A 
ATOM     30  C   UNL     1      -3.701  -2.625  24.996  0.00  0.00    +0.044 A 
ATOM     31  C   UNL     1      -3.585  -2.974  24.258  0.00  0.00    +0.180 A 
ATOM     32  O   UNL     1      -2.804  -2.836  24.031  0.00  0.00    -0.446 OA
ENDBRANCH  26  28
ENDBRANCH  24  25
ENDBRANCH  23  24
TORSDOF 6
ENDMDL
MODEL 5
REMARK VINA RESULT:     -10.5      3.382      6.324
REMARK  Name = 
REMARK  6 active torsions:
REMARK  status: ('A' for Active; 'I' for Inactive)
REMARK    1  A    between atoms: C_5  and  C_6
REMARK    2  A    between atoms: C_6  and  C_7
REMARK    3  A    between atoms: N_12  and  C_15
REMARK    4  A    between atoms: C_23  and  C_24
REMARK    5  A    between atoms: C_24  and  N_25
REMARK    6  A    between atoms: C_26  and  C_28
REMARK                            x       y       z     vdW  Elec       q    Type
REMARK                         _______ _______ _______ _____ _____    ______ ____
ROOT
ATOM      1  O   UNL     1       0.389  -1.410  24.119  0.00  0.00    -0.218 OA
ATOM      2  C   UNL     1       0.136  -0.632  24.012  0.00  0.00    +0.213 C 
ATOM      3  C   UNL     1      -0.457  -0.252  24.440  0.00  0.00    +0.212 C 
ATOM      4  O   UNL     1      -0.903  -0.583  25.051  0.00  0.00    -0.218 OA
ATOM      5  C   UNL     1      -0.528   0.518  24.151  0.00  0.00    +0.157 C 
ATOM     22  O   UNL     1       0.022   0.614  23.543  0.00  0.00    -0.351 OA
ATOM     23  C   UNL     1       0.433  -0.097  23.457  0.00  0.00    +0.170 C 
ENDROOT
BRANCH   5   6
ATOM      6  C   UNL     1      -1.056   1.091  24.421  0.00  0.00    +0.117 C 
BRANCH   6   7
ATOM      7  C   UNL     1      -1.546   1.487  23.888  0.00  0.00    +0.228 C 
ATOM      8  O   UNL     1      -1.356   1.498  23.085  0.00  0.00    -0.275 OA
ATOM      9  N   UNL     1      -2.225   1.870  24.157  0.00  0.00    -0.276 N 
ATOM     10  C   UNL     1      -2.714   2.265  23.623  0.00  0.00    +0.115 C 
ATOM     11  C   UNL     1      -3.393   2.649  23.892  0.00  0.00    +0.112 C 
ATOM     12  N   UNL     1      -3.583   2.637  24.695  0.00  0.00    -0.304 N 
ATOM     13  C   UNL     1      -3.093   2.242  25.229  0.00  0.00    +0.112 C 
ATOM     14  C   UNL     1      -2.414   1.858  24.960  0.00  0.00    +0.115 C 
BRANCH  12  15
ATOM     15  C   UNL     1      -4.262   3.021  24.964  0.00  0.00    +0.048 A 
ATOM     16  C   UNL     1      -4.954   2.592  25.093  0.00  0.00    +0.017 A 
ATOM     17  C   UNL     1      -5.633   2.976  25.362  0.00  0.00    +0.031 A 
ATOM     18  C   UNL     1      -5.619   3.789  25.502  0.00  0.00    +0.140 A 
ATOM     19  F   UNL     1      -6.298   4.173  25.771  0.00  0.00    -0.204 F 
ATOM     20  C   UNL     1      -4.927   4.218  25.373  0.00  0.00    +0.031 A 
ATOM     21  C   UNL     1      -4.248   3.834  25.104  0.00  0.00    +0.017 A 
ENDBRANCH  12  15
ENDBRANCH   6   7
ENDBRANCH   5   6
BRANCH  23  24
ATOM     24  C   UNL     1       1.033  -0.247  22.913  0.00  0.00    +0.148 C 
BRANCH  24  25
ATOM     25  N   UNL     1       1.811  -0.032  23.086  0.00  0.00    -0.196 NA
ATOM     26  C   UNL     1       2.386  -0.049  22.496  0.00  0.00    +0.300 C 
ATOM     27  O   UNL     1       2.183  -0.281  21.730  0.00  0.00    -0.265 OA
BRANCH  26  28
ATOM     28  C   UNL     1       3.163   0.166  22.669  0.00  0.00    +0.200 A 
ATOM     29  C   UNL     1       3.527   0.879  22.467  0.00  0.00    +0.046 A 
ATOM     30  C   UNL     1       4.301   0.858  22.749  0.00  0.00    +0.044 A 
ATOM     31  C   UNL     1       4.417   0.133  23.124  0.00  0.00    +0.180 A 
ATOM     32  O   UNL     1       3.714  -0.295  23.075  0.00  0.00    -0.446 OA
ENDBRANCH  26  28
ENDBRANCH  24  25
ENDBRANCH  23  24
TORSDOF 6
ENDMDL
MODEL 6
REMARK VINA RESULT:     -10.0      3.059      4.263
REMARK  Name = 
REMARK  6 active torsions:
REMARK  status: ('A' for Active; 'I' for Inactive)
REMARK    1  A    between atoms: C_5  and  C_6
REMARK    2  A    between atoms: C_6  and  C_7
REMARK    3  A    between atoms: N_12  and  C_15
REMARK    4  A    between atoms: C_23  and  C_24
REMARK    5  A    between atoms: C_24  and  N_25
REMARK    6  A    between atoms: C_26  and  C_28
REMARK                            x       y       z     vdW  Elec       q    Type
REMARK                         _______ _______ _______ _____ _____    ______ ____
ROOT
ATOM      1  O   UNL     1      -4.013  -1.114  25.736  0.00  0.00    -0.218 OA
ATOM      2  C   UNL     1      -3.443  -0.695  25.311  0.00  0.00    +0.213 C 
ATOM      3  C   UNL     1      -2.657  -0.921  25.200  0.00  0.00    +0.212 C 
ATOM      4  O   UNL     1      -2.303  -1.606  25.495  0.00  0.00    -0.218 OA
ATOM      5  C   UNL     1      -2.287  -0.342  24.743  0.00  0.00    +0.157 C 
ATOM     22  O   UNL     1      -2.844   0.242  24.572  0.00  0.00    -0.351 OA
ATOM     23  C   UNL     1      -3.559   0.024  24.923  0.00  0.00    +0.170 C 
ENDROOT
BRANCH   5   6
ATOM      6  C   UNL     1      -1.499  -0.346  24.501  0.00  0.00    +0.117 C 
BRANCH   6   7
ATOM      7  C   UNL     1      -1.074   0.360  24.463  0.00  0.00    +0.228 C 
ATOM      8  O   UNL     1      -1.389   1.048  24.792  0.00  0.00    -0.275 OA
ATOM      9  N   UNL     1      -0.336   0.379  24.095  0.00  0.00    -0.276 N 
ATOM     10  C   UNL     1       0.088   1.085  24.058  0.00  0.00    +0.115 C 
ATOM     11  C   UNL     1       0.826   1.104  23.690  0.00  0.00    +0.112 C 
ATOM     12  N   UNL     1       1.141   0.416  23.361  0.00  0.00    -0.304 N 
ATOM     13  C   UNL     1       0.716  -0.291  23.399  0.00  0.00    +0.112 C 
ATOM     14  C   UNL     1      -0.022  -0.309  23.766  0.00  0.00    +0.115 C 
BRANCH  12  15
ATOM     15  C   UNL     1       1.879   0.435  22.994  0.00  0.00    +0.048 A 
ATOM     16  C   UNL     1       2.482   0.905  23.302  0.00  0.00    +0.017 A 
ATOM     17  C   UNL     1       3.221   0.924  22.934  0.00  0.00    +0.031 A 
ATOM     18  C   UNL     1       3.355   0.472  22.258  0.00  0.00    +0.140 A 
ATOM     19  F   UNL     1       4.094   0.490  21.890  0.00  0.00    -0.204 F 
ATOM     20  C   UNL     1       2.753   0.001  21.948  0.00  0.00    +0.031 A 
ATOM     21  C   UNL     1       2.015  -0.017  22.316  0.00  0.00    +0.017 A 
ENDBRANCH  12  15
ENDBRANCH   6   7
ENDBRANCH   5   6
BRANCH  23  24
ATOM     24  C   UNL     1      -4.264   0.449  24.891  0.00  0.00    +0.148 C 
BRANCH  24  25
ATOM     25  N   UNL     1      -4.266   1.259  25.047  0.00  0.00    -0.196 NA
ATOM     26  C   UNL     1      -4.964   1.692  24.978  0.00  0.00    +0.300 C 
ATOM     27  O   UNL     1      -5.662   1.314  24.753  0.00  0.00    -0.265 OA
BRANCH  26  28
ATOM     28  C   UNL     1      -4.966   2.502  25.135  0.00  0.00    +0.200 A 
ATOM     29  C   UNL     1      -5.485   2.898  25.639  0.00  0.00    +0.046 A 
ATOM     30  C   UNL     1      -5.287   3.699  25.630  0.00  0.00    +0.044 A 
ATOM     31  C   UNL     1      -4.647   3.798  25.120  0.00  0.00    +0.180 A 
ATOM     32  O   UNL     1      -4.448   3.058  24.814  0.00  0.00    -0.446 OA
ENDBRANCH  26  28
ENDBRANCH  24  25
ENDBRANCH  23  24
TORSDOF 6
ENDMDL
MODEL 7
REMARK VINA RESULT:      -9.9      2.603      4.785
REMARK  Name = 
REMARK  6 active torsions:
REMARK  status: ('A' for Active; 'I' for Inactive)
REMARK    1  A    between atoms: C_5  and  C_6
REMARK    2  A    between atoms: C_6  and  C_7
REMARK    3  A    between atoms: N_12  and  C_15
REMARK    4  A    between atoms: C_23  and  C_24
REMARK    5  A    between atoms: C_24  and  N_25
REMARK    6  A    between atoms: C_26  and  C_28
REMARK                            x       y       z     vdW  Elec       q    Type
REMARK                         _______ _______ _______ _____ _____    ______ ____
ROOT
ATOM      1  O   UNL     1      -2.058  -2.422  25.116  0.00  0.00    -0.218 OA
ATOM      2  C   UNL     1      -1.827  -1.631  25.064  0.00  0.00    +0.213 C 
ATOM      3  C   UNL     1      -1.052  -1.351  25.080  0.00  0.00    +0.212 C 
ATOM      4  O   UNL     1      -0.371  -1.812  25.151  0.00  0.00    -0.218 OA
ATOM      5  C   UNL     1      -1.076  -0.529  25.012  0.00  0.00    +0.157 C 
ATOM     22  O   UNL     1      -1.867  -0.301  24.954  0.00  0.00    -0.351 OA
ATOM     23  C   UNL     1      -2.331  -0.983  24.986  0.00  0.00    +0.170 C 
ENDROOT
BRANCH   5   6
ATOM      6  C   UNL     1      -0.424  -0.024  25.004  0.00  0.00    +0.117 C 
BRANCH   6   7
ATOM      7  C   UNL     1      -0.329   0.518  24.388  0.00  0.00    +0.228 C 
ATOM      8  O   UNL     1      -0.072   0.260  23.648  0.00  0.00    -0.275 OA
ATOM      9  N   UNL     1      -0.491   1.317  24.513  0.00  0.00    -0.276 N 
ATOM     10  C   UNL     1      -0.396   1.858  23.898  0.00  0.00    +0.115 C 
ATOM     11  C   UNL     1      -0.558   2.657  24.022  0.00  0.00    +0.112 C 
ATOM     12  N   UNL     1      -0.815   2.916  24.762  0.00  0.00    -0.304 N 
ATOM     13  C   UNL     1      -0.910   2.374  25.378  0.00  0.00    +0.112 C 
ATOM     14  C   UNL     1      -0.748   1.575  25.253  0.00  0.00    +0.115 C 
BRANCH  12  15
ATOM     15  C   UNL     1      -0.977   3.715  24.886  0.00  0.00    +0.048 A 
ATOM     16  C   UNL     1      -0.420   4.286  24.678  0.00  0.00    +0.017 A 
ATOM     17  C   UNL     1      -0.583   5.086  24.803  0.00  0.00    +0.031 A 
ATOM     18  C   UNL     1      -1.302   5.313  25.136  0.00  0.00    +0.140 A 
ATOM     19  F   UNL     1      -1.465   6.112  25.261  0.00  0.00    -0.204 F 
ATOM     20  C   UNL     1      -1.860   4.742  25.345  0.00  0.00    +0.031 A 
ATOM     21  C   UNL     1      -1.697   3.943  25.220  0.00  0.00    +0.017 A 
ENDBRANCH  12  15
ENDBRANCH   6   7
ENDBRANCH   5   6
BRANCH  23  24
ATOM     24  C   UNL     1      -3.155  -1.011  24.947  0.00  0.00    +0.148 C 
BRANCH  24  25
ATOM     25  N   UNL     1      -3.600  -0.339  25.125  0.00  0.00    -0.196 NA
ATOM     26  C   UNL     1      -4.315  -0.203  24.739  0.00  0.00    +0.300 C 
ATOM     27  O   UNL     1      -4.586  -0.739  24.173  0.00  0.00    -0.265 OA
BRANCH  26  28
ATOM     28  C   UNL     1      -4.760   0.468  24.917  0.00  0.00    +0.200 A 
ATOM     29  C   UNL     1      -4.743   1.185  24.508  0.00  0.00    +0.046 A 
ATOM     30  C   UNL     1      -5.273   1.699  24.875  0.00  0.00    +0.044 A 
ATOM     31  C   UNL     1      -5.618   1.301  25.510  0.00  0.00    +0.180 A 
ATOM     32  O   UNL     1      -5.301   0.541  25.536  0.00  0.00    -0.446 OA
ENDBRANCH  26  28
ENDBRANCH  24  25
ENDBRANCH  23  24
TORSDOF 6
ENDMDL
MODEL 8
REMARK VINA RESULT:      -8.4     14.499     16.046
REMARK  Name = 
REMARK  6 active torsions:
REMARK  status: ('A' for Active; 'I' for Inactive)
REMARK    1  A    between atoms: C_5  and  C_6
REMARK    2  A    between atoms: C_6  and  C_7
REMARK    3  A    between atoms: N_12  and  C_15
REMARK    4  A    between atoms: C_23  and  C_24
REMARK    5  A    between atoms: C_24  and  N_25
REMARK    6  A    between atoms: C_26  and  C_28
REMARK                            x       y       z     vdW  Elec       q    Type
REMARK                         _______ _______ _______ _____ _____    ______ ____
ROOT
ATOM      1  O   UNL     1      -0.832  -9.846  15.105  0.00  0.00    -0.218 OA
ATOM      2  C   UNL     1      -1.592 -10.165  15.113  0.00  0.00    +0.213 C 
ATOM      3  C   UNL     1      -2.075 -10.250  15.776  0.00  0.00    +0.212 C 
ATOM      4  O   UNL     1      -1.883 -10.030  16.548  0.00  0.00    -0.218 OA
ATOM      5  C   UNL     1      -2.785 -10.594  15.532  0.00  0.00    +0.157 C 
ATOM     22  O   UNL     1      -2.740 -10.722  14.718  0.00  0.00    -0.351 OA
ATOM     23  C   UNL     1      -2.003 -10.457  14.459  0.00  0.00    +0.170 C 
ENDROOT
BRANCH   5   6
ATOM      6  C   UNL     1      -3.426 -10.778  16.017  0.00  0.00    +0.117 C 
BRANCH   6   7
ATOM      7  C   UNL     1      -4.197 -10.655  15.748  0.00  0.00    +0.228 C 
ATOM      8  O   UNL     1      -4.342 -10.566  14.941  0.00  0.00    -0.275 OA
ATOM      9  N   UNL     1      -4.821 -10.620  16.285  0.00  0.00    -0.276 N 
ATOM     10  C   UNL     1      -5.591 -10.498  16.016  0.00  0.00    +0.115 C 
ATOM     11  C   UNL     1      -6.216 -10.463  16.554  0.00  0.00    +0.112 C 
ATOM     12  N   UNL     1      -6.071 -10.552  17.361  0.00  0.00    -0.304 N 
ATOM     13  C   UNL     1      -5.300 -10.674  17.631  0.00  0.00    +0.112 C 
ATOM     14  C   UNL     1      -4.676 -10.709  17.093  0.00  0.00    +0.115 C 
BRANCH  12  15
ATOM     15  C   UNL     1      -6.696 -10.517  17.899  0.00  0.00    +0.048 A 
ATOM     16  C   UNL     1      -7.427 -10.220  17.662  0.00  0.00    +0.017 A 
ATOM     17  C   UNL     1      -8.052 -10.185  18.201  0.00  0.00    +0.031 A 
ATOM     18  C   UNL     1      -7.944 -10.449  18.974  0.00  0.00    +0.140 A 
ATOM     19  F   UNL     1      -8.569 -10.415  19.513  0.00  0.00    -0.204 F 
ATOM     20  C   UNL     1      -7.213 -10.747  19.212  0.00  0.00    +0.031 A 
ATOM     21  C   UNL     1      -6.588 -10.781  18.673  0.00  0.00    +0.017 A 
ENDBRANCH  12  15
ENDBRANCH   6   7
ENDBRANCH   5   6
BRANCH  23  24
ATOM     24  C   UNL     1      -1.725 -10.479  13.683  0.00  0.00    +0.148 C 
BRANCH  24  25
ATOM     25  N   UNL     1      -2.216 -10.247  13.062  0.00  0.00    -0.196 NA
ATOM     26  C   UNL     1      -1.971 -10.349  12.281  0.00  0.00    +0.300 C 
ATOM     27  O   UNL     1      -1.234 -10.684  12.121  0.00  0.00    -0.265 OA
BRANCH  26  28
ATOM     28  C   UNL     1      -2.461 -10.116  11.660  0.00  0.00    +0.200 A 
ATOM     29  C   UNL     1      -2.230  -9.691  10.992  0.00  0.00    +0.046 A 
ATOM     30  C   UNL     1      -2.896  -9.580  10.518  0.00  0.00    +0.044 A 
ATOM     31  C   UNL     1      -3.538  -9.938  10.892  0.00  0.00    +0.180 A 
ATOM     32  O   UNL     1      -3.270 -10.269  11.598  0.00  0.00    -0.446 OA
ENDBRANCH  26  28
ENDBRANCH  24  25
ENDBRANCH  23  24
TORSDOF 6
ENDMDL
MODEL 9
REMARK VINA RESULT:      -8.3     15.019     17.132
REMARK  Name = 
REMARK  6 active torsions:
REMARK  status: ('A' for Active; 'I' for Inactive)
REMARK    1  A    between atoms: C_5  and  C_6
REMARK    2  A    between atoms: C_6  and  C_7
REMARK    3  A    between atoms: N_12  and  C_15
REMARK    4  A    between atoms: C_23  and  C_24
REMARK    5  A    between atoms: C_24  and  N_25
REMARK    6  A    between atoms: C_26  and  C_28
REMARK                            x       y       z     vdW  Elec       q    Type
REMARK                         _______ _______ _______ _____ _____    ______ ____
ROOT
ATOM      1  O   UNL     1      -1.209  -9.665  11.507  0.00  0.00    -0.218 OA
ATOM      2  C   UNL     1      -1.915  -9.932  11.839  0.00  0.00    +0.213 C 
ATOM      3  C   UNL     1      -2.006 -10.252  12.593  0.00  0.00    +0.212 C 
ATOM      4  O   UNL     1      -1.406 -10.362  13.149  0.00  0.00    -0.218 OA
ATOM      5  C   UNL     1      -2.803 -10.443  12.695  0.00  0.00    +0.157 C 
ATOM     22  O   UNL     1      -3.204 -10.241  12.004  0.00  0.00    -0.351 OA
ATOM     23  C   UNL     1      -2.656  -9.925  11.474  0.00  0.00    +0.170 C 
ENDROOT
BRANCH   5   6
ATOM      6  C   UNL     1      -3.138 -10.778  13.370  0.00  0.00    +0.117 C 
BRANCH   6   7
ATOM      7  C   UNL     1      -3.944 -10.683  13.522  0.00  0.00    +0.228 C 
ATOM      8  O   UNL     1      -4.474 -10.606  12.895  0.00  0.00    -0.275 OA
ATOM      9  N   UNL     1      -4.218 -10.665  14.300  0.00  0.00    -0.276 N 
ATOM     10  C   UNL     1      -5.023 -10.570  14.451  0.00  0.00    +0.115 C 
ATOM     11  C   UNL     1      -5.298 -10.553  15.228  0.00  0.00    +0.112 C 
ATOM     12  N   UNL     1      -4.767 -10.630  15.855  0.00  0.00    -0.304 N 
ATOM     13  C   UNL     1      -3.961 -10.725  15.704  0.00  0.00    +0.112 C 
ATOM     14  C   UNL     1      -3.687 -10.743  14.926  0.00  0.00    +0.115 C 
BRANCH  12  15
ATOM     15  C   UNL     1      -5.042 -10.613  16.633  0.00  0.00    +0.048 A 
ATOM     16  C   UNL     1      -5.830 -10.427  16.788  0.00  0.00    +0.017 A 
ATOM     17  C   UNL     1      -6.104 -10.409  17.567  0.00  0.00    +0.031 A 
ATOM     18  C   UNL     1      -5.589 -10.578  18.188  0.00  0.00    +0.140 A 
ATOM     19  F   UNL     1      -5.864 -10.560  18.967  0.00  0.00    -0.204 F 
ATOM     20  C   UNL     1      -4.801 -10.764  18.034  0.00  0.00    +0.031 A 
ATOM     21  C   UNL     1      -4.527 -10.781  17.256  0.00  0.00    +0.017 A 
ENDBRANCH  12  15
ENDBRANCH   6   7
ENDBRANCH   5   6
BRANCH  23  24
ATOM     24  C   UNL     1      -2.819  -9.650  10.714  0.00  0.00    +0.148 C 
BRANCH  24  25
ATOM     25  N   UNL     1      -3.588  -9.684  10.418  0.00  0.00    -0.196 NA
ATOM     26  C   UNL     1      -3.765  -9.347   9.687  0.00  0.00    +0.300 C 
ATOM     27  O   UNL     1      -3.172  -8.975   9.250  0.00  0.00    -0.265 OA
BRANCH  26  28
ATOM     28  C   UNL     1      -4.535  -9.381   9.392  0.00  0.00    +0.200 A 
ATOM     29  C   UNL     1      -4.800  -9.871   8.783  0.00  0.00    +0.046 A 
ATOM     30  C   UNL     1      -5.603  -9.724   8.669  0.00  0.00    +0.044 A 
ATOM     31  C   UNL     1      -5.834  -9.143   9.207  0.00  0.00    +0.180 A 
ATOM     32  O   UNL     1      -5.174  -8.931   9.653  0.00  0.00    -0.446 OA
ENDBRANCH  26  28
ENDBRANCH  24  25
ENDBRANCH  23  24
TORSDOF 6
ENDMDL
MODEL 10
REMARK VINA RESULT:      -8.0     14.610     16.936
REMARK  Name = 
REMARK  6 active torsions:
REMARK  status: ('A' for Active; 'I' for Inactive)
REMARK    1  A    between atoms: C_5  and  C_6
REMARK    2  A    between atoms: C_6  and  C_7
REMARK    3  A    between atoms: N_12  and  C_15
REMARK    4  A    between atoms: C_23  and  C_24
REMARK    5  A    between atoms: C_24  and  N_25
REMARK    6  A    between atoms: C_26  and  C_28
REMARK                            x       y       z     vdW  Elec       q    Type
REMARK                         _______ _______ _______ _____ _____    ______ ____
ROOT
ATOM      1  O   UNL     1      -9.721  -9.899  15.436  0.00  0.00    -0.218 OA
ATOM      2  C   UNL     1      -8.999  -9.815  15.046  0.00  0.00    +0.213 C 
ATOM      3  C   UNL     1      -8.888  -9.804  14.228  0.00  0.00    +0.212 C 
ATOM      4  O   UNL     1      -9.480  -9.877  13.658  0.00  0.00    -0.218 OA
ATOM      5  C   UNL     1      -8.082  -9.708  14.081  0.00  0.00    +0.157 C 
ATOM     22  O   UNL     1      -7.694  -9.660  14.808  0.00  0.00    -0.351 OA
ATOM     23  C   UNL     1      -8.261  -9.725  15.404  0.00  0.00    +0.170 C 
ENDROOT
BRANCH   5   6
ATOM      6  C   UNL     1      -7.726  -9.668  13.338  0.00  0.00    +0.117 C 
BRANCH   6   7
ATOM      7  C   UNL     1      -7.051 -10.116  13.179  0.00  0.00    +0.228 C 
ATOM      8  O   UNL     1      -6.880 -10.780  13.637  0.00  0.00    -0.275 OA
ATOM      9  N   UNL     1      -6.548  -9.899  12.562  0.00  0.00    -0.276 N 
ATOM     10  C   UNL     1      -5.874 -10.346  12.403  0.00  0.00    +0.115 C 
ATOM     11  C   UNL     1      -5.371 -10.129  11.786  0.00  0.00    +0.112 C 
ATOM     12  N   UNL     1      -5.542  -9.465  11.328  0.00  0.00    -0.304 N 
ATOM     13  C   UNL     1      -6.218  -9.017  11.488  0.00  0.00    +0.112 C 
ATOM     14  C   UNL     1      -6.720  -9.234  12.104  0.00  0.00    +0.115 C 
BRANCH  12  15
ATOM     15  C   UNL     1      -5.040  -9.248  10.712  0.00  0.00    +0.048 A 
ATOM     16  C   UNL     1      -4.223  -9.241  10.828  0.00  0.00    +0.017 A 
ATOM     17  C   UNL     1      -3.720  -9.024  10.210  0.00  0.00    +0.031 A 
ATOM     18  C   UNL     1      -4.035  -8.814   9.477  0.00  0.00    +0.140 A 
ATOM     19  F   UNL     1      -3.532  -8.597   8.860  0.00  0.00    -0.204 F 
ATOM     20  C   UNL     1      -4.851  -8.820   9.360  0.00  0.00    +0.031 A 
ATOM     21  C   UNL     1      -5.354  -9.038   9.978  0.00  0.00    +0.017 A 
ENDBRANCH  12  15
ENDBRANCH   6   7
ENDBRANCH   5   6
BRANCH  23  24
ATOM     24  C   UNL     1      -8.116  -9.705  16.216  0.00  0.00    +0.148 C 
BRANCH  24  25
ATOM     25  N   UNL     1      -7.414 -10.016  16.518  0.00  0.00    -0.196 NA
ATOM     26  C   UNL     1      -7.189  -9.850  17.293  0.00  0.00    +0.300 C 
ATOM     27  O   UNL     1      -7.665  -9.372  17.767  0.00  0.00    -0.265 OA
BRANCH  26  28
ATOM     28  C   UNL     1      -6.487 -10.161  17.595  0.00  0.00    +0.200 A 
ATOM     29  C   UNL     1      -6.389 -10.507  18.338  0.00  0.00    +0.046 A 
ATOM     30  C   UNL     1      -5.601 -10.741  18.408  0.00  0.00    +0.044 A 
ATOM     31  C   UNL     1      -5.212 -10.540  17.709  0.00  0.00    +0.180 A 
ATOM     32  O   UNL     1      -5.759 -10.182  17.207  0.00  0.00    -0.446 OA
ENDBRANCH  26  28
ENDBRANCH  24  25
ENDBRANCH  23  24
TORSDOF 6
ENDMDL
