MODEL 1
REMARK VINA RESULT:     -12.4      0.000      0.000
REMARK  Name = 
REMARK  7 active torsions:
REMARK  status: ('A' for Active; 'I' for Inactive)
REMARK    1  A    between atoms: C_2  and  C_4
REMARK    2  A    between atoms: C_4  and  C_5
REMARK    3  A    between atoms: C_7  and  C_25
REMARK    4  A    between atoms: N_11  and  C_12
REMARK    5  A    between atoms: C_12  and  C_13
REMARK    6  A    between atoms: N_27  and  C_28
REMARK    7  A    between atoms: C_28  and  C_29
REMARK                            x       y       z     vdW  Elec       q    Type
REMARK                         _______ _______ _______ _____ _____    ______ ____
ROOT
ATOM      5  C   UNL     1      -3.443  -0.313  24.920  0.00  0.00    +0.095 C 
ATOM      6  N   UNL     1      -2.641  -0.502  24.883  0.00  0.00    -0.207 NA
ATOM      7  C   UNL     1      -1.993   0.008  24.846  0.00  0.00    +0.155 C 
ATOM      8  C   UNL     1      -1.988   0.833  24.836  0.00  0.00    +0.055 C 
ATOM      9  C   UNL     1      -2.630   1.351  24.862  0.00  0.00    -0.002 A 
ATOM     10  C   UNL     1      -2.551   2.172  24.849  0.00  0.00    +0.072 A 
ATOM     11  N   UNL     1      -3.307   2.502  24.883  0.00  0.00    -0.320 N 
ATOM     19  C   UNL     1      -3.853   1.884  24.916  0.00  0.00    +0.060 A 
ATOM     20  C   UNL     1      -3.434   1.173  24.904  0.00  0.00    +0.011 A 
ATOM     21  C   UNL     1      -3.796   0.431  24.929  0.00  0.00    -0.005 A 
ATOM     22  C   UNL     1      -4.663   0.448  24.972  0.00  0.00    -0.003 A 
ATOM     23  C   UNL     1      -5.082   1.159  24.985  0.00  0.00    +0.001 A 
ATOM     24  C   UNL     1      -4.676   1.877  24.957  0.00  0.00    +0.017 A 
ENDROOT
BRANCH   7  25
ATOM     25  C   UNL     1      -1.253  -0.355  24.813  0.00  0.00    +0.258 C 
ATOM     26  O   UNL     1      -0.983  -0.800  25.454  0.00  0.00    -0.272 OA
ATOM     27  N   UNL     1      -0.783  -0.274  24.140  0.00  0.00    -0.196 NA
BRANCH  27  28
ATOM     28  C   UNL     1      -0.043  -0.638  24.109  0.00  0.00    +0.179 C 
BRANCH  28  29
ATOM     29  C   UNL     1       0.487  -0.443  23.507  0.00  0.00    +0.144 A 
ATOM     30  C   UNL     1       0.330  -0.465  22.697  0.00  0.00    +0.038 A 
ATOM     31  C   UNL     1       1.012  -0.228  22.298  0.00  0.00    +0.036 A 
ATOM     32  C   UNL     1       1.591  -0.059  22.862  0.00  0.00    +0.123 A 
ATOM     33  C   UNL     1       2.359   0.198  22.706  0.00  0.00    +0.072 C 
ATOM     34  O   UNL     1       1.266  -0.192  23.609  0.00  0.00    -0.460 OA
ENDBRANCH  28  29
ENDBRANCH  27  28
ENDBRANCH   7  25
BRANCH   5   4
ATOM      4  C   UNL     1      -3.960  -0.955  24.953  0.00  0.00    +0.022 C 
BRANCH   4   2
ATOM      1  C   UNL     1      -3.943  -1.650  23.704  0.00  0.00    +0.000 C 
ATOM      2  C   UNL     1      -3.799  -1.637  24.516  0.00  0.00    +0.002 C 
ATOM      3  C   UNL     1      -3.494  -2.305  24.893  0.00  0.00    +0.000 C 
ENDBRANCH   4   2
ENDBRANCH   5   4
BRANCH  11  12
ATOM     12  C   UNL     1      -3.486   3.307  24.883  0.00  0.00    +0.155 C 
BRANCH  12  13
ATOM     13  C   UNL     1      -2.949   3.850  25.194  0.00  0.00    +0.123 A 
ATOM     14  N   UNL     1      -2.868   4.050  25.990  0.00  0.00    -0.080 NA
ATOM     15  O   UNL     1      -2.267   4.612  26.052  0.00  0.00    -0.358 OA
ATOM     16  C   UNL     1      -1.976   4.758  25.294  0.00  0.00    +0.155 A 
ATOM     17  C   UNL     1      -1.370   5.284  25.100  0.00  0.00    +0.075 C 
ATOM     18  C   UNL     1      -2.398   4.287  24.764  0.00  0.00    +0.056 A 
ENDBRANCH  12  13
ENDBRANCH  11  12
TORSDOF 7
ENDMDL
MODEL 2
REMARK VINA RESULT:     -11.3      2.272      3.504
REMARK  Name = 
REMARK  7 active torsions:
REMARK  status: ('A' for Active; 'I' for Inactive)
REMARK    1  A    between atoms: C_2  and  C_4
REMARK    2  A    between atoms: C_4  and  C_5
REMARK    3  A    between atoms: C_7  and  C_25
REMARK    4  A    between atoms: N_11  and  C_12
REMARK    5  A    between atoms: C_12  and  C_13
REMARK    6  A    between atoms: N_27  and  C_28
REMARK    7  A    between atoms: C_28  and  C_29
REMARK                            x       y       z     vdW  Elec       q    Type
REMARK                         _______ _______ _______ _____ _____    ______ ____
ROOT
ATOM      5  C   UNL     1      -4.587   2.355  24.905  0.00  0.00    +0.095 C 
ATOM      6  N   UNL     1      -4.499   1.626  24.529  0.00  0.00    -0.207 NA
ATOM      7  C   UNL     1      -3.803   1.246  24.300  0.00  0.00    +0.155 C 
ATOM      8  C   UNL     1      -3.024   1.501  24.390  0.00  0.00    +0.055 C 
ATOM      9  C   UNL     1      -2.748   2.200  24.732  0.00  0.00    -0.002 A 
ATOM     10  C   UNL     1      -1.948   2.392  24.789  0.00  0.00    +0.072 A 
ATOM     11  N   UNL     1      -1.888   3.127  25.159  0.00  0.00    -0.320 N 
ATOM     19  C   UNL     1      -2.651   3.389  25.331  0.00  0.00    +0.060 A 
ATOM     20  C   UNL     1      -3.183   2.815  25.067  0.00  0.00    +0.011 A 
ATOM     21  C   UNL     1      -4.002   2.884  25.144  0.00  0.00    -0.005 A 
ATOM     22  C   UNL     1      -4.274   3.614  25.529  0.00  0.00    -0.003 A 
ATOM     23  C   UNL     1      -3.743   4.187  25.793  0.00  0.00    +0.001 A 
ATOM     24  C   UNL     1      -2.931   4.074  25.694  0.00  0.00    +0.017 A 
ENDROOT
BRANCH   7  25
ATOM     25  C   UNL     1      -3.900   0.513  23.933  0.00  0.00    +0.258 C 
ATOM     26  O   UNL     1      -4.119   0.477  23.138  0.00  0.00    -0.272 OA
ATOM     27  N   UNL     1      -3.778  -0.182  24.360  0.00  0.00    -0.196 NA
BRANCH  27  28
ATOM     28  C   UNL     1      -3.875  -0.914  23.991  0.00  0.00    +0.179 C 
BRANCH  28  29
ATOM     29  C   UNL     1      -3.496  -1.581  24.294  0.00  0.00    +0.144 A 
ATOM     30  C   UNL     1      -3.850  -2.181  24.738  0.00  0.00    +0.038 A 
ATOM     31  C   UNL     1      -3.269  -2.736  24.924  0.00  0.00    +0.036 A 
ATOM     32  C   UNL     1      -2.557  -2.480  24.596  0.00  0.00    +0.123 A 
ATOM     33  C   UNL     1      -1.832  -2.870  24.648  0.00  0.00    +0.072 C 
ATOM     34  O   UNL     1      -2.697  -1.767  24.207  0.00  0.00    -0.460 OA
ENDBRANCH  28  29
ENDBRANCH  27  28
ENDBRANCH   7  25
BRANCH   5   4
ATOM      4  C   UNL     1      -5.363   2.585  25.061  0.00  0.00    +0.022 C 
BRANCH   4   2
ATOM      1  C   UNL     1      -6.490   1.762  24.752  0.00  0.00    +0.000 C 
ATOM      2  C   UNL     1      -5.922   2.022  25.290  0.00  0.00    +0.002 C 
ATOM      3  C   UNL     1      -5.911   1.719  26.058  0.00  0.00    +0.000 C 
ENDBRANCH   4   2
ENDBRANCH   5   4
BRANCH  11  12
ATOM     12  C   UNL     1      -1.188   3.530  25.329  0.00  0.00    +0.155 C 
BRANCH  12  13
ATOM     13  C   UNL     1      -0.544   3.124  25.645  0.00  0.00    +0.123 A 
ATOM     14  N   UNL     1       0.059   2.760  25.215  0.00  0.00    -0.080 NA
ATOM     15  O   UNL     1       0.586   2.422  25.751  0.00  0.00    -0.358 OA
ATOM     16  C   UNL     1       0.309   2.577  26.513  0.00  0.00    +0.155 A 
ATOM     17  C   UNL     1       0.668   2.339  27.217  0.00  0.00    +0.075 C 
ATOM     18  C   UNL     1      -0.389   3.011  26.447  0.00  0.00    +0.056 A 
ENDBRANCH  12  13
ENDBRANCH  11  12
TORSDOF 7
ENDMDL
MODEL 3
REMARK VINA RESULT:     -11.2      1.894      4.300
REMARK  Name = 
REMARK  7 active torsions:
REMARK  status: ('A' for Active; 'I' for Inactive)
REMARK    1  A    between atoms: C_2  and  C_4
REMARK    2  A    between atoms: C_4  and  C_5
REMARK    3  A    between atoms: C_7  and  C_25
REMARK    4  A    between atoms: N_11  and  C_12
REMARK    5  A    between atoms: C_12  and  C_13
REMARK    6  A    between atoms: N_27  and  C_28
REMARK    7  A    between atoms: C_28  and  C_29
REMARK                            x       y       z     vdW  Elec       q    Type
REMARK                         _______ _______ _______ _____ _____    ______ ____
ROOT
ATOM      5  C   UNL     1      -2.513  -1.264  24.539  0.00  0.00    +0.095 C 
ATOM      6  N   UNL     1      -3.236  -0.869  24.511  0.00  0.00    -0.207 NA
ATOM      7  C   UNL     1      -3.378  -0.056  24.491  0.00  0.00    +0.155 C 
ATOM      8  C   UNL     1      -2.831   0.562  24.496  0.00  0.00    +0.055 C 
ATOM      9  C   UNL     1      -2.008   0.520  24.520  0.00  0.00    -0.002 A 
ATOM     10  C   UNL     1      -1.518   1.184  24.522  0.00  0.00    +0.072 A 
ATOM     11  N   UNL     1      -0.735   0.924  24.549  0.00  0.00    -0.320 N 
ATOM     19  C   UNL     1      -0.741   0.099  24.564  0.00  0.00    +0.060 A 
ATOM     20  C   UNL     1      -1.528  -0.151  24.546  0.00  0.00    +0.011 A 
ATOM     21  C   UNL     1      -1.753  -0.945  24.555  0.00  0.00    -0.005 A 
ATOM     22  C   UNL     1      -1.096  -1.512  24.584  0.00  0.00    -0.003 A 
ATOM     23  C   UNL     1      -0.310  -1.263  24.602  0.00  0.00    +0.001 A 
ATOM     24  C   UNL     1      -0.133  -0.457  24.592  0.00  0.00    +0.017 A 
ENDROOT
BRANCH   7  25
ATOM     25  C   UNL     1      -4.172   0.168  24.464  0.00  0.00    +0.258 C 
ATOM     26  O   UNL     1      -4.689  -0.206  23.941  0.00  0.00    -0.272 OA
ATOM     27  N   UNL     1      -4.448   0.766  24.961  0.00  0.00    -0.196 NA
BRANCH  27  28
ATOM     28  C   UNL     1      -5.242   0.990  24.933  0.00  0.00    +0.179 C 
BRANCH  28  29
ATOM     29  C   UNL     1      -5.484   1.697  25.282  0.00  0.00    +0.144 A 
ATOM     30  C   UNL     1      -6.018   1.772  25.907  0.00  0.00    +0.038 A 
ATOM     31  C   UNL     1      -6.098   2.575  26.080  0.00  0.00    +0.036 A 
ATOM     32  C   UNL     1      -5.613   2.996  25.562  0.00  0.00    +0.123 A 
ATOM     33  C   UNL     1      -5.524   3.816  25.541  0.00  0.00    +0.072 C 
ATOM     34  O   UNL     1      -5.234   2.453  25.069  0.00  0.00    -0.460 OA
ENDBRANCH  28  29
ENDBRANCH  27  28
ENDBRANCH   7  25
BRANCH   5   4
ATOM      4  C   UNL     1      -2.556  -2.087  24.553  0.00  0.00    +0.022 C 
BRANCH   4   2
ATOM      1  C   UNL     1      -3.331  -2.504  25.679  0.00  0.00    +0.000 C 
ATOM      2  C   UNL     1      -3.225  -2.460  24.862  0.00  0.00    +0.002 C 
ATOM      3  C   UNL     1      -3.786  -2.788  24.354  0.00  0.00    +0.000 C 
ENDBRANCH   4   2
ENDBRANCH   5   4
BRANCH  11  12
ATOM     12  C   UNL     1      -0.065   1.404  24.559  0.00  0.00    +0.155 C 
BRANCH  12  13
ATOM     13  C   UNL     1      -0.101   2.157  24.892  0.00  0.00    +0.123 A 
ATOM     14  N   UNL     1       0.038   2.346  25.684  0.00  0.00    -0.080 NA
ATOM     15  O   UNL     1      -0.058   3.160  25.773  0.00  0.00    -0.358 OA
ATOM     16  C   UNL     1      -0.256   3.475  25.037  0.00  0.00    +0.155 A 
ATOM     17  C   UNL     1      -0.402   4.271  24.873  0.00  0.00    +0.075 C 
ATOM     18  C   UNL     1      -0.283   2.856  24.493  0.00  0.00    +0.056 A 
ENDBRANCH  12  13
ENDBRANCH  11  12
TORSDOF 7
ENDMDL
MODEL 4
REMARK VINA RESULT:     -11.2      1.870      3.848
REMARK  Name = 
REMARK  7 active torsions:
REMARK  status: ('A' for Active; 'I' for Inactive)
REMARK    1  A    between atoms: C_2  and  C_4
REMARK    2  A    between atoms: C_4  and  C_5
REMARK    3  A    between atoms: C_7  and  C_25
REMARK    4  A    between atoms: N_11  and  C_12
REMARK    5  A    between atoms: C_12  and  C_13
REMARK    6  A    between atoms: N_27  and  C_28
REMARK    7  A    between atoms: C_28  and  C_29
REMARK                            x       y       z     vdW  Elec       q    Type
REMARK                         _______ _______ _______ _____ _____    ______ ____
ROOT
ATOM      5  C   UNL     1      -1.235   2.675  25.169  0.00  0.00    +0.095 C 
ATOM      6  N   UNL     1      -1.146   1.936  24.815  0.00  0.00    -0.207 NA
ATOM      7  C   UNL     1      -1.729   1.440  24.505  0.00  0.00    +0.155 C 
ATOM      8  C   UNL     1      -2.544   1.562  24.474  0.00  0.00    +0.055 C 
ATOM      9  C   UNL     1      -2.978   2.210  24.744  0.00  0.00    -0.002 A 
ATOM     10  C   UNL     1      -3.798   2.266  24.680  0.00  0.00    +0.072 A 
ATOM     11  N   UNL     1      -4.032   2.986  25.008  0.00  0.00    -0.320 N 
ATOM     19  C   UNL     1      -3.355   3.375  25.276  0.00  0.00    +0.060 A 
ATOM     20  C   UNL     1      -2.703   2.895  25.113  0.00  0.00    +0.011 A 
ATOM     21  C   UNL     1      -1.927   3.102  25.301  0.00  0.00    -0.005 A 
ATOM     22  C   UNL     1      -1.838   3.873  25.691  0.00  0.00    -0.003 A 
ATOM     23  C   UNL     1      -2.488   4.353  25.855  0.00  0.00    +0.001 A 
ATOM     24  C   UNL     1      -3.247   4.104  25.647  0.00  0.00    +0.017 A 
ENDROOT
BRANCH   7  25
ATOM     25  C   UNL     1      -1.460   0.728  24.185  0.00  0.00    +0.258 C 
ATOM     26  O   UNL     1      -0.974   0.734  23.518  0.00  0.00    -0.272 OA
ATOM     27  N   UNL     1      -1.678   0.012  24.531  0.00  0.00    -0.196 NA
BRANCH  27  28
ATOM     28  C   UNL     1      -1.409  -0.699  24.210  0.00  0.00    +0.179 C 
BRANCH  28  29
ATOM     29  C   UNL     1      -1.766  -1.410  24.427  0.00  0.00    +0.144 A 
ATOM     30  C   UNL     1      -1.409  -2.025  24.845  0.00  0.00    +0.038 A 
ATOM     31  C   UNL     1      -1.966  -2.627  24.940  0.00  0.00    +0.036 A 
ATOM     32  C   UNL     1      -2.667  -2.383  24.580  0.00  0.00    +0.123 A 
ATOM     33  C   UNL     1      -3.368  -2.816  24.544  0.00  0.00    +0.072 C 
ATOM     34  O   UNL     1      -2.544  -1.631  24.263  0.00  0.00    -0.460 OA
ENDBRANCH  28  29
ENDBRANCH  27  28
ENDBRANCH   7  25
BRANCH   5   4
ATOM      4  C   UNL     1      -0.538   3.035  25.424  0.00  0.00    +0.022 C 
BRANCH   4   2
ATOM      1  C   UNL     1       0.040   2.375  26.553  0.00  0.00    +0.000 C 
ATOM      2  C   UNL     1       0.066   2.578  25.754  0.00  0.00    +0.002 C 
ATOM      3  C   UNL     1       0.694   2.324  25.283  0.00  0.00    +0.000 C 
ENDBRANCH   4   2
ENDBRANCH   5   4
BRANCH  11  12
ATOM     12  C   UNL     1      -4.805   3.268  25.060  0.00  0.00    +0.155 C 
BRANCH  12  13
ATOM     13  C   UNL     1      -5.418   2.758  25.269  0.00  0.00    +0.123 A 
ATOM     14  N   UNL     1      -5.892   2.330  24.747  0.00  0.00    -0.080 NA
ATOM     15  O   UNL     1      -6.431   1.893  25.192  0.00  0.00    -0.358 OA
ATOM     16  C   UNL     1      -6.291   2.051  25.990  0.00  0.00    +0.155 A 
ATOM     17  C   UNL     1      -6.704   1.730  26.628  0.00  0.00    +0.075 C 
ATOM     18  C   UNL     1      -5.664   2.585  26.037  0.00  0.00    +0.056 A 
ENDBRANCH  12  13
ENDBRANCH  11  12
TORSDOF 7
ENDMDL
MODEL 5
REMARK VINA RESULT:     -11.1      1.237      3.900
REMARK  Name = 
REMARK  7 active torsions:
REMARK  status: ('A' for Active; 'I' for Inactive)
REMARK    1  A    between atoms: C_2  and  C_4
REMARK    2  A    between atoms: C_4  and  C_5
REMARK    3  A    between atoms: C_7  and  C_25
REMARK    4  A    between atoms: N_11  and  C_12
REMARK    5  A    between atoms: C_12  and  C_13
REMARK    6  A    between atoms: N_27  and  C_28
REMARK    7  A    between atoms: C_28  and  C_29
REMARK                            x       y       z     vdW  Elec       q    Type
REMARK                         _______ _______ _______ _____ _____    ______ ____
ROOT
ATOM      5  C   UNL     1      -2.413   2.896  24.752  0.00  0.00    +0.095 C 
ATOM      6  N   UNL     1      -1.625   2.657  24.795  0.00  0.00    -0.207 NA
ATOM      7  C   UNL     1      -1.321   1.889  24.811  0.00  0.00    +0.155 C 
ATOM      8  C   UNL     1      -1.730   1.174  24.787  0.00  0.00    +0.055 C 
ATOM      9  C   UNL     1      -2.544   1.047  24.742  0.00  0.00    -0.002 A 
ATOM     10  C   UNL     1      -2.887   0.298  24.722  0.00  0.00    +0.072 A 
ATOM     11  N   UNL     1      -3.706   0.393  24.677  0.00  0.00    -0.320 N 
ATOM     19  C   UNL     1      -3.868   1.201  24.669  0.00  0.00    +0.060 A 
ATOM     20  C   UNL     1      -3.150   1.606  24.709  0.00  0.00    +0.011 A 
ATOM     21  C   UNL     1      -3.091   2.430  24.714  0.00  0.00    -0.005 A 
ATOM     22  C   UNL     1      -3.849   2.851  24.673  0.00  0.00    -0.003 A 
ATOM     23  C   UNL     1      -4.568   2.447  24.632  0.00  0.00    +0.001 A 
ATOM     24  C   UNL     1      -4.577   1.622  24.631  0.00  0.00    +0.017 A 
ENDROOT
BRANCH   7  25
ATOM     25  C   UNL     1      -0.499   1.831  24.856  0.00  0.00    +0.258 C 
ATOM     26  O   UNL     1      -0.107   2.052  25.549  0.00  0.00    -0.272 OA
ATOM     27  N   UNL     1      -0.069   1.553  24.209  0.00  0.00    -0.196 NA
BRANCH  27  28
ATOM     28  C   UNL     1       0.753   1.496  24.256  0.00  0.00    +0.179 C 
BRANCH  28  29
ATOM     29  C   UNL     1       1.166   1.041  23.705  0.00  0.00    +0.144 A 
ATOM     30  C   UNL     1       0.856   0.418  23.260  0.00  0.00    +0.038 A 
ATOM     31  C   UNL     1       1.460   0.121  22.783  0.00  0.00    +0.036 A 
ATOM     32  C   UNL     1       2.142   0.559  22.932  0.00  0.00    +0.123 A 
ATOM     33  C   UNL     1       2.877   0.449  22.575  0.00  0.00    +0.072 C 
ATOM     34  O   UNL     1       1.960   1.128  23.502  0.00  0.00    -0.460 OA
ENDBRANCH  28  29
ENDBRANCH  27  28
ENDBRANCH   7  25
BRANCH   5   4
ATOM      4  C   UNL     1      -2.539   3.712  24.747  0.00  0.00    +0.022 C 
BRANCH   4   2
ATOM      1  C   UNL     1      -2.332   4.223  26.065  0.00  0.00    +0.000 C 
ATOM      2  C   UNL     1      -2.121   4.197  25.268  0.00  0.00    +0.002 C 
ATOM      3  C   UNL     1      -1.493   4.655  24.991  0.00  0.00    +0.000 C 
ENDBRANCH   4   2
ENDBRANCH   5   4
BRANCH  11  12
ATOM     12  C   UNL     1      -4.264  -0.214  24.645  0.00  0.00    +0.155 C 
BRANCH  12  13
ATOM     13  C   UNL     1      -4.035  -0.994  24.782  0.00  0.00    +0.123 A 
ATOM     14  N   UNL     1      -3.803  -1.312  25.507  0.00  0.00    -0.080 NA
ATOM     15  O   UNL     1      -3.622  -2.107  25.391  0.00  0.00    -0.358 OA
ATOM     16  C   UNL     1      -3.741  -2.282  24.594  0.00  0.00    +0.155 A 
ATOM     17  C   UNL     1      -3.625  -3.017  24.235  0.00  0.00    +0.075 C 
ATOM     18  C   UNL     1      -3.996  -1.594  24.217  0.00  0.00    +0.056 A 
ENDBRANCH  12  13
ENDBRANCH  11  12
TORSDOF 7
ENDMDL
MODEL 6
REMARK VINA RESULT:     -11.0      1.813      5.758
REMARK  Name = 
REMARK  7 active torsions:
REMARK  status: ('A' for Active; 'I' for Inactive)
REMARK    1  A    between atoms: C_2  and  C_4
REMARK    2  A    between atoms: C_4  and  C_5
REMARK    3  A    between atoms: C_7  and  C_25
REMARK    4  A    between atoms: N_11  and  C_12
REMARK    5  A    between atoms: C_12  and  C_13
REMARK    6  A    between atoms: N_27  and  C_28
REMARK    7  A    between atoms: C_28  and  C_29
REMARK                            x       y       z     vdW  Elec       q    Type
REMARK                         _______ _______ _______ _____ _____    ______ ____
ROOT
ATOM      5  C   UNL     1      -1.178   3.075  24.395  0.00  0.00    +0.095 C 
ATOM      6  N   UNL     1      -1.989   3.098  24.246  0.00  0.00    -0.207 NA
ATOM      7  C   UNL     1      -2.497   2.475  24.060  0.00  0.00    +0.155 C 
ATOM      8  C   UNL     1      -2.318   1.674  23.979  0.00  0.00    +0.055 C 
ATOM      9  C   UNL     1      -1.589   1.298  24.062  0.00  0.00    -0.002 A 
ATOM     10  C   UNL     1      -1.481   0.486  23.966  0.00  0.00    +0.072 A 
ATOM     11  N   UNL     1      -0.684   0.316  24.092  0.00  0.00    -0.320 N 
ATOM     19  C   UNL     1      -0.298   1.024  24.266  0.00  0.00    +0.060 A 
ATOM     20  C   UNL     1      -0.857   1.631  24.248  0.00  0.00    +0.011 A 
ATOM     21  C   UNL     1      -0.675   2.422  24.396  0.00  0.00    -0.005 A 
ATOM     22  C   UNL     1       0.160   2.579  24.576  0.00  0.00    -0.003 A 
ATOM     23  C   UNL     1       0.720   1.973  24.594  0.00  0.00    +0.001 A 
ATOM     24  C   UNL     1       0.490   1.195  24.439  0.00  0.00    +0.017 A 
ENDROOT
BRANCH   7  25
ATOM     25  C   UNL     1      -3.287   2.680  23.941  0.00  0.00    +0.258 C 
ATOM     26  O   UNL     1      -3.530   2.979  23.211  0.00  0.00    -0.272 OA
ATOM     27  N   UNL     1      -3.834   2.586  24.551  0.00  0.00    -0.196 NA
BRANCH  27  28
ATOM     28  C   UNL     1      -4.624   2.791  24.431  0.00  0.00    +0.179 C 
BRANCH  28  29
ATOM     29  C   UNL     1      -5.173   2.692  25.039  0.00  0.00    +0.144 A 
ATOM     30  C   UNL     1      -5.422   3.275  25.568  0.00  0.00    +0.038 A 
ATOM     31  C   UNL     1      -5.972   2.937  26.081  0.00  0.00    +0.036 A 
ATOM     32  C   UNL     1      -6.064   2.144  25.869  0.00  0.00    +0.123 A 
ATOM     33  C   UNL     1      -6.561   1.599  26.237  0.00  0.00    +0.072 C 
ATOM     34  O   UNL     1      -5.570   1.994  25.225  0.00  0.00    -0.460 OA
ENDBRANCH  28  29
ENDBRANCH  27  28
ENDBRANCH   7  25
BRANCH   5   4
ATOM      4  C   UNL     1      -0.825   3.800  24.566  0.00  0.00    +0.022 C 
BRANCH   4   2
ATOM      1  C   UNL     1      -1.439   5.080  24.736  0.00  0.00    +0.000 C 
ATOM      2  C   UNL     1      -1.217   4.347  25.044  0.00  0.00    +0.002 C 
ATOM      3  C   UNL     1      -1.387   4.161  25.830  0.00  0.00    +0.000 C 
ENDBRANCH   4   2
ENDBRANCH   5   4
BRANCH  11  12
ATOM     12  C   UNL     1      -0.333  -0.429  24.051  0.00  0.00    +0.155 C 
BRANCH  12  13
ATOM     13  C   UNL     1      -0.696  -1.077  24.411  0.00  0.00    +0.123 A 
ATOM     14  N   UNL     1      -0.601  -1.310  25.197  0.00  0.00    -0.080 NA
ATOM     15  O   UNL     1      -1.064  -1.982  25.320  0.00  0.00    -0.358 OA
ATOM     16  C   UNL     1      -1.444  -2.164  24.611  0.00  0.00    +0.155 A 
ATOM     17  C   UNL     1      -1.961  -2.795  24.485  0.00  0.00    +0.075 C 
ATOM     18  C   UNL     1      -1.216  -1.604  24.049  0.00  0.00    +0.056 A 
ENDBRANCH  12  13
ENDBRANCH  11  12
TORSDOF 7
ENDMDL
MODEL 7
REMARK VINA RESULT:     -10.4      1.223      4.700
REMARK  Name = 
REMARK  7 active torsions:
REMARK  status: ('A' for Active; 'I' for Inactive)
REMARK    1  A    between atoms: C_2  and  C_4
REMARK    2  A    between atoms: C_4  and  C_5
REMARK    3  A    between atoms: C_7  and  C_25
REMARK    4  A    between atoms: N_11  and  C_12
REMARK    5  A    between atoms: C_12  and  C_13
REMARK    6  A    between atoms: N_27  and  C_28
REMARK    7  A    between atoms: C_28  and  C_29
REMARK                            x       y       z     vdW  Elec       q    Type
REMARK                         _______ _______ _______ _____ _____    ______ ____
ROOT
ATOM      5  C   UNL     1      -2.672  -0.286  24.796  0.00  0.00    +0.095 C 
ATOM      6  N   UNL     1      -2.827   0.496  24.582  0.00  0.00    -0.207 NA
ATOM      7  C   UNL     1      -2.318   1.045  24.235  0.00  0.00    +0.155 C 
ATOM      8  C   UNL     1      -1.529   0.947  24.015  0.00  0.00    +0.055 C 
ATOM      9  C   UNL     1      -1.053   0.277  24.089  0.00  0.00    -0.002 A 
ATOM     10  C   UNL     1      -0.265   0.249  23.847  0.00  0.00    +0.072 A 
ATOM     11  N   UNL     1       0.025  -0.506  24.008  0.00  0.00    -0.320 N 
ATOM     19  C   UNL     1      -0.583  -0.946  24.350  0.00  0.00    +0.060 A 
ATOM     20  C   UNL     1      -1.250  -0.462  24.401  0.00  0.00    +0.011 A 
ATOM     21  C   UNL     1      -1.971  -0.712  24.715  0.00  0.00    -0.005 A 
ATOM     22  C   UNL     1      -1.983  -1.533  24.995  0.00  0.00    -0.003 A 
ATOM     23  C   UNL     1      -1.317  -2.018  24.946  0.00  0.00    +0.001 A 
ATOM     24  C   UNL     1      -0.617  -1.723  24.623  0.00  0.00    +0.017 A 
ENDROOT
BRANCH   7  25
ATOM     25  C   UNL     1      -2.641   1.790  24.087  0.00  0.00    +0.258 C 
ATOM     26  O   UNL     1      -3.067   1.924  23.392  0.00  0.00    -0.272 OA
ATOM     27  N   UNL     1      -2.540   2.399  24.634  0.00  0.00    -0.196 NA
BRANCH  27  28
ATOM     28  C   UNL     1      -2.863   3.143  24.485  0.00  0.00    +0.179 C 
BRANCH  28  29
ATOM     29  C   UNL     1      -2.570   3.806  24.879  0.00  0.00    +0.144 A 
ATOM     30  C   UNL     1      -2.832   4.094  25.606  0.00  0.00    +0.038 A 
ATOM     31  C   UNL     1      -2.387   4.764  25.791  0.00  0.00    +0.036 A 
ATOM     32  C   UNL     1      -1.849   4.889  25.178  0.00  0.00    +0.123 A 
ATOM     33  C   UNL     1      -1.296   5.499  25.136  0.00  0.00    +0.072 C 
ATOM     34  O   UNL     1      -1.963   4.297  24.615  0.00  0.00    -0.460 OA
ENDBRANCH  28  29
ENDBRANCH  27  28
ENDBRANCH   7  25
BRANCH   5   4
ATOM      4  C   UNL     1      -3.303  -0.695  25.135  0.00  0.00    +0.022 C 
BRANCH   4   2
ATOM      1  C   UNL     1      -4.583  -0.075  25.273  0.00  0.00    +0.000 C 
ATOM      2  C   UNL     1      -4.071  -0.571  24.858  0.00  0.00    +0.002 C 
ATOM      3  C   UNL     1      -4.325  -0.944  24.167  0.00  0.00    +0.000 C 
ENDBRANCH   4   2
ENDBRANCH   5   4
BRANCH  11  12
ATOM     12  C   UNL     1       0.790  -0.775  23.854  0.00  0.00    +0.155 C 
BRANCH  12  13
ATOM     13  C   UNL     1       1.228  -0.446  23.238  0.00  0.00    +0.123 A 
ATOM     14  N   UNL     1       0.986  -0.381  22.451  0.00  0.00    -0.080 NA
ATOM     15  O   UNL     1       1.593  -0.019  22.028  0.00  0.00    -0.358 OA
ATOM     16  C   UNL     1       2.210   0.142  22.551  0.00  0.00    +0.155 A 
ATOM     17  C   UNL     1       2.927   0.503  22.361  0.00  0.00    +0.075 C 
ATOM     18  C   UNL     1       1.984  -0.122  23.299  0.00  0.00    +0.056 A 
ENDBRANCH  12  13
ENDBRANCH  11  12
TORSDOF 7
ENDMDL
MODEL 8
REMARK VINA RESULT:     -10.4      1.600      2.012
REMARK  Name = 
REMARK  7 active torsions:
REMARK  status: ('A' for Active; 'I' for Inactive)
REMARK    1  A    between atoms: C_2  and  C_4
REMARK    2  A    between atoms: C_4  and  C_5
REMARK    3  A    between atoms: C_7  and  C_25
REMARK    4  A    between atoms: N_11  and  C_12
REMARK    5  A    between atoms: C_12  and  C_13
REMARK    6  A    between atoms: N_27  and  C_28
REMARK    7  A    between atoms: C_28  and  C_29
REMARK                            x       y       z     vdW  Elec       q    Type
REMARK                         _______ _______ _______ _____ _____    ______ ____
ROOT
ATOM      5  C   UNL     1      -1.925  -0.591  25.124  0.00  0.00    +0.095 C 
ATOM      6  N   UNL     1      -1.239  -0.161  24.970  0.00  0.00    -0.207 NA
ATOM      7  C   UNL     1      -1.168   0.614  24.695  0.00  0.00    +0.155 C 
ATOM      8  C   UNL     1      -1.767   1.149  24.506  0.00  0.00    +0.055 C 
ATOM      9  C   UNL     1      -2.584   1.041  24.545  0.00  0.00    -0.002 A 
ATOM     10  C   UNL     1      -3.130   1.624  24.338  0.00  0.00    +0.072 A 
ATOM     11  N   UNL     1      -3.887   1.316  24.449  0.00  0.00    -0.320 N 
ATOM     19  C   UNL     1      -3.810   0.542  24.724  0.00  0.00    +0.060 A 
ATOM     20  C   UNL     1      -3.004   0.372  24.783  0.00  0.00    +0.011 A 
ATOM     21  C   UNL     1      -2.710  -0.355  25.041  0.00  0.00    -0.005 A 
ATOM     22  C   UNL     1      -3.315  -0.941  25.251  0.00  0.00    -0.003 A 
ATOM     23  C   UNL     1      -4.121  -0.772  25.191  0.00  0.00    +0.001 A 
ATOM     24  C   UNL     1      -4.367  -0.030  24.928  0.00  0.00    +0.017 A 
ENDROOT
BRANCH   7  25
ATOM     25  C   UNL     1      -0.397   0.890  24.596  0.00  0.00    +0.258 C 
ATOM     26  O   UNL     1      -0.050   1.363  25.177  0.00  0.00    -0.272 OA
ATOM     27  N   UNL     1       0.027   0.693  23.917  0.00  0.00    -0.196 NA
BRANCH  27  28
ATOM     28  C   UNL     1       0.799   0.969  23.818  0.00  0.00    +0.179 C 
BRANCH  28  29
ATOM     29  C   UNL     1       1.302   0.603  23.276  0.00  0.00    +0.144 A 
ATOM     30  C   UNL     1       1.087   0.022  22.731  0.00  0.00    +0.038 A 
ATOM     31  C   UNL     1       1.760  -0.186  22.302  0.00  0.00    +0.036 A 
ATOM     32  C   UNL     1       2.391   0.267  22.581  0.00  0.00    +0.123 A 
ATOM     33  C   UNL     1       3.168   0.237  22.306  0.00  0.00    +0.072 C 
ATOM     34  O   UNL     1       2.107   0.755  23.183  0.00  0.00    -0.460 OA
ENDBRANCH  28  29
ENDBRANCH  27  28
ENDBRANCH   7  25
BRANCH   5   4
ATOM      4  C   UNL     1      -1.810  -1.361  25.398  0.00  0.00    +0.022 C 
BRANCH   4   2
ATOM      1  C   UNL     1      -1.348  -2.198  24.335  0.00  0.00    +0.000 C 
ATOM      2  C   UNL     1      -1.221  -1.834  25.064  0.00  0.00    +0.002 C 
ATOM      3  C   UNL     1      -0.505  -1.941  25.461  0.00  0.00    +0.000 C 
ENDBRANCH   4   2
ENDBRANCH   5   4
BRANCH  11  12
ATOM     12  C   UNL     1      -4.597   1.711  24.309  0.00  0.00    +0.155 C 
BRANCH  12  13
ATOM     13  C   UNL     1      -4.693   2.490  24.563  0.00  0.00    +0.123 A 
ATOM     14  N   UNL     1      -4.350   3.158  24.221  0.00  0.00    -0.080 NA
ATOM     15  O   UNL     1      -4.594   3.818  24.650  0.00  0.00    -0.358 OA
ATOM     16  C   UNL     1      -5.088   3.560  25.257  0.00  0.00    +0.155 A 
ATOM     17  C   UNL     1      -5.457   4.038  25.820  0.00  0.00    +0.075 C 
ATOM     18  C   UNL     1      -5.150   2.739  25.203  0.00  0.00    +0.056 A 
ENDBRANCH  12  13
ENDBRANCH  11  12
TORSDOF 7
ENDMDL
MODEL 9
REMARK VINA RESULT:     -10.3      1.513      3.678
REMARK  Name = 
REMARK  7 active torsions:
REMARK  status: ('A' for Active; 'I' for Inactive)
REMARK    1  A    between atoms: C_2  and  C_4
REMARK    2  A    between atoms: C_4  and  C_5
REMARK    3  A    between atoms: C_7  and  C_25
REMARK    4  A    between atoms: N_11  and  C_12
REMARK    5  A    between atoms: C_12  and  C_13
REMARK    6  A    between atoms: N_27  and  C_28
REMARK    7  A    between atoms: C_28  and  C_29
REMARK                            x       y       z     vdW  Elec       q    Type
REMARK                         _______ _______ _______ _____ _____    ______ ____
ROOT
ATOM      5  C   UNL     1      -0.216   1.100  24.401  0.00  0.00    +0.095 C 
ATOM      6  N   UNL     1      -0.555   0.407  24.693  0.00  0.00    -0.207 NA
ATOM      7  C   UNL     1      -1.261   0.316  25.110  0.00  0.00    +0.155 C 
ATOM      8  C   UNL     1      -1.801   0.896  25.339  0.00  0.00    +0.055 C 
ATOM      9  C   UNL     1      -1.769   1.710  25.207  0.00  0.00    -0.002 A 
ATOM     10  C   UNL     1      -2.350   2.236  25.467  0.00  0.00    +0.072 A 
ATOM     11  N   UNL     1      -2.128   2.995  25.234  0.00  0.00    -0.320 N 
ATOM     19  C   UNL     1      -1.411   2.939  24.830  0.00  0.00    +0.060 A 
ATOM     20  C   UNL     1      -1.189   2.144  24.814  0.00  0.00    +0.011 A 
ATOM     21  C   UNL     1      -0.497   1.872  24.455  0.00  0.00    -0.005 A 
ATOM     22  C   UNL     1      -0.008   2.489  24.088  0.00  0.00    -0.003 A 
ATOM     23  C   UNL     1      -0.229   3.283  24.104  0.00  0.00    +0.001 A 
ATOM     24  C   UNL     1      -0.931   3.508  24.475  0.00  0.00    +0.017 A 
ENDROOT
BRANCH   7  25
ATOM     25  C   UNL     1      -1.452  -0.457  25.328  0.00  0.00    +0.258 C 
ATOM     26  O   UNL     1      -1.059  -0.817  25.959  0.00  0.00    -0.272 OA
ATOM     27  N   UNL     1      -2.034  -0.870  24.915  0.00  0.00    -0.196 NA
BRANCH  27  28
ATOM     28  C   UNL     1      -2.224  -1.643  25.133  0.00  0.00    +0.179 C 
BRANCH  28  29
ATOM     29  C   UNL     1      -2.845  -2.036  24.758  0.00  0.00    +0.144 A 
ATOM     30  C   UNL     1      -2.953  -2.854  24.726  0.00  0.00    +0.038 A 
ATOM     31  C   UNL     1      -3.642  -3.003  24.299  0.00  0.00    +0.036 A 
ATOM     32  C   UNL     1      -3.961  -2.279  24.067  0.00  0.00    +0.123 A 
ATOM     33  C   UNL     1      -4.650  -2.171  23.628  0.00  0.00    +0.072 C 
ATOM     34  O   UNL     1      -3.468  -1.681  24.351  0.00  0.00    -0.460 OA
ENDBRANCH  28  29
ENDBRANCH  27  28
ENDBRANCH   7  25
BRANCH   5   4
ATOM      4  C   UNL     1       0.501   1.006  24.003  0.00  0.00    +0.022 C 
BRANCH   4   2
ATOM      1  C   UNL     1       0.212   0.315  22.786  0.00  0.00    +0.000 C 
ATOM      2  C   UNL     1       0.614   0.358  23.505  0.00  0.00    +0.002 C 
ATOM      3  C   UNL     1       1.130  -0.247  23.726  0.00  0.00    +0.000 C 
ENDBRANCH   4   2
ENDBRANCH   5   4
BRANCH  11  12
ATOM     12  C   UNL     1      -2.549   3.690  25.378  0.00  0.00    +0.155 C 
BRANCH  12  13
ATOM     13  C   UNL     1      -3.358   3.724  25.217  0.00  0.00    +0.123 A 
ATOM     14  N   UNL     1      -3.700   3.818  24.472  0.00  0.00    -0.080 NA
ATOM     15  O   UNL     1      -4.519   3.822  24.568  0.00  0.00    -0.358 OA
ATOM     16  C   UNL     1      -4.683   3.730  25.371  0.00  0.00    +0.155 A 
ATOM     17  C   UNL     1      -5.434   3.703  25.713  0.00  0.00    +0.075 C 
ATOM     18  C   UNL     1      -3.965   3.669  25.772  0.00  0.00    +0.056 A 
ENDBRANCH  12  13
ENDBRANCH  11  12
TORSDOF 7
ENDMDL
MODEL 10
REMARK VINA RESULT:     -10.1      1.004      4.437
REMARK  Name = 
REMARK  7 active torsions:
REMARK  status: ('A' for Active; 'I' for Inactive)
REMARK    1  A    between atoms: C_2  and  C_4
REMARK    2  A    between atoms: C_4  and  C_5
REMARK    3  A    between atoms: C_7  and  C_25
REMARK    4  A    between atoms: N_11  and  C_12
REMARK    5  A    between atoms: C_12  and  C_13
REMARK    6  A    between atoms: N_27  and  C_28
REMARK    7  A    between atoms: C_28  and  C_29
REMARK                            x       y       z     vdW  Elec       q    Type
REMARK                         _______ _______ _______ _____ _____    ______ ____
ROOT
ATOM      5  C   UNL     1      -4.462   0.903  25.035  0.00  0.00    +0.095 C 
ATOM      6  N   UNL     1      -4.254   1.663  24.790  0.00  0.00    -0.207 NA
ATOM      7  C   UNL     1      -3.549   1.917  24.445  0.00  0.00    +0.155 C 
ATOM      8  C   UNL     1      -2.878   1.474  24.260  0.00  0.00    +0.055 C 
ATOM      9  C   UNL     1      -2.746   0.668  24.374  0.00  0.00    -0.002 A 
ATOM     10  C   UNL     1      -2.045   0.287  24.163  0.00  0.00    +0.072 A 
ATOM     11  N   UNL     1      -2.119  -0.511  24.360  0.00  0.00    -0.320 N 
ATOM     19  C   UNL     1      -2.865  -0.623  24.693  0.00  0.00    +0.060 A 
ATOM     20  C   UNL     1      -3.253   0.105  24.702  0.00  0.00    +0.011 A 
ATOM     21  C   UNL     1      -4.017   0.211  24.996  0.00  0.00    -0.005 A 
ATOM     22  C   UNL     1      -4.394  -0.509  25.302  0.00  0.00    -0.003 A 
ATOM     23  C   UNL     1      -4.007  -1.238  25.294  0.00  0.00    +0.001 A 
ATOM     24  C   UNL     1      -3.242  -1.294  24.989  0.00  0.00    +0.017 A 
ENDROOT
BRANCH   7  25
ATOM     25  C   UNL     1      -3.510   2.721  24.261  0.00  0.00    +0.258 C 
ATOM     26  O   UNL     1      -3.936   3.018  23.620  0.00  0.00    -0.272 OA
ATOM     27  N   UNL     1      -3.045   3.226  24.718  0.00  0.00    -0.196 NA
BRANCH  27  28
ATOM     28  C   UNL     1      -3.006   4.030  24.533  0.00  0.00    +0.179 C 
BRANCH  28  29
ATOM     29  C   UNL     1      -2.352   4.475  24.766  0.00  0.00    +0.144 A 
ATOM     30  C   UNL     1      -2.367   5.137  25.260  0.00  0.00    +0.038 A 
ATOM     31  C   UNL     1      -1.593   5.408  25.345  0.00  0.00    +0.036 A 
ATOM     32  C   UNL     1      -1.100   4.915  24.904  0.00  0.00    +0.123 A 
ATOM     33  C   UNL     1      -0.281   4.987  24.834  0.00  0.00    +0.072 C 
ATOM     34  O   UNL     1      -1.569   4.339  24.546  0.00  0.00    -0.460 OA
ENDBRANCH  28  29
ENDBRANCH  27  28
ENDBRANCH   7  25
BRANCH   5   4
ATOM      4  C   UNL     1      -5.215   0.827  25.363  0.00  0.00    +0.022 C 
BRANCH   4   2
ATOM      1  C   UNL     1      -6.217   1.647  24.757  0.00  0.00    +0.000 C 
ATOM      2  C   UNL     1      -5.719   1.481  25.393  0.00  0.00    +0.002 C 
ATOM      3  C   UNL     1      -5.725   1.966  26.061  0.00  0.00    +0.000 C 
ENDBRANCH   4   2
ENDBRANCH   5   4
BRANCH  11  12
ATOM     12  C   UNL     1      -1.547  -1.094  24.246  0.00  0.00    +0.155 C 
BRANCH  12  13
ATOM     13  C   UNL     1      -0.754  -0.883  24.157  0.00  0.00    +0.123 A 
ATOM     14  N   UNL     1      -0.195  -0.835  24.762  0.00  0.00    -0.080 NA
ATOM     15  O   UNL     1       0.523  -0.606  24.427  0.00  0.00    -0.358 OA
ATOM     16  C   UNL     1       0.408  -0.513  23.616  0.00  0.00    +0.155 A 
ATOM     17  C   UNL     1       0.982  -0.287  23.067  0.00  0.00    +0.075 C 
ATOM     18  C   UNL     1      -0.382  -0.684  23.449  0.00  0.00    +0.056 A 
ENDBRANCH  12  13
ENDBRANCH  11  12
TORSDOF 7
ENDMDL
