REMARK  Name = 
REMARK  7 active torsions:
REMARK  status: ('A' for Active; 'I' for Inactive)
REMARK    1  A    between atoms: O_2  and  C_3
REMARK    2  A    between atoms: C_3  and  C_4
REMARK    3  A    between atoms: C_4  and  N_5
REMARK    4  A    between atoms: N_8  and  C_9
REMARK    5  A    between atoms: C_9  and  C_10
REMARK    6  A    between atoms: C_10  and  C_11
REMARK    7  A    between atoms: C_11  and  C_12
REMARK                            x       y       z     vdW  Elec       q    Type
REMARK                         _______ _______ _______ _____ _____    ______ ____
ROOT
ATOM      5  N   UNL     1       0.715  -0.412   0.000  0.00  0.00    -0.273 N 
ATOM      6  C   UNL     1       0.000   0.000   0.000  0.00  0.00    +0.120 C 
ATOM      7  C   UNL     1      -0.785  -0.255   0.000  0.00  0.00    +0.095 C 
ATOM      8  N   UNL     1      -1.270   0.412   0.000  0.00  0.00    -0.269 NA
ATOM     18  C   UNL     1      -0.785   1.080   0.000  0.00  0.00    +0.104 C 
ATOM     19  C   UNL     1       0.000   0.825   0.000  0.00  0.00    +0.151 C 
ATOM     20  O   UNL     1       0.715   1.238   0.000  0.00  0.00    -0.344 OA
ATOM     21  C   UNL     1       1.429   0.825   0.000  0.00  0.00    +0.227 C 
ATOM     22  C   UNL     1       1.429   0.000   0.000  0.00  0.00    +0.256 C 
ATOM     23  O   UNL     1       2.143  -0.412   0.000  0.00  0.00    -0.272 OA
ENDROOT
BRANCH   5   4
ATOM      4  C   UNL     1       0.715  -1.238   0.000  0.00  0.00    +0.126 C 
BRANCH   4   3
ATOM      3  C   UNL     1       1.429  -1.650   0.000  0.00  0.00    +0.164 C 
BRANCH   3   2
ATOM      1  C   UNL     1       2.143  -2.888   0.000  0.00  0.00    +0.174 C 
ATOM      2  O   UNL     1       1.429  -2.475   0.000  0.00  0.00    -0.349 OA
ENDBRANCH   3   2
ENDBRANCH   4   3
ENDBRANCH   5   4
BRANCH   8   9
ATOM      9  C   UNL     1      -2.095   0.412   0.000  0.00  0.00    +0.073 C 
BRANCH   9  10
ATOM     10  C   UNL     1      -2.507   1.127   0.000  0.00  0.00    +0.022 C 
BRANCH  10  11
ATOM     11  C   UNL     1      -3.332   1.127   0.000  0.00  0.00    +0.028 C 
BRANCH  11  12
ATOM     12  C   UNL     1      -3.744   1.841   0.000  0.00  0.00    -0.022 A 
ATOM     13  C   UNL     1      -4.569   1.841   0.000  0.00  0.00    -0.004 A 
ATOM     14  C   UNL     1      -4.982   2.556   0.000  0.00  0.00    -0.000 A 
ATOM     15  C   UNL     1      -4.569   3.270   0.000  0.00  0.00    -0.000 A 
ATOM     16  C   UNL     1      -3.744   3.270   0.000  0.00  0.00    -0.000 A 
ATOM     17  C   UNL     1      -3.332   2.556   0.000  0.00  0.00    -0.004 A 
ENDBRANCH  11  12
ENDBRANCH  10  11
ENDBRANCH   9  10
ENDBRANCH   8   9
TORSDOF 7
