MODEL 1
REMARK VINA RESULT:     -12.0      0.000      0.000
REMARK  Name = 
REMARK  4 active torsions:
REMARK  status: ('A' for Active; 'I' for Inactive)
REMARK    1  A    between atoms: O_2  and  C_3
REMARK    2  A    between atoms: C_8  and  C_10
REMARK    3  A    between atoms: N_13  and  C_14
REMARK    4  A    between atoms: C_14  and  C_15
REMARK                            x       y       z     vdW  Elec       q    Type
REMARK                         _______ _______ _______ _____ _____    ______ ____
ROOT
ATOM     10  C   UNL     1      -4.630   1.081  25.005  0.00  0.00    +0.076 C 
ATOM     11  C   UNL     1      -5.267   1.291  25.485  0.00  0.00    +0.026 C 
ATOM     12  C   UNL     1      -5.335   2.113  25.475  0.00  0.00    +0.073 C 
ATOM     13  N   UNL     1      -4.739   2.411  24.989  0.00  0.00    -0.269 NA
ATOM     22  C   UNL     1      -4.303   1.773  24.699  0.00  0.00    +0.080 C 
ENDROOT
BRANCH  10   8
ATOM      3  C   UNL     1      -3.222  -2.158  24.678  0.00  0.00    +0.140 A 
ATOM      4  C   UNL     1      -3.171  -1.455  25.105  0.00  0.00    +0.058 A 
ATOM      5  C   UNL     1      -3.679  -0.829  24.933  0.00  0.00    +0.103 A 
ATOM      6  C   UNL     1      -4.239  -0.906  24.332  0.00  0.00    +0.100 A 
ATOM      7  N   UNL     1      -4.663  -0.201  24.286  0.00  0.00    -0.229 NA
ATOM      8  C   UNL     1      -4.366   0.313  24.858  0.00  0.00    +0.140 A 
ATOM      9  N   UNL     1      -3.758  -0.075  25.258  0.00  0.00    -0.229 NA
ATOM     23  C   UNL     1      -4.291  -1.611  23.904  0.00  0.00    +0.024 A 
ATOM     24  C   UNL     1      -3.782  -2.236  24.077  0.00  0.00    +0.039 A 
BRANCH   3   2
ATOM      1  C   UNL     1      -1.970  -2.823  24.495  0.00  0.00    +0.252 C 
ATOM      2  O   UNL     1      -2.714  -2.784  24.851  0.00  0.00    -0.471 OA
ENDBRANCH   3   2
ENDBRANCH  10   8
BRANCH  13  14
ATOM     14  C   UNL     1      -4.602   3.207  24.822  0.00  0.00    +0.099 C 
BRANCH  14  15
ATOM     15  C   UNL     1      -3.875   3.550  25.009  0.00  0.00    -0.006 A 
ATOM     16  C   UNL     1      -3.724   3.803  25.780  0.00  0.00    -0.003 A 
ATOM     17  C   UNL     1      -2.997   4.145  25.966  0.00  0.00    -0.005 A 
ATOM     18  C   UNL     1      -2.421   4.234  25.383  0.00  0.00    -0.022 A 
ATOM     19  C   UNL     1      -1.694   4.576  25.570  0.00  0.00    +0.031 C 
ATOM     20  C   UNL     1      -2.571   3.980  24.612  0.00  0.00    -0.005 A 
ATOM     21  C   UNL     1      -3.299   3.638  24.425  0.00  0.00    -0.003 A 
ENDBRANCH  14  15
ENDBRANCH  13  14
TORSDOF 4
ENDMDL
MODEL 2
REMARK VINA RESULT:     -11.9      2.074      5.364
REMARK  Name = 
REMARK  4 active torsions:
REMARK  status: ('A' for Active; 'I' for Inactive)
REMARK    1  A    between atoms: O_2  and  C_3
REMARK    2  A    between atoms: C_8  and  C_10
REMARK    3  A    between atoms: N_13  and  C_14
REMARK    4  A    between atoms: C_14  and  C_15
REMARK                            x       y       z     vdW  Elec       q    Type
REMARK                         _______ _______ _______ _____ _____    ______ ____
ROOT
ATOM     10  C   UNL     1      -3.101   1.456  24.326  0.00  0.00    +0.076 C 
ATOM     11  C   UNL     1      -3.211   1.192  23.553  0.00  0.00    +0.026 C 
ATOM     12  C   UNL     1      -3.701   0.528  23.576  0.00  0.00    +0.073 C 
ATOM     13  N   UNL     1      -3.894   0.383  24.365  0.00  0.00    -0.269 NA
ATOM     22  C   UNL     1      -3.523   0.957  24.828  0.00  0.00    +0.080 C 
ENDROOT
BRANCH  10   8
ATOM      3  C   UNL     1      -1.488   4.483  25.232  0.00  0.00    +0.140 A 
ATOM      4  C   UNL     1      -2.198   4.169  24.955  0.00  0.00    +0.058 A 
ATOM      5  C   UNL     1      -2.272   3.357  24.833  0.00  0.00    +0.103 A 
ATOM      6  C   UNL     1      -1.634   2.857  24.989  0.00  0.00    +0.100 A 
ATOM      7  N   UNL     1      -1.867   2.085  24.818  0.00  0.00    -0.229 NA
ATOM      8  C   UNL     1      -2.648   2.106  24.557  0.00  0.00    +0.140 A 
ATOM      9  N   UNL     1      -2.898   2.892  24.566  0.00  0.00    -0.229 NA
ATOM     23  C   UNL     1      -0.922   3.171  25.267  0.00  0.00    +0.024 A 
ATOM     24  C   UNL     1      -0.850   3.983  25.388  0.00  0.00    +0.039 A 
BRANCH   3   2
ATOM      1  C   UNL     1      -1.041   5.765  24.789  0.00  0.00    +0.252 C 
ATOM      2  O   UNL     1      -1.415   5.295  25.354  0.00  0.00    -0.471 OA
ENDBRANCH   3   2
ENDBRANCH  10   8
BRANCH  13  14
ATOM     14  C   UNL     1      -4.373  -0.228  24.642  0.00  0.00    +0.099 C 
BRANCH  14  15
ATOM     15  C   UNL     1      -4.093  -1.005  24.644  0.00  0.00    -0.006 A 
ATOM     16  C   UNL     1      -4.245  -1.500  24.002  0.00  0.00    -0.003 A 
ATOM     17  C   UNL     1      -3.964  -2.275  24.005  0.00  0.00    -0.005 A 
ATOM     18  C   UNL     1      -3.533  -2.557  24.649  0.00  0.00    -0.022 A 
ATOM     19  C   UNL     1      -3.253  -3.332  24.651  0.00  0.00    +0.031 C 
ATOM     20  C   UNL     1      -3.381  -2.062  25.291  0.00  0.00    -0.005 A 
ATOM     21  C   UNL     1      -3.662  -1.285  25.289  0.00  0.00    -0.003 A 
ENDBRANCH  14  15
ENDBRANCH  13  14
TORSDOF 4
ENDMDL
MODEL 3
REMARK VINA RESULT:     -11.5      2.093      2.912
REMARK  Name = 
REMARK  4 active torsions:
REMARK  status: ('A' for Active; 'I' for Inactive)
REMARK    1  A    between atoms: O_2  and  C_3
REMARK    2  A    between atoms: C_8  and  C_10
REMARK    3  A    between atoms: N_13  and  C_14
REMARK    4  A    between atoms: C_14  and  C_15
REMARK                            x       y       z     vdW  Elec       q    Type
REMARK                         _______ _______ _______ _____ _____    ______ ____
ROOT
ATOM     10  C   UNL     1      -0.906   0.632  24.845  0.00  0.00    +0.076 C 
ATOM     11  C   UNL     1      -0.348   0.899  24.300  0.00  0.00    +0.026 C 
ATOM     12  C   UNL     1      -0.048   1.618  24.573  0.00  0.00    +0.073 C 
ATOM     13  N   UNL     1      -0.421   1.795  25.287  0.00  0.00    -0.269 NA
ATOM     22  C   UNL     1      -0.951   1.186  25.455  0.00  0.00    +0.080 C 
ENDROOT
BRANCH  10   8
ATOM      3  C   UNL     1      -3.121  -2.130  24.623  0.00  0.00    +0.140 A 
ATOM      4  C   UNL     1      -3.093  -1.308  24.683  0.00  0.00    +0.058 A 
ATOM      5  C   UNL     1      -2.365  -0.921  24.718  0.00  0.00    +0.103 A 
ATOM      6  C   UNL     1      -1.665  -1.357  24.693  0.00  0.00    +0.100 A 
ATOM      7  N   UNL     1      -1.034  -0.828  24.737  0.00  0.00    -0.229 NA
ATOM      8  C   UNL     1      -1.343  -0.066  24.790  0.00  0.00    +0.140 A 
ATOM      9  N   UNL     1      -2.165  -0.123  24.778  0.00  0.00    -0.229 NA
ATOM     23  C   UNL     1      -1.693  -2.180  24.633  0.00  0.00    +0.024 A 
ATOM     24  C   UNL     1      -2.421  -2.565  24.597  0.00  0.00    +0.039 A 
BRANCH   3   2
ATOM      1  C   UNL     1      -4.232  -2.610  23.863  0.00  0.00    +0.252 C 
ATOM      2  O   UNL     1      -3.848  -2.516  24.588  0.00  0.00    -0.471 OA
ENDBRANCH   3   2
ENDBRANCH  10   8
BRANCH  13  14
ATOM     14  C   UNL     1      -0.287   2.463  25.751  0.00  0.00    +0.099 C 
BRANCH  14  15
ATOM     15  C   UNL     1      -0.696   3.163  25.595  0.00  0.00    -0.006 A 
ATOM     16  C   UNL     1      -1.431   3.299  25.946  0.00  0.00    -0.003 A 
ATOM     17  C   UNL     1      -1.838   3.999  25.789  0.00  0.00    -0.005 A 
ATOM     18  C   UNL     1      -1.513   4.563  25.283  0.00  0.00    -0.022 A 
ATOM     19  C   UNL     1      -1.921   5.262  25.128  0.00  0.00    +0.031 C 
ATOM     20  C   UNL     1      -0.778   4.427  24.933  0.00  0.00    -0.005 A 
ATOM     21  C   UNL     1      -0.369   3.727  25.089  0.00  0.00    -0.003 A 
ENDBRANCH  14  15
ENDBRANCH  13  14
TORSDOF 4
ENDMDL
MODEL 4
REMARK VINA RESULT:     -11.2      2.485      5.690
REMARK  Name = 
REMARK  4 active torsions:
REMARK  status: ('A' for Active; 'I' for Inactive)
REMARK    1  A    between atoms: O_2  and  C_3
REMARK    2  A    between atoms: C_8  and  C_10
REMARK    3  A    between atoms: N_13  and  C_14
REMARK    4  A    between atoms: C_14  and  C_15
REMARK                            x       y       z     vdW  Elec       q    Type
REMARK                         _______ _______ _______ _____ _____    ______ ____
ROOT
ATOM     10  C   UNL     1      -1.254   0.914  25.053  0.00  0.00    +0.076 C 
ATOM     11  C   UNL     1      -0.670   0.572  24.581  0.00  0.00    +0.026 C 
ATOM     12  C   UNL     1      -0.674  -0.242  24.718  0.00  0.00    +0.073 C 
ATOM     13  N   UNL     1      -1.261  -0.403  25.275  0.00  0.00    -0.269 NA
ATOM     22  C   UNL     1      -1.619   0.312  25.482  0.00  0.00    +0.080 C 
ENDROOT
BRANCH  10   8
ATOM      3  C   UNL     1      -1.652   4.431  25.284  0.00  0.00    +0.140 A 
ATOM      4  C   UNL     1      -1.096   3.824  25.330  0.00  0.00    +0.058 A 
ATOM      5  C   UNL     1      -1.330   3.040  25.222  0.00  0.00    +0.103 A 
ATOM      6  C   UNL     1      -2.121   2.864  25.067  0.00  0.00    +0.100 A 
ATOM      7  N   UNL     1      -2.189   2.046  24.985  0.00  0.00    -0.229 NA
ATOM      8  C   UNL     1      -1.440   1.717  25.089  0.00  0.00    +0.140 A 
ATOM      9  N   UNL     1      -0.910   2.331  25.235  0.00  0.00    -0.229 NA
ATOM     23  C   UNL     1      -2.678   3.471  25.021  0.00  0.00    +0.024 A 
ATOM     24  C   UNL     1      -2.443   4.255  25.130  0.00  0.00    +0.039 A 
BRANCH   3   2
ATOM      1  C   UNL     1      -1.041   5.621  24.782  0.00  0.00    +0.252 C 
ATOM      2  O   UNL     1      -1.418   5.214  25.393  0.00  0.00    -0.471 OA
ENDBRANCH   3   2
ENDBRANCH  10   8
BRANCH  13  14
ATOM     14  C   UNL     1      -1.456  -1.146  25.573  0.00  0.00    +0.099 C 
BRANCH  14  15
ATOM     15  C   UNL     1      -2.074  -1.578  25.236  0.00  0.00    -0.006 A 
ATOM     16  C   UNL     1      -1.918  -2.118  24.632  0.00  0.00    -0.003 A 
ATOM     17  C   UNL     1      -2.536  -2.548  24.296  0.00  0.00    -0.005 A 
ATOM     18  C   UNL     1      -3.309  -2.440  24.563  0.00  0.00    -0.022 A 
ATOM     19  C   UNL     1      -3.926  -2.871  24.227  0.00  0.00    +0.031 C 
ATOM     20  C   UNL     1      -3.464  -1.900  25.168  0.00  0.00    -0.005 A 
ATOM     21  C   UNL     1      -2.846  -1.468  25.505  0.00  0.00    -0.003 A 
ENDBRANCH  14  15
ENDBRANCH  13  14
TORSDOF 4
ENDMDL
