MODEL 1
REMARK VINA RESULT:     -10.1      0.000      0.000
REMARK  Name = 
REMARK  10 active torsions:
REMARK  status: ('A' for Active; 'I' for Inactive)
REMARK    1  A    between atoms: N_2  and  C_3
REMARK    2  A    between atoms: C_3  and  C_4
REMARK    3  A    between atoms: C_3  and  C_8
REMARK    4  A    between atoms: C_4  and  C_5
REMARK    5  A    between atoms: N_10  and  C_11
REMARK    6  A    between atoms: C_13  and  C_20
REMARK    7  A    between atoms: N_22  and  C_23
REMARK    8  A    between atoms: C_23  and  C_24
REMARK    9  A    between atoms: C_23  and  C_34
REMARK   10  A    between atoms: C_24  and  C_25
REMARK                            x       y       z     vdW  Elec       q    Type
REMARK                         _______ _______ _______ _____ _____    ______ ____
ROOT
ATOM     11  C   UNL     1      -1.167  -0.057  24.089  0.00  0.00    +0.131 C 
ATOM     12  C   UNL     1      -1.680   0.581  24.202  0.00  0.00    +0.064 C 
ATOM     13  C   UNL     1      -1.387   1.351  24.195  0.00  0.00    +0.200 C 
ATOM     14  O   UNL     1      -2.187   1.504  24.328  0.00  0.00    -0.216 OA
ATOM     15  C   UNL     1      -0.582   1.486  24.075  0.00  0.00    +0.075 C 
ATOM     16  C   UNL     1      -0.069   0.850  23.963  0.00  0.00    +0.187 C 
ATOM     17  O   UNL     1       0.736   0.985  23.843  0.00  0.00    -0.220 OA
ATOM     18  C   UNL     1      -0.362   0.078  23.970  0.00  0.00    +0.202 C 
ATOM     19  O   UNL     1       0.151  -0.558  23.857  0.00  0.00    -0.219 OA
ENDROOT
BRANCH  11  10
ATOM      8  C   UNL     1      -1.869  -1.108  24.755  0.00  0.00    +0.257 C 
ATOM      9  O   UNL     1      -1.986  -0.617  25.407  0.00  0.00    -0.272 OA
ATOM     10  N   UNL     1      -1.460  -0.827  24.096  0.00  0.00    -0.203 NA
BRANCH   8   3
ATOM      3  C   UNL     1      -2.162  -1.879  24.762  0.00  0.00    +0.150 C 
BRANCH   3   2
ATOM      1  C   UNL     1      -1.222  -2.912  25.063  0.00  0.00    +0.108 C 
ATOM      2  N   UNL     1      -1.683  -2.504  24.515  0.00  0.00    -0.209 NA
ENDBRANCH   3   2
BRANCH   3   4
ATOM      4  C   UNL     1      -2.933  -2.026  25.015  0.00  0.00    +0.027 C 
BRANCH   4   5
ATOM      5  C   UNL     1      -3.466  -2.408  24.515  0.00  0.00    +0.002 C 
ATOM      6  C   UNL     1      -3.988  -1.966  24.054  0.00  0.00    +0.000 C 
ATOM      7  C   UNL     1      -3.478  -3.232  24.476  0.00  0.00    +0.000 C 
ENDBRANCH   4   5
ENDBRANCH   3   4
ENDBRANCH   8   3
ENDBRANCH  11  10
BRANCH  13  20
ATOM     20  C   UNL     1      -1.372   2.176  24.234  0.00  0.00    +0.269 C 
ATOM     21  O   UNL     1      -1.174   2.618  23.566  0.00  0.00    -0.271 OA
ATOM     22  N   UNL     1      -1.555   2.558  24.942  0.00  0.00    -0.195 NA
BRANCH  22  23
ATOM     23  C   UNL     1      -1.539   3.382  24.982  0.00  0.00    +0.179 C 
BRANCH  23  34
ATOM     34  C   UNL     1      -0.839   3.773  25.174  0.00  0.00    +0.281 C 
ATOM     35  N   UNL     1      -0.596   4.425  24.732  0.00  0.00    -0.086 NA
ATOM     36  O   UNL     1      -0.380   3.510  25.808  0.00  0.00    -0.270 OA
ENDBRANCH  23  34
BRANCH  23  24
ATOM     24  C   UNL     1      -2.225   3.815  24.831  0.00  0.00    +0.059 C 
BRANCH  24  25
ATOM     25  C   UNL     1      -2.807   3.883  25.411  0.00  0.00    +0.001 A 
ATOM     26  C   UNL     1      -2.677   4.012  26.216  0.00  0.00    +0.095 A 
ATOM     27  N   UNL     1      -3.411   4.041  26.591  0.00  0.00    -0.244 NA
ATOM     28  C   UNL     1      -3.995   3.931  26.018  0.00  0.00    +0.081 A 
ATOM     29  C   UNL     1      -3.622   3.832  25.289  0.00  0.00    +0.015 A 
ATOM     30  C   UNL     1      -4.071   3.710  24.609  0.00  0.00    +0.001 A 
ATOM     31  C   UNL     1      -4.895   3.686  24.657  0.00  0.00    +0.000 A 
ATOM     32  C   UNL     1      -5.268   3.784  25.387  0.00  0.00    +0.002 A 
ATOM     33  C   UNL     1      -4.818   3.906  26.067  0.00  0.00    +0.019 A 
ENDBRANCH  24  25
ENDBRANCH  23  24
ENDBRANCH  22  23
ENDBRANCH  13  20
TORSDOF 10
ENDMDL
MODEL 2
REMARK VINA RESULT:     -10.0      1.807      2.718
REMARK  Name = 
REMARK  10 active torsions:
REMARK  status: ('A' for Active; 'I' for Inactive)
REMARK    1  A    between atoms: N_2  and  C_3
REMARK    2  A    between atoms: C_3  and  C_4
REMARK    3  A    between atoms: C_3  and  C_8
REMARK    4  A    between atoms: C_4  and  C_5
REMARK    5  A    between atoms: N_10  and  C_11
REMARK    6  A    between atoms: C_13  and  C_20
REMARK    7  A    between atoms: N_22  and  C_23
REMARK    8  A    between atoms: C_23  and  C_24
REMARK    9  A    between atoms: C_23  and  C_34
REMARK   10  A    between atoms: C_24  and  C_25
REMARK                            x       y       z     vdW  Elec       q    Type
REMARK                         _______ _______ _______ _____ _____    ______ ____
ROOT
ATOM     11  C   UNL     1      -3.544   0.298  23.874  0.00  0.00    +0.131 C 
ATOM     12  C   UNL     1      -4.006   0.692  24.433  0.00  0.00    +0.064 C 
ATOM     13  C   UNL     1      -4.103   1.509  24.386  0.00  0.00    +0.200 C 
ATOM     14  O   UNL     1      -4.556   1.351  25.057  0.00  0.00    -0.216 OA
ATOM     15  C   UNL     1      -3.738   1.933  23.780  0.00  0.00    +0.075 C 
ATOM     16  C   UNL     1      -3.276   1.540  23.220  0.00  0.00    +0.187 C 
ATOM     17  O   UNL     1      -2.911   1.965  22.614  0.00  0.00    -0.220 OA
ATOM     18  C   UNL     1      -3.179   0.722  23.268  0.00  0.00    +0.202 C 
ATOM     19  O   UNL     1      -2.718   0.329  22.709  0.00  0.00    -0.219 OA
ENDROOT
BRANCH  11  10
ATOM      8  C   UNL     1      -3.017  -0.850  24.543  0.00  0.00    +0.257 C 
ATOM      9  O   UNL     1      -2.684  -0.361  25.119  0.00  0.00    -0.272 OA
ATOM     10  N   UNL     1      -3.447  -0.520  23.921  0.00  0.00    -0.203 NA
BRANCH   8   3
ATOM      3  C   UNL     1      -2.920  -1.667  24.591  0.00  0.00    +0.150 C 
BRANCH   3   2
ATOM      1  C   UNL     1      -1.541  -1.951  24.831  0.00  0.00    +0.108 C 
ATOM      2  N   UNL     1      -2.210  -2.012  24.353  0.00  0.00    -0.209 NA
ENDBRANCH   3   2
BRANCH   3   4
ATOM      4  C   UNL     1      -3.533  -2.140  24.875  0.00  0.00    +0.027 C 
BRANCH   4   5
ATOM      5  C   UNL     1      -3.698  -2.864  24.516  0.00  0.00    +0.002 C 
ATOM      6  C   UNL     1      -3.408  -3.562  24.843  0.00  0.00    +0.000 C 
ATOM      7  C   UNL     1      -4.152  -2.888  23.828  0.00  0.00    +0.000 C 
ENDBRANCH   4   5
ENDBRANCH   3   4
ENDBRANCH   8   3
ENDBRANCH  11  10
BRANCH  13  20
ATOM     20  C   UNL     1      -4.357   2.273  24.571  0.00  0.00    +0.269 C 
ATOM     21  O   UNL     1      -4.882   2.666  24.071  0.00  0.00    -0.271 OA
ATOM     22  N   UNL     1      -4.085   2.642  25.257  0.00  0.00    -0.195 NA
BRANCH  22  23
ATOM     23  C   UNL     1      -4.339   3.405  25.443  0.00  0.00    +0.179 C 
BRANCH  23  34
ATOM     34  C   UNL     1      -5.077   3.520  25.793  0.00  0.00    +0.281 C 
ATOM     35  N   UNL     1      -5.605   4.065  25.472  0.00  0.00    -0.086 NA
ATOM     36  O   UNL     1      -5.286   3.090  26.465  0.00  0.00    -0.270 OA
ENDBRANCH  23  34
BRANCH  23  24
ATOM     24  C   UNL     1      -3.855   4.052  25.279  0.00  0.00    +0.059 C 
BRANCH  24  25
ATOM     25  C   UNL     1      -3.107   4.106  25.623  0.00  0.00    +0.001 A 
ATOM     26  C   UNL     1      -2.891   3.806  26.361  0.00  0.00    +0.095 A 
ATOM     27  N   UNL     1      -2.094   3.983  26.485  0.00  0.00    -0.244 NA
ATOM     28  C   UNL     1      -1.819   4.393  25.823  0.00  0.00    +0.081 A 
ATOM     29  C   UNL     1      -2.444   4.468  25.291  0.00  0.00    +0.015 A 
ATOM     30  C   UNL     1      -2.331   4.857  24.573  0.00  0.00    +0.001 A 
ATOM     31  C   UNL     1      -1.590   5.170  24.386  0.00  0.00    +0.000 A 
ATOM     32  C   UNL     1      -0.965   5.094  24.918  0.00  0.00    +0.002 A 
ATOM     33  C   UNL     1      -1.079   4.706  25.636  0.00  0.00    +0.019 A 
ENDBRANCH  24  25
ENDBRANCH  23  24
ENDBRANCH  22  23
ENDBRANCH  13  20
TORSDOF 10
ENDMDL
MODEL 3
REMARK VINA RESULT:      -9.4      2.037      4.704
REMARK  Name = 
REMARK  10 active torsions:
REMARK  status: ('A' for Active; 'I' for Inactive)
REMARK    1  A    between atoms: N_2  and  C_3
REMARK    2  A    between atoms: C_3  and  C_4
REMARK    3  A    between atoms: C_3  and  C_8
REMARK    4  A    between atoms: C_4  and  C_5
REMARK    5  A    between atoms: N_10  and  C_11
REMARK    6  A    between atoms: C_13  and  C_20
REMARK    7  A    between atoms: N_22  and  C_23
REMARK    8  A    between atoms: C_23  and  C_24
REMARK    9  A    between atoms: C_23  and  C_34
REMARK   10  A    between atoms: C_24  and  C_25
REMARK                            x       y       z     vdW  Elec       q    Type
REMARK                         _______ _______ _______ _____ _____    ______ ____
ROOT
ATOM     11  C   UNL     1       0.271   1.271  23.962  0.00  0.00    +0.131 C 
ATOM     12  C   UNL     1      -0.440   0.868  23.849  0.00  0.00    +0.064 C 
ATOM     13  C   UNL     1      -1.075   0.999  24.358  0.00  0.00    +0.200 C 
ATOM     14  O   UNL     1      -1.412   0.443  23.851  0.00  0.00    -0.216 OA
ATOM     15  C   UNL     1      -0.999   1.534  24.981  0.00  0.00    +0.075 C 
ATOM     16  C   UNL     1      -0.289   1.938  25.096  0.00  0.00    +0.187 C 
ATOM     17  O   UNL     1      -0.213   2.473  25.719  0.00  0.00    -0.220 OA
ATOM     18  C   UNL     1       0.347   1.806  24.585  0.00  0.00    +0.202 C 
ATOM     19  O   UNL     1       1.057   2.210  24.700  0.00  0.00    -0.219 OA
ENDROOT
BRANCH  11  10
ATOM      8  C   UNL     1       1.217   0.379  23.368  0.00  0.00    +0.257 C 
ATOM      9  O   UNL     1       0.892  -0.249  23.793  0.00  0.00    -0.272 OA
ATOM     10  N   UNL     1       0.906   1.139  23.453  0.00  0.00    -0.203 NA
BRANCH   8   3
ATOM      3  C   UNL     1       1.852   0.248  22.859  0.00  0.00    +0.150 C 
BRANCH   3   2
ATOM      1  C   UNL     1       1.404  -0.313  21.623  0.00  0.00    +0.108 C 
ATOM      2  N   UNL     1       1.829  -0.382  22.326  0.00  0.00    -0.209 NA
ENDBRANCH   3   2
BRANCH   3   4
ATOM      4  C   UNL     1       2.510   0.745  22.881  0.00  0.00    +0.027 C 
BRANCH   4   5
ATOM      5  C   UNL     1       3.269   0.429  22.828  0.00  0.00    +0.002 C 
ATOM      6  C   UNL     1       3.459  -0.258  23.243  0.00  0.00    +0.000 C 
ATOM      7  C   UNL     1       3.839   0.799  22.360  0.00  0.00    +0.000 C 
ENDBRANCH   4   5
ENDBRANCH   3   4
ENDBRANCH   8   3
ENDBRANCH  11  10
BRANCH  13  20
ATOM     20  C   UNL     1      -1.827   0.938  24.692  0.00  0.00    +0.269 C 
ATOM     21  O   UNL     1      -1.936   1.091  25.495  0.00  0.00    -0.271 OA
ATOM     22  N   UNL     1      -2.470   0.724  24.222  0.00  0.00    -0.195 NA
BRANCH  22  23
ATOM     23  C   UNL     1      -3.223   0.663  24.555  0.00  0.00    +0.179 C 
BRANCH  23  34
ATOM     34  C   UNL     1      -3.747   1.298  24.509  0.00  0.00    +0.281 C 
ATOM     35  N   UNL     1      -4.170   1.534  25.176  0.00  0.00    -0.086 NA
ATOM     36  O   UNL     1      -3.849   1.698  23.794  0.00  0.00    -0.270 OA
ENDBRANCH  23  34
BRANCH  23  24
ATOM     24  C   UNL     1      -3.451  -0.033  24.935  0.00  0.00    +0.059 C 
BRANCH  24  25
ATOM     25  C   UNL     1      -3.733  -0.670  24.493  0.00  0.00    +0.001 A 
ATOM     26  C   UNL     1      -4.151  -0.621  23.784  0.00  0.00    +0.095 A 
ATOM     27  N   UNL     1      -4.323  -1.388  23.535  0.00  0.00    -0.244 NA
ATOM     28  C   UNL     1      -4.011  -1.912  24.092  0.00  0.00    +0.081 A 
ATOM     29  C   UNL     1      -3.646  -1.468  24.683  0.00  0.00    +0.015 A 
ATOM     30  C   UNL     1      -3.282  -1.848  25.318  0.00  0.00    +0.001 A 
ATOM     31  C   UNL     1      -3.283  -2.672  25.363  0.00  0.00    +0.000 A 
ATOM     32  C   UNL     1      -3.648  -3.116  24.770  0.00  0.00    +0.002 A 
ATOM     33  C   UNL     1      -4.012  -2.736  24.135  0.00  0.00    +0.019 A 
ENDBRANCH  24  25
ENDBRANCH  23  24
ENDBRANCH  22  23
ENDBRANCH  13  20
TORSDOF 10
ENDMDL
MODEL 4
REMARK VINA RESULT:      -9.4      1.051      1.363
REMARK  Name = 
REMARK  10 active torsions:
REMARK  status: ('A' for Active; 'I' for Inactive)
REMARK    1  A    between atoms: N_2  and  C_3
REMARK    2  A    between atoms: C_3  and  C_4
REMARK    3  A    between atoms: C_3  and  C_8
REMARK    4  A    between atoms: C_4  and  C_5
REMARK    5  A    between atoms: N_10  and  C_11
REMARK    6  A    between atoms: C_13  and  C_20
REMARK    7  A    between atoms: N_22  and  C_23
REMARK    8  A    between atoms: C_23  and  C_24
REMARK    9  A    between atoms: C_23  and  C_34
REMARK   10  A    between atoms: C_24  and  C_25
REMARK                            x       y       z     vdW  Elec       q    Type
REMARK                         _______ _______ _______ _____ _____    ______ ____
ROOT
ATOM     11  C   UNL     1      -0.941   0.457  24.330  0.00  0.00    +0.131 C 
ATOM     12  C   UNL     1      -1.689   0.805  24.357  0.00  0.00    +0.064 C 
ATOM     13  C   UNL     1      -1.765   1.625  24.336  0.00  0.00    +0.200 C 
ATOM     14  O   UNL     1      -2.560   1.411  24.381  0.00  0.00    -0.216 OA
ATOM     15  C   UNL     1      -1.091   2.100  24.288  0.00  0.00    +0.075 C 
ATOM     16  C   UNL     1      -0.343   1.754  24.262  0.00  0.00    +0.187 C 
ATOM     17  O   UNL     1       0.330   2.229  24.214  0.00  0.00    -0.220 OA
ATOM     18  C   UNL     1      -0.268   0.932  24.283  0.00  0.00    +0.202 C 
ATOM     19  O   UNL     1       0.480   0.586  24.256  0.00  0.00    -0.219 OA
ENDROOT
BRANCH  11  10
ATOM      8  C   UNL     1      -1.163  -0.789  24.992  0.00  0.00    +0.257 C 
ATOM      9  O   UNL     1      -1.536  -0.394  25.613  0.00  0.00    -0.272 OA
ATOM     10  N   UNL     1      -0.866  -0.363  24.351  0.00  0.00    -0.203 NA
BRANCH   8   3
ATOM      3  C   UNL     1      -1.088  -1.610  25.013  0.00  0.00    +0.150 C 
BRANCH   3   2
ATOM      1  C   UNL     1       0.079  -2.308  25.454  0.00  0.00    +0.108 C 
ATOM      2  N   UNL     1      -0.361  -1.962  24.847  0.00  0.00    -0.209 NA
ENDBRANCH   3   2
BRANCH   3   4
ATOM      4  C   UNL     1      -1.740  -2.080  25.200  0.00  0.00    +0.027 C 
BRANCH   4   5
ATOM      5  C   UNL     1      -2.142  -2.485  24.604  0.00  0.00    +0.002 C 
ATOM      6  C   UNL     1      -1.720  -2.911  24.038  0.00  0.00    +0.000 C 
ATOM      7  C   UNL     1      -2.966  -2.463  24.574  0.00  0.00    +0.000 C 
ENDBRANCH   4   5
ENDBRANCH   3   4
ENDBRANCH   8   3
ENDBRANCH  11  10
BRANCH  13  20
ATOM     20  C   UNL     1      -2.115   2.373  24.331  0.00  0.00    +0.269 C 
ATOM     21  O   UNL     1      -2.069   2.846  23.657  0.00  0.00    -0.271 OA
ATOM     22  N   UNL     1      -2.513   2.646  25.000  0.00  0.00    -0.195 NA
BRANCH  22  23
ATOM     23  C   UNL     1      -2.864   3.393  24.996  0.00  0.00    +0.179 C 
BRANCH  23  34
ATOM     34  C   UNL     1      -2.426   4.055  25.220  0.00  0.00    +0.281 C 
ATOM     35  N   UNL     1      -2.386   4.710  24.722  0.00  0.00    -0.086 NA
ATOM     36  O   UNL     1      -2.029   4.062  25.943  0.00  0.00    -0.270 OA
ENDBRANCH  23  34
BRANCH  23  24
ATOM     24  C   UNL     1      -3.652   3.477  24.768  0.00  0.00    +0.059 C 
BRANCH  24  25
ATOM     25  C   UNL     1      -4.255   3.371  25.320  0.00  0.00    +0.001 A 
ATOM     26  C   UNL     1      -4.289   3.709  26.072  0.00  0.00    +0.095 A 
ATOM     27  N   UNL     1      -4.985   3.455  26.435  0.00  0.00    -0.244 NA
ATOM     28  C   UNL     1      -5.381   2.960  25.907  0.00  0.00    +0.081 A 
ATOM     29  C   UNL     1      -4.930   2.908  25.219  0.00  0.00    +0.015 A 
ATOM     30  C   UNL     1      -5.192   2.446  24.588  0.00  0.00    +0.001 A 
ATOM     31  C   UNL     1      -5.906   2.035  24.645  0.00  0.00    +0.000 A 
ATOM     32  C   UNL     1      -6.357   2.088  25.334  0.00  0.00    +0.002 A 
ATOM     33  C   UNL     1      -6.095   2.549  25.965  0.00  0.00    +0.019 A 
ENDBRANCH  24  25
ENDBRANCH  23  24
ENDBRANCH  22  23
ENDBRANCH  13  20
TORSDOF 10
ENDMDL
MODEL 5
REMARK VINA RESULT:      -9.1      1.031      5.114
REMARK  Name = 
REMARK  10 active torsions:
REMARK  status: ('A' for Active; 'I' for Inactive)
REMARK    1  A    between atoms: N_2  and  C_3
REMARK    2  A    between atoms: C_3  and  C_4
REMARK    3  A    between atoms: C_3  and  C_8
REMARK    4  A    between atoms: C_4  and  C_5
REMARK    5  A    between atoms: N_10  and  C_11
REMARK    6  A    between atoms: C_13  and  C_20
REMARK    7  A    between atoms: N_22  and  C_23
REMARK    8  A    between atoms: C_23  and  C_24
REMARK    9  A    between atoms: C_23  and  C_34
REMARK   10  A    between atoms: C_24  and  C_25
REMARK                            x       y       z     vdW  Elec       q    Type
REMARK                         _______ _______ _______ _____ _____    ______ ____
ROOT
ATOM     11  C   UNL     1      -0.962   2.401  25.111  0.00  0.00    +0.131 C 
ATOM     12  C   UNL     1      -1.375   1.687  25.087  0.00  0.00    +0.064 C 
ATOM     13  C   UNL     1      -1.003   1.003  24.815  0.00  0.00    +0.200 C 
ATOM     14  O   UNL     1      -1.749   0.699  24.990  0.00  0.00    -0.216 OA
ATOM     15  C   UNL     1      -0.217   1.033  24.565  0.00  0.00    +0.075 C 
ATOM     16  C   UNL     1       0.197   1.747  24.589  0.00  0.00    +0.187 C 
ATOM     17  O   UNL     1       0.983   1.777  24.339  0.00  0.00    -0.220 OA
ATOM     18  C   UNL     1      -0.176   2.431  24.862  0.00  0.00    +0.202 C 
ATOM     19  O   UNL     1       0.238   3.144  24.885  0.00  0.00    -0.219 OA
ENDROOT
BRANCH  11  10
ATOM      8  C   UNL     1      -1.937   3.431  24.941  0.00  0.00    +0.257 C 
ATOM      9  O   UNL     1      -2.168   3.094  24.224  0.00  0.00    -0.272 OA
ATOM     10  N   UNL     1      -1.334   3.084  25.384  0.00  0.00    -0.203 NA
BRANCH   8   3
ATOM      3  C   UNL     1      -2.310   4.114  25.213  0.00  0.00    +0.150 C 
BRANCH   3   2
ATOM      1  C   UNL     1      -1.686   5.397  25.123  0.00  0.00    +0.108 C 
ATOM      2  N   UNL     1      -1.864   4.718  25.556  0.00  0.00    -0.209 NA
ENDBRANCH   3   2
BRANCH   3   4
ATOM      4  C   UNL     1      -3.128   4.195  25.143  0.00  0.00    +0.027 C 
BRANCH   4   5
ATOM      5  C   UNL     1      -3.612   4.081  25.801  0.00  0.00    +0.002 C 
ATOM      6  C   UNL     1      -4.336   3.695  25.718  0.00  0.00    +0.000 C 
ATOM      7  C   UNL     1      -3.371   4.352  26.542  0.00  0.00    +0.000 C 
ENDBRANCH   4   5
ENDBRANCH   3   4
ENDBRANCH   8   3
ENDBRANCH  11  10
BRANCH  13  20
ATOM     20  C   UNL     1      -0.889   0.214  24.603  0.00  0.00    +0.269 C 
ATOM     21  O   UNL     1      -0.491   0.027  23.905  0.00  0.00    -0.271 OA
ATOM     22  N   UNL     1      -1.173  -0.388  25.089  0.00  0.00    -0.195 NA
BRANCH  22  23
ATOM     23  C   UNL     1      -1.060  -1.178  24.878  0.00  0.00    +0.179 C 
BRANCH  23  34
ATOM     34  C   UNL     1      -0.418  -1.598  25.181  0.00  0.00    +0.281 C 
ATOM     35  N   UNL     1       0.097  -1.989  24.670  0.00  0.00    -0.086 NA
ATOM     36  O   UNL     1      -0.290  -1.625  25.996  0.00  0.00    -0.270 OA
ENDBRANCH  23  34
BRANCH  23  24
ATOM     24  C   UNL     1      -1.588  -1.548  24.364  0.00  0.00    +0.059 C 
BRANCH  24  25
ATOM     25  C   UNL     1      -2.242  -1.951  24.664  0.00  0.00    +0.001 A 
ATOM     26  C   UNL     1      -2.264  -2.385  25.366  0.00  0.00    +0.095 A 
ATOM     27  N   UNL     1      -3.025  -2.693  25.451  0.00  0.00    -0.244 NA
ATOM     28  C   UNL     1      -3.473  -2.448  24.803  0.00  0.00    +0.081 A 
ATOM     29  C   UNL     1      -2.990  -1.990  24.317  0.00  0.00    +0.015 A 
ATOM     30  C   UNL     1      -3.292  -1.667  23.621  0.00  0.00    +0.001 A 
ATOM     31  C   UNL     1      -4.079  -1.803  23.410  0.00  0.00    +0.000 A 
ATOM     32  C   UNL     1      -4.561  -2.262  23.897  0.00  0.00    +0.002 A 
ATOM     33  C   UNL     1      -4.259  -2.585  24.593  0.00  0.00    +0.019 A 
ENDBRANCH  24  25
ENDBRANCH  23  24
ENDBRANCH  22  23
ENDBRANCH  13  20
TORSDOF 10
ENDMDL
MODEL 6
REMARK VINA RESULT:      -9.1      2.084      3.852
REMARK  Name = 
REMARK  10 active torsions:
REMARK  status: ('A' for Active; 'I' for Inactive)
REMARK    1  A    between atoms: N_2  and  C_3
REMARK    2  A    between atoms: C_3  and  C_4
REMARK    3  A    between atoms: C_3  and  C_8
REMARK    4  A    between atoms: C_4  and  C_5
REMARK    5  A    between atoms: N_10  and  C_11
REMARK    6  A    between atoms: C_13  and  C_20
REMARK    7  A    between atoms: N_22  and  C_23
REMARK    8  A    between atoms: C_23  and  C_24
REMARK    9  A    between atoms: C_23  and  C_34
REMARK   10  A    between atoms: C_24  and  C_25
REMARK                            x       y       z     vdW  Elec       q    Type
REMARK                         _______ _______ _______ _____ _____    ______ ____
ROOT
ATOM     11  C   UNL     1       0.132   0.904  23.866  0.00  0.00    +0.131 C 
ATOM     12  C   UNL     1      -0.541   0.427  23.832  0.00  0.00    +0.064 C 
ATOM     13  C   UNL     1      -1.138   0.514  24.394  0.00  0.00    +0.200 C 
ATOM     14  O   UNL     1      -1.460  -0.092  23.937  0.00  0.00    -0.216 OA
ATOM     15  C   UNL     1      -1.062   1.078  24.991  0.00  0.00    +0.075 C 
ATOM     16  C   UNL     1      -0.390   1.555  25.027  0.00  0.00    +0.187 C 
ATOM     17  O   UNL     1      -0.315   2.118  25.625  0.00  0.00    -0.220 OA
ATOM     18  C   UNL     1       0.208   1.467  24.464  0.00  0.00    +0.202 C 
ATOM     19  O   UNL     1       0.880   1.944  24.500  0.00  0.00    -0.219 OA
ENDROOT
BRANCH  11  10
ATOM      8  C   UNL     1       1.135   0.101  23.239  0.00  0.00    +0.257 C 
ATOM      9  O   UNL     1       0.942  -0.528  23.738  0.00  0.00    -0.272 OA
ATOM     10  N   UNL     1       0.729   0.817  23.304  0.00  0.00    -0.203 NA
BRANCH   8   3
ATOM      3  C   UNL     1       1.731   0.014  22.677  0.00  0.00    +0.150 C 
BRANCH   3   2
ATOM      1  C   UNL     1       1.228  -0.647  21.515  0.00  0.00    +0.108 C 
ATOM      2  N   UNL     1       1.545   0.024  21.874  0.00  0.00    -0.209 NA
ENDBRANCH   3   2
BRANCH   3   4
ATOM      4  C   UNL     1       2.515  -0.083  22.918  0.00  0.00    +0.027 C 
BRANCH   4   5
ATOM      5  C   UNL     1       3.118   0.328  22.536  0.00  0.00    +0.002 C 
ATOM      6  C   UNL     1       3.491   0.958  22.914  0.00  0.00    +0.000 C 
ATOM      7  C   UNL     1       3.349   0.109  21.775  0.00  0.00    +0.000 C 
ENDBRANCH   4   5
ENDBRANCH   3   4
ENDBRANCH   8   3
ENDBRANCH  11  10
BRANCH  13  20
ATOM     20  C   UNL     1      -1.847   0.391  24.798  0.00  0.00    +0.269 C 
ATOM     21  O   UNL     1      -1.837   0.111  25.574  0.00  0.00    -0.271 OA
ATOM     22  N   UNL     1      -2.566   0.548  24.426  0.00  0.00    -0.195 NA
BRANCH  22  23
ATOM     23  C   UNL     1      -3.275   0.426  24.829  0.00  0.00    +0.179 C 
BRANCH  23  34
ATOM     34  C   UNL     1      -3.646  -0.310  24.795  0.00  0.00    +0.281 C 
ATOM     35  N   UNL     1      -3.857  -0.698  25.492  0.00  0.00    -0.086 NA
ATOM     36  O   UNL     1      -3.807  -0.658  24.065  0.00  0.00    -0.270 OA
ENDBRANCH  23  34
BRANCH  23  24
ATOM     24  C   UNL     1      -3.613   1.039  25.266  0.00  0.00    +0.059 C 
BRANCH  24  25
ATOM     25  C   UNL     1      -4.057   1.620  24.885  0.00  0.00    +0.001 A 
ATOM     26  C   UNL     1      -4.456   1.533  24.167  0.00  0.00    +0.095 A 
ATOM     27  N   UNL     1      -4.826   2.250  23.993  0.00  0.00    -0.244 NA
ATOM     28  C   UNL     1      -4.655   2.780  24.603  0.00  0.00    +0.081 A 
ATOM     29  C   UNL     1      -4.181   2.390  25.154  0.00  0.00    +0.015 A 
ATOM     30  C   UNL     1      -3.922   2.787  25.829  0.00  0.00    +0.001 A 
ATOM     31  C   UNL     1      -4.138   3.574  25.954  0.00  0.00    +0.000 A 
ATOM     32  C   UNL     1      -4.613   3.963  25.403  0.00  0.00    +0.002 A 
ATOM     33  C   UNL     1      -4.872   3.566  24.728  0.00  0.00    +0.019 A 
ENDBRANCH  24  25
ENDBRANCH  23  24
ENDBRANCH  22  23
ENDBRANCH  13  20
TORSDOF 10
ENDMDL
MODEL 7
REMARK VINA RESULT:      -8.9      1.963      3.453
REMARK  Name = 
REMARK  10 active torsions:
REMARK  status: ('A' for Active; 'I' for Inactive)
REMARK    1  A    between atoms: N_2  and  C_3
REMARK    2  A    between atoms: C_3  and  C_4
REMARK    3  A    between atoms: C_3  and  C_8
REMARK    4  A    between atoms: C_4  and  C_5
REMARK    5  A    between atoms: N_10  and  C_11
REMARK    6  A    between atoms: C_13  and  C_20
REMARK    7  A    between atoms: N_22  and  C_23
REMARK    8  A    between atoms: C_23  and  C_24
REMARK    9  A    between atoms: C_23  and  C_34
REMARK   10  A    between atoms: C_24  and  C_25
REMARK                            x       y       z     vdW  Elec       q    Type
REMARK                         _______ _______ _______ _____ _____    ______ ____
ROOT
ATOM     11  C   UNL     1       0.065   0.489  23.958  0.00  0.00    +0.131 C 
ATOM     12  C   UNL     1      -0.126   1.291  24.002  0.00  0.00    +0.064 C 
ATOM     13  C   UNL     1      -0.669   1.556  24.562  0.00  0.00    +0.200 C 
ATOM     14  O   UNL     1      -0.482   2.271  24.195  0.00  0.00    -0.216 OA
ATOM     15  C   UNL     1      -1.023   1.020  25.080  0.00  0.00    +0.075 C 
ATOM     16  C   UNL     1      -0.833   0.218  25.037  0.00  0.00    +0.187 C 
ATOM     17  O   UNL     1      -1.186  -0.318  25.555  0.00  0.00    -0.220 OA
ATOM     18  C   UNL     1      -0.289  -0.047  24.476  0.00  0.00    +0.202 C 
ATOM     19  O   UNL     1      -0.099  -0.849  24.433  0.00  0.00    -0.219 OA
ENDROOT
BRANCH  11  10
ATOM      8  C   UNL     1       1.356   0.570  23.351  0.00  0.00    +0.257 C 
ATOM      9  O   UNL     1       1.560   1.182  23.865  0.00  0.00    -0.272 OA
ATOM     10  N   UNL     1       0.608   0.224  23.398  0.00  0.00    -0.203 NA
BRANCH   8   3
ATOM      3  C   UNL     1       1.899   0.304  22.791  0.00  0.00    +0.150 C 
BRANCH   3   2
ATOM      1  C   UNL     1       1.568  -0.286  21.532  0.00  0.00    +0.108 C 
ATOM      2  N   UNL     1       1.731  -0.364  22.337  0.00  0.00    -0.209 NA
ENDBRANCH   3   2
BRANCH   3   4
ATOM      4  C   UNL     1       2.612   0.706  22.683  0.00  0.00    +0.027 C 
BRANCH   4   5
ATOM      5  C   UNL     1       3.328   0.325  22.830  0.00  0.00    +0.002 C 
ATOM      6  C   UNL     1       3.332  -0.457  23.093  0.00  0.00    +0.000 C 
ATOM      7  C   UNL     1       4.040   0.725  22.713  0.00  0.00    +0.000 C 
ENDBRANCH   4   5
ENDBRANCH   3   4
ENDBRANCH   8   3
ENDBRANCH  11  10
BRANCH  13  20
ATOM     20  C   UNL     1      -1.148   2.070  24.996  0.00  0.00    +0.269 C 
ATOM     21  O   UNL     1      -1.057   2.128  25.814  0.00  0.00    -0.271 OA
ATOM     22  N   UNL     1      -1.719   2.524  24.611  0.00  0.00    -0.195 NA
BRANCH  22  23
ATOM     23  C   UNL     1      -2.198   3.038  25.044  0.00  0.00    +0.179 C 
BRANCH  23  34
ATOM     34  C   UNL     1      -1.949   3.811  25.189  0.00  0.00    +0.281 C 
ATOM     35  N   UNL     1      -1.974   4.115  25.955  0.00  0.00    -0.086 NA
ATOM     36  O   UNL     1      -1.674   4.279  24.568  0.00  0.00    -0.270 OA
ENDBRANCH  23  34
BRANCH  23  24
ATOM     24  C   UNL     1      -2.927   2.778  25.332  0.00  0.00    +0.059 C 
BRANCH  24  25
ATOM     25  C   UNL     1      -3.587   2.777  24.839  0.00  0.00    +0.001 A 
ATOM     26  C   UNL     1      -3.638   3.128  24.094  0.00  0.00    +0.095 A 
ATOM     27  N   UNL     1      -4.396   2.992  23.798  0.00  0.00    -0.244 NA
ATOM     28  C   UNL     1      -4.815   2.557  24.361  0.00  0.00    +0.081 A 
ATOM     29  C   UNL     1      -4.315   2.424  25.004  0.00  0.00    +0.015 A 
ATOM     30  C   UNL     1      -4.587   1.999  25.656  0.00  0.00    +0.001 A 
ATOM     31  C   UNL     1      -5.359   1.707  25.666  0.00  0.00    +0.000 A 
ATOM     32  C   UNL     1      -5.858   1.840  25.023  0.00  0.00    +0.002 A 
ATOM     33  C   UNL     1      -5.586   2.265  24.371  0.00  0.00    +0.019 A 
ENDBRANCH  24  25
ENDBRANCH  23  24
ENDBRANCH  22  23
ENDBRANCH  13  20
TORSDOF 10
ENDMDL
MODEL 8
REMARK VINA RESULT:      -8.8      1.867      5.962
REMARK  Name = 
REMARK  10 active torsions:
REMARK  status: ('A' for Active; 'I' for Inactive)
REMARK    1  A    between atoms: N_2  and  C_3
REMARK    2  A    between atoms: C_3  and  C_4
REMARK    3  A    between atoms: C_3  and  C_8
REMARK    4  A    between atoms: C_4  and  C_5
REMARK    5  A    between atoms: N_10  and  C_11
REMARK    6  A    between atoms: C_13  and  C_20
REMARK    7  A    between atoms: N_22  and  C_23
REMARK    8  A    between atoms: C_23  and  C_24
REMARK    9  A    between atoms: C_23  and  C_34
REMARK   10  A    between atoms: C_24  and  C_25
REMARK                            x       y       z     vdW  Elec       q    Type
REMARK                         _______ _______ _______ _____ _____    ______ ____
ROOT
ATOM     11  C   UNL     1      -3.848   2.522  24.844  0.00  0.00    +0.131 C 
ATOM     12  C   UNL     1      -3.423   1.816  24.892  0.00  0.00    +0.064 C 
ATOM     13  C   UNL     1      -3.820   1.094  24.885  0.00  0.00    +0.200 C 
ATOM     14  O   UNL     1      -3.041   0.828  24.944  0.00  0.00    -0.216 OA
ATOM     15  C   UNL     1      -4.643   1.076  24.831  0.00  0.00    +0.075 C 
ATOM     16  C   UNL     1      -5.069   1.780  24.783  0.00  0.00    +0.187 C 
ATOM     17  O   UNL     1      -5.892   1.762  24.729  0.00  0.00    -0.220 OA
ATOM     18  C   UNL     1      -4.671   2.504  24.790  0.00  0.00    +0.202 C 
ATOM     19  O   UNL     1      -5.098   3.208  24.743  0.00  0.00    -0.219 OA
ENDROOT
BRANCH  11  10
ATOM      8  C   UNL     1      -2.936   3.427  25.469  0.00  0.00    +0.257 C 
ATOM      9  O   UNL     1      -2.818   2.886  26.080  0.00  0.00    -0.272 OA
ATOM     10  N   UNL     1      -3.452   3.245  24.851  0.00  0.00    -0.203 NA
BRANCH   8   3
ATOM      3  C   UNL     1      -2.540   4.150  25.476  0.00  0.00    +0.150 C 
BRANCH   3   2
ATOM      1  C   UNL     1      -3.277   4.883  26.456  0.00  0.00    +0.108 C 
ATOM      2  N   UNL     1      -2.556   4.623  26.152  0.00  0.00    -0.209 NA
ENDBRANCH   3   2
BRANCH   3   4
ATOM      4  C   UNL     1      -2.126   4.401  24.807  0.00  0.00    +0.027 C 
BRANCH   4   5
ATOM      5  C   UNL     1      -1.378   4.738  24.886  0.00  0.00    +0.002 C 
ATOM      6  C   UNL     1      -0.710   4.256  24.914  0.00  0.00    +0.000 C 
ATOM      7  C   UNL     1      -1.298   5.557  24.938  0.00  0.00    +0.000 C 
ENDBRANCH   4   5
ENDBRANCH   3   4
ENDBRANCH   8   3
ENDBRANCH  11  10
BRANCH  13  20
ATOM     20  C   UNL     1      -3.947   0.278  24.899  0.00  0.00    +0.269 C 
ATOM     21  O   UNL     1      -4.497  -0.045  25.422  0.00  0.00    -0.271 OA
ATOM     22  N   UNL     1      -3.523  -0.213  24.389  0.00  0.00    -0.195 NA
BRANCH  22  23
ATOM     23  C   UNL     1      -3.650  -1.029  24.402  0.00  0.00    +0.179 C 
BRANCH  23  34
ATOM     34  C   UNL     1      -4.189  -1.371  23.880  0.00  0.00    +0.281 C 
ATOM     35  N   UNL     1      -4.748  -1.909  24.158  0.00  0.00    -0.086 NA
ATOM     36  O   UNL     1      -4.169  -1.174  23.079  0.00  0.00    -0.270 OA
ENDBRANCH  23  34
BRANCH  23  24
ATOM     24  C   UNL     1      -3.237  -1.502  24.937  0.00  0.00    +0.059 C 
BRANCH  24  25
ATOM     25  C   UNL     1      -2.547  -1.885  24.701  0.00  0.00    +0.001 A 
ATOM     26  C   UNL     1      -2.476  -2.413  24.070  0.00  0.00    +0.095 A 
ATOM     27  N   UNL     1      -1.691  -2.663  24.034  0.00  0.00    -0.244 NA
ATOM     28  C   UNL     1      -1.276  -2.289  24.642  0.00  0.00    +0.081 A 
ATOM     29  C   UNL     1      -1.804  -1.810  25.054  0.00  0.00    +0.015 A 
ATOM     30  C   UNL     1      -1.543  -1.365  25.697  0.00  0.00    +0.001 A 
ATOM     31  C   UNL     1      -0.751  -1.401  25.929  0.00  0.00    +0.000 A 
ATOM     32  C   UNL     1      -0.223  -1.881  25.516  0.00  0.00    +0.002 A 
ATOM     33  C   UNL     1      -0.484  -2.325  24.873  0.00  0.00    +0.019 A 
ENDBRANCH  24  25
ENDBRANCH  23  24
ENDBRANCH  22  23
ENDBRANCH  13  20
TORSDOF 10
ENDMDL
MODEL 9
REMARK VINA RESULT:      -8.7      1.302      5.095
REMARK  Name = 
REMARK  10 active torsions:
REMARK  status: ('A' for Active; 'I' for Inactive)
REMARK    1  A    between atoms: N_2  and  C_3
REMARK    2  A    between atoms: C_3  and  C_4
REMARK    3  A    between atoms: C_3  and  C_8
REMARK    4  A    between atoms: C_4  and  C_5
REMARK    5  A    between atoms: N_10  and  C_11
REMARK    6  A    between atoms: C_13  and  C_20
REMARK    7  A    between atoms: N_22  and  C_23
REMARK    8  A    between atoms: C_23  and  C_24
REMARK    9  A    between atoms: C_23  and  C_34
REMARK   10  A    between atoms: C_24  and  C_25
REMARK                            x       y       z     vdW  Elec       q    Type
REMARK                         _______ _______ _______ _____ _____    ______ ____
ROOT
ATOM     11  C   UNL     1      -2.865   2.566  24.163  0.00  0.00    +0.131 C 
ATOM     12  C   UNL     1      -2.368   2.016  24.526  0.00  0.00    +0.064 C 
ATOM     13  C   UNL     1      -2.001   1.431  24.075  0.00  0.00    +0.200 C 
ATOM     14  O   UNL     1      -1.709   1.239  24.823  0.00  0.00    -0.216 OA
ATOM     15  C   UNL     1      -2.129   1.396  23.261  0.00  0.00    +0.075 C 
ATOM     16  C   UNL     1      -2.625   1.946  22.897  0.00  0.00    +0.187 C 
ATOM     17  O   UNL     1      -2.753   1.911  22.083  0.00  0.00    -0.220 OA
ATOM     18  C   UNL     1      -2.993   2.531  23.348  0.00  0.00    +0.202 C 
ATOM     19  O   UNL     1      -3.489   3.081  22.984  0.00  0.00    -0.219 OA
ENDROOT
BRANCH  11  10
ATOM      8  C   UNL     1      -3.738   2.940  25.230  0.00  0.00    +0.257 C 
ATOM      9  O   UNL     1      -3.877   2.144  25.396  0.00  0.00    -0.272 OA
ATOM     10  N   UNL     1      -3.232   3.150  24.613  0.00  0.00    -0.203 NA
BRANCH   8   3
ATOM      3  C   UNL     1      -4.106   3.525  25.680  0.00  0.00    +0.150 C 
BRANCH   3   2
ATOM      1  C   UNL     1      -3.305   4.448  26.421  0.00  0.00    +0.108 C 
ATOM      2  N   UNL     1      -3.757   4.268  25.754  0.00  0.00    -0.209 NA
ENDBRANCH   3   2
BRANCH   3   4
ATOM      4  C   UNL     1      -4.823   3.367  26.056  0.00  0.00    +0.027 C 
BRANCH   4   5
ATOM      5  C   UNL     1      -5.534   3.577  25.696  0.00  0.00    +0.002 C 
ATOM      6  C   UNL     1      -6.091   2.997  25.512  0.00  0.00    +0.000 C 
ATOM      7  C   UNL     1      -5.688   4.368  25.518  0.00  0.00    +0.000 C 
ENDBRANCH   4   5
ENDBRANCH   3   4
ENDBRANCH   8   3
ENDBRANCH  11  10
BRANCH  13  20
ATOM     20  C   UNL     1      -1.532   0.779  23.883  0.00  0.00    +0.269 C 
ATOM     21  O   UNL     1      -1.088   0.780  23.188  0.00  0.00    -0.271 OA
ATOM     22  N   UNL     1      -1.507   0.127  24.388  0.00  0.00    -0.195 NA
BRANCH  22  23
ATOM     23  C   UNL     1      -1.039  -0.525  24.197  0.00  0.00    +0.179 C 
BRANCH  23  34
ATOM     34  C   UNL     1      -0.221  -0.488  24.297  0.00  0.00    +0.281 C 
ATOM     35  N   UNL     1       0.280  -0.689  23.674  0.00  0.00    -0.086 NA
ATOM     36  O   UNL     1       0.096  -0.251  25.021  0.00  0.00    -0.270 OA
ENDBRANCH  23  34
BRANCH  23  24
ATOM     24  C   UNL     1      -1.388  -1.213  23.906  0.00  0.00    +0.059 C 
BRANCH  24  25
ATOM     25  C   UNL     1      -1.761  -1.737  24.422  0.00  0.00    +0.001 A 
ATOM     26  C   UNL     1      -1.439  -2.044  25.118  0.00  0.00    +0.095 A 
ATOM     27  N   UNL     1      -2.000  -2.542  25.460  0.00  0.00    -0.244 NA
ATOM     28  C   UNL     1      -2.668  -2.544  24.976  0.00  0.00    +0.081 A 
ATOM     29  C   UNL     1      -2.521  -2.047  24.335  0.00  0.00    +0.015 A 
ATOM     30  C   UNL     1      -3.097  -1.940  23.755  0.00  0.00    +0.001 A 
ATOM     31  C   UNL     1      -3.821  -2.330  23.816  0.00  0.00    +0.000 A 
ATOM     32  C   UNL     1      -3.968  -2.828  24.457  0.00  0.00    +0.002 A 
ATOM     33  C   UNL     1      -3.392  -2.935  25.037  0.00  0.00    +0.019 A 
ENDBRANCH  24  25
ENDBRANCH  23  24
ENDBRANCH  22  23
ENDBRANCH  13  20
TORSDOF 10
ENDMDL
