MODEL 1
REMARK VINA RESULT:     -10.5      0.000      0.000
REMARK  Name = 
REMARK  5 active torsions:
REMARK  status: ('A' for Active; 'I' for Inactive)
REMARK    1  A    between atoms: C_7  and  N_10
REMARK    2  A    between atoms: N_10  and  C_11
REMARK    3  A    between atoms: C_11  and  C_12
REMARK    4  A    between atoms: C_12  and  C_13
REMARK    5  A    between atoms: C_16  and  C_18
REMARK                            x       y       z     vdW  Elec       q    Type
REMARK                         _______ _______ _______ _____ _____    ______ ____
ROOT
ATOM     11  C   UNL     1      -4.395   1.464  24.817  0.00  0.00    +0.119 C 
ATOM     22  C   UNL     1      -4.860   1.053  25.360  0.00  0.00    +0.161 C 
ATOM     23  O   UNL     1      -5.501   1.539  25.181  0.00  0.00    -0.351 OA
ATOM     24  C   UNL     1      -5.037   1.951  24.638  0.00  0.00    +0.161 C 
ENDROOT
BRANCH  11  10
ATOM     10  N   UNL     1      -3.754   0.977  24.996  0.00  0.00    -0.217 NA
BRANCH  10   7
ATOM      1  C   UNL     1      -3.628  -2.798  24.833  0.00  0.00    +0.095 C 
ATOM      2  C   UNL     1      -3.869  -2.241  24.274  0.00  0.00    +0.226 C 
ATOM      3  O   UNL     1      -4.139  -2.488  23.534  0.00  0.00    -0.275 OA
ATOM      4  N   UNL     1      -3.841  -1.436  24.454  0.00  0.00    -0.279 N 
ATOM      5  C   UNL     1      -4.081  -0.879  23.895  0.00  0.00    +0.095 C 
ATOM      6  C   UNL     1      -4.052  -0.074  24.076  0.00  0.00    +0.039 C 
ATOM      7  C   UNL     1      -3.783   0.173  24.815  0.00  0.00    +0.076 C 
ATOM      8  C   UNL     1      -3.543  -0.384  25.374  0.00  0.00    +0.039 C 
ATOM      9  C   UNL     1      -3.571  -1.189  25.194  0.00  0.00    +0.095 C 
ENDBRANCH  10   7
ENDBRANCH  11  10
BRANCH  11  12
ATOM     12  C   UNL     1      -3.931   1.875  24.273  0.00  0.00    +0.070 C 
BRANCH  12  13
ATOM     13  C   UNL     1      -3.626   2.616  24.469  0.00  0.00    +0.102 A 
ATOM     14  N   UNL     1      -4.042   3.329  24.464  0.00  0.00    -0.082 NA
ATOM     15  O   UNL     1      -3.524   3.928  24.695  0.00  0.00    -0.356 OA
ATOM     16  C   UNL     1      -2.789   3.586  24.843  0.00  0.00    +0.181 A 
ATOM     17  C   UNL     1      -2.850   2.776  24.703  0.00  0.00    +0.056 A 
BRANCH  16  18
ATOM     18  C   UNL     1      -2.108   3.985  25.088  0.00  0.00    +0.180 C 
ATOM     19  C   UNL     1      -1.429   4.384  25.333  0.00  0.00    +0.041 C 
ATOM     20  C   UNL     1      -2.520   4.289  25.735  0.00  0.00    +0.041 C 
ATOM     21  O   UNL     1      -1.698   3.681  24.441  0.00  0.00    -0.218 OA
ENDBRANCH  16  18
ENDBRANCH  12  13
ENDBRANCH  11  12
TORSDOF 5
ENDMDL
MODEL 2
REMARK VINA RESULT:     -10.4      1.085      4.765
REMARK  Name = 
REMARK  5 active torsions:
REMARK  status: ('A' for Active; 'I' for Inactive)
REMARK    1  A    between atoms: C_7  and  N_10
REMARK    2  A    between atoms: N_10  and  C_11
REMARK    3  A    between atoms: C_11  and  C_12
REMARK    4  A    between atoms: C_12  and  C_13
REMARK    5  A    between atoms: C_16  and  C_18
REMARK                            x       y       z     vdW  Elec       q    Type
REMARK                         _______ _______ _______ _____ _____    ______ ____
ROOT
ATOM     11  C   UNL     1      -3.930   2.058  24.702  0.00  0.00    +0.119 C 
ATOM     22  C   UNL     1      -4.354   2.717  24.961  0.00  0.00    +0.161 C 
ATOM     23  O   UNL     1      -4.919   2.585  24.375  0.00  0.00    -0.351 OA
ATOM     24  C   UNL     1      -4.496   1.926  24.116  0.00  0.00    +0.161 C 
ENDROOT
BRANCH  11  10
ATOM     10  N   UNL     1      -3.365   2.191  25.288  0.00  0.00    -0.217 NA
BRANCH  10   7
ATOM      1  C   UNL     1      -0.576   4.663  24.651  0.00  0.00    +0.095 C 
ATOM      2  C   UNL     1      -1.298   4.753  25.040  0.00  0.00    +0.226 C 
ATOM      3  O   UNL     1      -1.505   5.482  25.367  0.00  0.00    -0.275 OA
ATOM      4  N   UNL     1      -1.815   4.112  25.102  0.00  0.00    -0.279 N 
ATOM      5  C   UNL     1      -2.538   4.201  25.491  0.00  0.00    +0.095 C 
ATOM      6  C   UNL     1      -3.054   3.560  25.553  0.00  0.00    +0.039 C 
ATOM      7  C   UNL     1      -2.849   2.832  25.226  0.00  0.00    +0.076 C 
ATOM      8  C   UNL     1      -2.126   2.743  24.837  0.00  0.00    +0.039 C 
ATOM      9  C   UNL     1      -1.609   3.383  24.775  0.00  0.00    +0.095 C 
ENDBRANCH  10   7
ENDBRANCH  11  10
BRANCH  11  12
ATOM     12  C   UNL     1      -3.507   1.400  24.443  0.00  0.00    +0.070 C 
BRANCH  12  13
ATOM     13  C   UNL     1      -3.761   0.641  24.643  0.00  0.00    +0.102 A 
ATOM     14  N   UNL     1      -4.274   0.449  25.261  0.00  0.00    -0.082 NA
ATOM     15  O   UNL     1      -4.377  -0.370  25.260  0.00  0.00    -0.356 OA
ATOM     16  C   UNL     1      -3.928  -0.683  24.644  0.00  0.00    +0.181 A 
ATOM     17  C   UNL     1      -3.547  -0.060  24.263  0.00  0.00    +0.056 A 
BRANCH  16  18
ATOM     18  C   UNL     1      -3.869  -1.482  24.444  0.00  0.00    +0.180 C 
ATOM     19  C   UNL     1      -3.810  -2.281  24.244  0.00  0.00    +0.041 C 
ATOM     20  C   UNL     1      -3.485  -1.633  25.158  0.00  0.00    +0.041 C 
ATOM     21  O   UNL     1      -4.253  -1.331  23.730  0.00  0.00    -0.218 OA
ENDBRANCH  16  18
ENDBRANCH  12  13
ENDBRANCH  11  12
TORSDOF 5
ENDMDL
MODEL 3
REMARK VINA RESULT:     -10.3      1.895      2.365
REMARK  Name = 
REMARK  5 active torsions:
REMARK  status: ('A' for Active; 'I' for Inactive)
REMARK    1  A    between atoms: C_7  and  N_10
REMARK    2  A    between atoms: N_10  and  C_11
REMARK    3  A    between atoms: C_11  and  C_12
REMARK    4  A    between atoms: C_12  and  C_13
REMARK    5  A    between atoms: C_16  and  C_18
REMARK                            x       y       z     vdW  Elec       q    Type
REMARK                         _______ _______ _______ _____ _____    ______ ____
ROOT
ATOM     11  C   UNL     1      -1.309   0.873  24.710  0.00  0.00    +0.119 C 
ATOM     22  C   UNL     1      -0.838   0.199  24.779  0.00  0.00    +0.161 C 
ATOM     23  O   UNL     1      -0.313   0.509  24.224  0.00  0.00    -0.351 OA
ATOM     24  C   UNL     1      -0.783   1.183  24.155  0.00  0.00    +0.161 C 
ENDROOT
BRANCH  11  10
ATOM     10  N   UNL     1      -1.835   0.563  25.265  0.00  0.00    -0.217 NA
BRANCH  10   7
ATOM      1  C   UNL     1      -4.300  -1.969  23.923  0.00  0.00    +0.095 C 
ATOM      2  C   UNL     1      -3.707  -2.042  24.492  0.00  0.00    +0.226 C 
ATOM      3  O   UNL     1      -3.581  -2.766  24.868  0.00  0.00    -0.275 OA
ATOM      4  N   UNL     1      -3.238  -1.391  24.686  0.00  0.00    -0.279 N 
ATOM      5  C   UNL     1      -2.645  -1.463  25.255  0.00  0.00    +0.095 C 
ATOM      6  C   UNL     1      -2.177  -0.812  25.448  0.00  0.00    +0.039 C 
ATOM      7  C   UNL     1      -2.302  -0.088  25.072  0.00  0.00    +0.076 C 
ATOM      8  C   UNL     1      -2.895  -0.016  24.503  0.00  0.00    +0.039 C 
ATOM      9  C   UNL     1      -3.364  -0.668  24.309  0.00  0.00    +0.095 C 
ENDBRANCH  10   7
ENDBRANCH  11  10
BRANCH  11  12
ATOM     12  C   UNL     1      -1.780   1.547  24.641  0.00  0.00    +0.070 C 
BRANCH  12  13
ATOM     13  C   UNL     1      -1.549   2.251  25.002  0.00  0.00    +0.102 A 
ATOM     14  N   UNL     1      -1.106   2.317  25.696  0.00  0.00    -0.082 NA
ATOM     15  O   UNL     1      -1.003   3.120  25.857  0.00  0.00    -0.356 OA
ATOM     16  C   UNL     1      -1.381   3.549  25.263  0.00  0.00    +0.181 A 
ATOM     17  C   UNL     1      -1.718   3.013  24.735  0.00  0.00    +0.056 A 
BRANCH  16  18
ATOM     18  C   UNL     1      -1.416   4.373  25.207  0.00  0.00    +0.180 C 
ATOM     19  C   UNL     1      -1.452   5.195  25.151  0.00  0.00    +0.041 C 
ATOM     20  C   UNL     1      -2.150   4.367  25.584  0.00  0.00    +0.041 C 
ATOM     21  O   UNL     1      -0.683   4.377  24.830  0.00  0.00    -0.218 OA
ENDBRANCH  16  18
ENDBRANCH  12  13
ENDBRANCH  11  12
TORSDOF 5
ENDMDL
MODEL 4
REMARK VINA RESULT:     -10.1      1.259      4.911
REMARK  Name = 
REMARK  5 active torsions:
REMARK  status: ('A' for Active; 'I' for Inactive)
REMARK    1  A    between atoms: C_7  and  N_10
REMARK    2  A    between atoms: N_10  and  C_11
REMARK    3  A    between atoms: C_11  and  C_12
REMARK    4  A    between atoms: C_12  and  C_13
REMARK    5  A    between atoms: C_16  and  C_18
REMARK                            x       y       z     vdW  Elec       q    Type
REMARK                         _______ _______ _______ _____ _____    ______ ____
ROOT
ATOM     11  C   UNL     1      -3.192   1.523  24.118  0.00  0.00    +0.119 C 
ATOM     22  C   UNL     1      -3.537   2.183  23.761  0.00  0.00    +0.161 C 
ATOM     23  O   UNL     1      -3.572   1.778  23.044  0.00  0.00    -0.351 OA
ATOM     24  C   UNL     1      -3.228   1.118  23.399  0.00  0.00    +0.161 C 
ENDROOT
BRANCH  11  10
ATOM     10  N   UNL     1      -3.156   1.928  24.835  0.00  0.00    -0.217 NA
BRANCH  10   7
ATOM      1  C   UNL     1      -1.599   5.353  25.208  0.00  0.00    +0.095 C 
ATOM      2  C   UNL     1      -1.252   4.609  25.126  0.00  0.00    +0.226 C 
ATOM      3  O   UNL     1      -0.431   4.533  25.117  0.00  0.00    -0.275 OA
ATOM      4  N   UNL     1      -1.728   3.938  25.053  0.00  0.00    -0.279 N 
ATOM      5  C   UNL     1      -1.383   3.193  24.971  0.00  0.00    +0.095 C 
ATOM      6  C   UNL     1      -1.859   2.524  24.898  0.00  0.00    +0.039 C 
ATOM      7  C   UNL     1      -2.680   2.598  24.907  0.00  0.00    +0.076 C 
ATOM      8  C   UNL     1      -3.025   3.343  24.989  0.00  0.00    +0.039 C 
ATOM      9  C   UNL     1      -2.550   4.013  25.062  0.00  0.00    +0.095 C 
ENDBRANCH  10   7
ENDBRANCH  11  10
BRANCH  11  12
ATOM     12  C   UNL     1      -2.847   0.864  24.473  0.00  0.00    +0.070 C 
BRANCH  12  13
ATOM     13  C   UNL     1      -3.298   0.188  24.615  0.00  0.00    +0.102 A 
ATOM     14  N   UNL     1      -4.039   0.167  24.979  0.00  0.00    -0.082 NA
ATOM     15  O   UNL     1      -4.287  -0.620  25.007  0.00  0.00    -0.356 OA
ATOM     16  C   UNL     1      -3.701  -1.084  24.661  0.00  0.00    +0.181 A 
ATOM     17  C   UNL     1      -3.089  -0.586  24.418  0.00  0.00    +0.056 A 
BRANCH  16  18
ATOM     18  C   UNL     1      -3.721  -1.905  24.572  0.00  0.00    +0.180 C 
ATOM     19  C   UNL     1      -3.741  -2.725  24.483  0.00  0.00    +0.041 C 
ATOM     20  C   UNL     1      -3.287  -1.991  25.268  0.00  0.00    +0.041 C 
ATOM     21  O   UNL     1      -4.155  -1.818  23.876  0.00  0.00    -0.218 OA
ENDBRANCH  16  18
ENDBRANCH  12  13
ENDBRANCH  11  12
TORSDOF 5
ENDMDL
MODEL 5
REMARK VINA RESULT:      -9.7      1.041      1.542
REMARK  Name = 
REMARK  5 active torsions:
REMARK  status: ('A' for Active; 'I' for Inactive)
REMARK    1  A    between atoms: C_7  and  N_10
REMARK    2  A    between atoms: N_10  and  C_11
REMARK    3  A    between atoms: C_11  and  C_12
REMARK    4  A    between atoms: C_12  and  C_13
REMARK    5  A    between atoms: C_16  and  C_18
REMARK                            x       y       z     vdW  Elec       q    Type
REMARK                         _______ _______ _______ _____ _____    ______ ____
ROOT
ATOM     11  C   UNL     1      -2.849   1.255  23.898  0.00  0.00    +0.119 C 
ATOM     22  C   UNL     1      -2.162   0.814  23.778  0.00  0.00    +0.161 C 
ATOM     23  O   UNL     1      -1.989   1.264  23.109  0.00  0.00    -0.351 OA
ATOM     24  C   UNL     1      -2.676   1.705  23.228  0.00  0.00    +0.161 C 
ENDROOT
BRANCH  11  10
ATOM     10  N   UNL     1      -3.022   0.805  24.567  0.00  0.00    -0.217 NA
BRANCH  10   7
ATOM      1  C   UNL     1      -3.365  -2.960  24.614  0.00  0.00    +0.095 C 
ATOM      2  C   UNL     1      -3.828  -2.380  24.253  0.00  0.00    +0.226 C 
ATOM      3  O   UNL     1      -4.492  -2.596  23.814  0.00  0.00    -0.275 OA
ATOM      4  N   UNL     1      -3.627  -1.583  24.331  0.00  0.00    -0.279 N 
ATOM      5  C   UNL     1      -4.090  -1.003  23.971  0.00  0.00    +0.095 C 
ATOM      6  C   UNL     1      -3.888  -0.207  24.049  0.00  0.00    +0.039 C 
ATOM      7  C   UNL     1      -3.224   0.009  24.488  0.00  0.00    +0.076 C 
ATOM      8  C   UNL     1      -2.761  -0.571  24.848  0.00  0.00    +0.039 C 
ATOM      9  C   UNL     1      -2.962  -1.368  24.770  0.00  0.00    +0.095 C 
ENDBRANCH  10   7
ENDBRANCH  11  10
BRANCH  11  12
ATOM     12  C   UNL     1      -3.535   1.696  24.017  0.00  0.00    +0.070 C 
BRANCH  12  13
ATOM     13  C   UNL     1      -3.485   2.469  24.302  0.00  0.00    +0.102 A 
ATOM     14  N   UNL     1      -3.525   3.157  23.847  0.00  0.00    -0.082 NA
ATOM     15  O   UNL     1      -3.451   3.803  24.355  0.00  0.00    -0.356 OA
ATOM     16  C   UNL     1      -3.365   3.515  25.122  0.00  0.00    +0.181 A 
ATOM     17  C   UNL     1      -3.386   2.691  25.091  0.00  0.00    +0.056 A 
BRANCH  16  18
ATOM     18  C   UNL     1      -3.274   3.971  25.805  0.00  0.00    +0.180 C 
ATOM     19  C   UNL     1      -3.183   4.427  26.486  0.00  0.00    +0.041 C 
ATOM     20  C   UNL     1      -2.518   4.190  25.557  0.00  0.00    +0.041 C 
ATOM     21  O   UNL     1      -4.030   3.752  26.052  0.00  0.00    -0.218 OA
ENDBRANCH  16  18
ENDBRANCH  12  13
ENDBRANCH  11  12
TORSDOF 5
ENDMDL
