MODEL 1
REMARK VINA RESULT:      -9.1      0.000      0.000
REMARK  Name = 
REMARK  7 active torsions:
REMARK  status: ('A' for Active; 'I' for Inactive)
REMARK    1  A    between atoms: N_4  and  C_5
REMARK    2  A    between atoms: C_8  and  C_9
REMARK    3  A    between atoms: C_9  and  N_10
REMARK    4  A    between atoms: N_10  and  C_11
REMARK    5  A    between atoms: C_14  and  C_15
REMARK    6  A    between atoms: C_15  and  N_16
REMARK    7  A    between atoms: C_17  and  C_19
REMARK                            x       y       z     vdW  Elec       q    Type
REMARK                         _______ _______ _______ _____ _____    ______ ____
ROOT
ATOM     11  C   UNL     1      -0.747   0.404  25.140  0.00  0.00    +0.135 C 
ATOM     12  C   UNL     1      -0.639   0.692  25.905  0.00  0.00    +0.162 C 
ATOM     13  O   UNL     1      -0.447   1.493  25.853  0.00  0.00    -0.350 OA
ATOM     14  C   UNL     1      -0.436   1.700  25.055  0.00  0.00    +0.169 C 
ATOM     24  C   UNL     1      -0.622   1.028  24.614  0.00  0.00    +0.199 C 
ATOM     25  O   UNL     1      -0.673   0.986  23.792  0.00  0.00    -0.219 OA
ENDROOT
BRANCH  11  10
ATOM     10  N   UNL     1      -0.945  -0.370  24.936  0.00  0.00    -0.209 NA
BRANCH  10   9
ATOM      9  C   UNL     1      -1.352  -0.846  25.472  0.00  0.00    +0.115 C 
BRANCH   9   8
ATOM      5  C   UNL     1      -3.105  -2.397  24.666  0.00  0.00    +0.073 A 
ATOM      6  C   UNL     1      -3.299  -1.796  25.197  0.00  0.00    +0.016 A 
ATOM      7  C   UNL     1      -2.714  -1.279  25.466  0.00  0.00    -0.002 A 
ATOM      8  C   UNL     1      -1.936  -1.363  25.203  0.00  0.00    -0.005 A 
ATOM     26  C   UNL     1      -1.743  -1.964  24.672  0.00  0.00    -0.002 A 
ATOM     27  C   UNL     1      -2.328  -2.481  24.404  0.00  0.00    +0.016 A 
BRANCH   5   4
ATOM      1  C   UNL     1      -4.823  -3.177  23.569  0.00  0.00    +0.097 C 
ATOM      2  C   UNL     1      -4.239  -2.660  23.838  0.00  0.00    +0.246 C 
ATOM      3  O   UNL     1      -4.204  -1.889  23.546  0.00  0.00    -0.273 OA
ATOM      4  N   UNL     1      -3.689  -2.914  24.398  0.00  0.00    -0.179 NA
ENDBRANCH   5   4
ENDBRANCH   9   8
ENDBRANCH  10   9
ENDBRANCH  11  10
BRANCH  14  15
ATOM     15  C   UNL     1      -0.270   2.449  24.750  0.00  0.00    +0.147 C 
BRANCH  15  16
ATOM     16  N   UNL     1      -0.726   3.097  24.977  0.00  0.00    -0.203 NA
ATOM     17  C   UNL     1      -0.589   3.837  24.637  0.00  0.00    +0.241 C 
ATOM     18  O   UNL     1       0.004   3.927  24.071  0.00  0.00    -0.273 OA
BRANCH  17  19
ATOM     19  C   UNL     1      -1.045   4.485  24.865  0.00  0.00    +0.078 C 
ATOM     20  C   UNL     1      -1.786   4.452  25.226  0.00  0.00    +0.009 C 
ATOM     21  C   UNL     1      -2.041   5.226  25.356  0.00  0.00    +0.001 C 
ATOM     22  C   UNL     1      -1.457   5.738  25.075  0.00  0.00    +0.001 C 
ATOM     23  C   UNL     1      -0.842   5.279  24.772  0.00  0.00    +0.009 C 
ENDBRANCH  17  19
ENDBRANCH  15  16
ENDBRANCH  14  15
TORSDOF 7
ENDMDL
MODEL 2
REMARK VINA RESULT:      -9.1      3.403      4.591
REMARK  Name = 
REMARK  7 active torsions:
REMARK  status: ('A' for Active; 'I' for Inactive)
REMARK    1  A    between atoms: N_4  and  C_5
REMARK    2  A    between atoms: C_8  and  C_9
REMARK    3  A    between atoms: C_9  and  N_10
REMARK    4  A    between atoms: N_10  and  C_11
REMARK    5  A    between atoms: C_14  and  C_15
REMARK    6  A    between atoms: C_15  and  N_16
REMARK    7  A    between atoms: C_17  and  C_19
REMARK                            x       y       z     vdW  Elec       q    Type
REMARK                         _______ _______ _______ _____ _____    ______ ____
ROOT
ATOM     11  C   UNL     1      -0.520   0.798  24.029  0.00  0.00    +0.135 C 
ATOM     12  C   UNL     1      -0.001   1.396  24.260  0.00  0.00    +0.162 C 
ATOM     13  O   UNL     1       0.728   1.255  23.900  0.00  0.00    -0.350 OA
ATOM     14  C   UNL     1       0.660   0.570  23.446  0.00  0.00    +0.169 C 
ATOM     24  C   UNL     1      -0.111   0.287  23.525  0.00  0.00    +0.199 C 
ATOM     25  O   UNL     1      -0.420  -0.387  23.165  0.00  0.00    -0.219 OA
ENDROOT
BRANCH  11  10
ATOM     10  N   UNL     1      -1.308   0.723  24.260  0.00  0.00    -0.209 NA
BRANCH  10   9
ATOM      9  C   UNL     1      -1.718   1.380  24.544  0.00  0.00    +0.115 C 
BRANCH   9   8
ATOM      5  C   UNL     1      -4.191   1.353  24.625  0.00  0.00    +0.073 A 
ATOM      6  C   UNL     1      -3.760   0.787  25.041  0.00  0.00    +0.016 A 
ATOM      7  C   UNL     1      -2.935   0.795  25.014  0.00  0.00    -0.002 A 
ATOM      8  C   UNL     1      -2.542   1.371  24.571  0.00  0.00    -0.005 A 
ATOM     26  C   UNL     1      -2.975   1.937  24.156  0.00  0.00    -0.002 A 
ATOM     27  C   UNL     1      -3.800   1.928  24.183  0.00  0.00    +0.016 A 
BRANCH   5   4
ATOM      1  C   UNL     1      -6.242   1.841  25.192  0.00  0.00    +0.097 C 
ATOM      2  C   UNL     1      -5.418   1.850  25.165  0.00  0.00    +0.246 C 
ATOM      3  O   UNL     1      -4.994   2.364  25.652  0.00  0.00    -0.273 OA
ATOM      4  N   UNL     1      -5.016   1.345  24.652  0.00  0.00    -0.179 NA
ENDBRANCH   5   4
ENDBRANCH   9   8
ENDBRANCH  10   9
ENDBRANCH  11  10
BRANCH  14  15
ATOM     15  C   UNL     1       1.257   0.227  22.992  0.00  0.00    +0.147 C 
BRANCH  15  16
ATOM     16  N   UNL     1       2.048   0.375  23.171  0.00  0.00    -0.203 NA
ATOM     17  C   UNL     1       2.638   0.177  22.629  0.00  0.00    +0.241 C 
ATOM     18  O   UNL     1       2.436  -0.168  21.908  0.00  0.00    -0.273 OA
BRANCH  17  19
ATOM     19  C   UNL     1       3.429   0.325  22.810  0.00  0.00    +0.078 C 
ATOM     20  C   UNL     1       3.838   1.025  22.657  0.00  0.00    +0.009 C 
ATOM     21  C   UNL     1       4.612   0.933  22.928  0.00  0.00    +0.001 C 
ATOM     22  C   UNL     1       4.682   0.175  23.248  0.00  0.00    +0.001 C 
ATOM     23  C   UNL     1       3.951  -0.200  23.174  0.00  0.00    +0.009 C 
ENDBRANCH  17  19
ENDBRANCH  15  16
ENDBRANCH  14  15
TORSDOF 7
ENDMDL
MODEL 3
REMARK VINA RESULT:      -9.1      1.218      5.985
REMARK  Name = 
REMARK  7 active torsions:
REMARK  status: ('A' for Active; 'I' for Inactive)
REMARK    1  A    between atoms: N_4  and  C_5
REMARK    2  A    between atoms: C_8  and  C_9
REMARK    3  A    between atoms: C_9  and  N_10
REMARK    4  A    between atoms: N_10  and  C_11
REMARK    5  A    between atoms: C_14  and  C_15
REMARK    6  A    between atoms: C_15  and  N_16
REMARK    7  A    between atoms: C_17  and  C_19
REMARK                            x       y       z     vdW  Elec       q    Type
REMARK                         _______ _______ _______ _____ _____    ______ ____
ROOT
ATOM     11  C   UNL     1      -0.418   0.421  24.850  0.00  0.00    +0.135 C 
ATOM     12  C   UNL     1      -0.116   0.083  24.161  0.00  0.00    +0.162 C 
ATOM     13  O   UNL     1      -0.439  -0.673  24.085  0.00  0.00    -0.350 OA
ATOM     14  C   UNL     1      -0.940  -0.802  24.728  0.00  0.00    +0.169 C 
ATOM     24  C   UNL     1      -0.927  -0.126  25.201  0.00  0.00    +0.199 C 
ATOM     25  O   UNL     1      -1.348  -0.015  25.901  0.00  0.00    -0.219 OA
ENDROOT
BRANCH  11  10
ATOM     10  N   UNL     1      -0.242   1.174  25.138  0.00  0.00    -0.209 NA
BRANCH  10   9
ATOM      9  C   UNL     1       0.038   1.756  24.625  0.00  0.00    +0.115 C 
BRANCH   9   8
ATOM      5  C   UNL     1      -0.672   4.109  24.920  0.00  0.00    +0.073 A 
ATOM      6  C   UNL     1      -0.445   3.661  25.576  0.00  0.00    +0.016 A 
ATOM      7  C   UNL     1      -0.209   2.877  25.477  0.00  0.00    -0.002 A 
ATOM      8  C   UNL     1      -0.198   2.540  24.724  0.00  0.00    -0.005 A 
ATOM     26  C   UNL     1      -0.425   2.988  24.069  0.00  0.00    -0.002 A 
ATOM     27  C   UNL     1      -0.662   3.772  24.168  0.00  0.00    +0.016 A 
BRANCH   5   4
ATOM      1  C   UNL     1      -1.939   5.855  25.252  0.00  0.00    +0.097 C 
ATOM      2  C   UNL     1      -1.702   5.071  25.154  0.00  0.00    +0.246 C 
ATOM      3  O   UNL     1      -2.259   4.464  25.191  0.00  0.00    -0.273 OA
ATOM      4  N   UNL     1      -0.908   4.893  25.019  0.00  0.00    -0.179 NA
ENDBRANCH   5   4
ENDBRANCH   9   8
ENDBRANCH  10   9
ENDBRANCH  11  10
BRANCH  14  15
ATOM     15  C   UNL     1      -1.377  -1.486  24.873  0.00  0.00    +0.147 C 
BRANCH  15  16
ATOM     16  N   UNL     1      -2.136  -1.565  24.561  0.00  0.00    -0.203 NA
ATOM     17  C   UNL     1      -2.531  -2.288  24.615  0.00  0.00    +0.241 C 
ATOM     18  O   UNL     1      -2.167  -2.930  24.982  0.00  0.00    -0.273 OA
BRANCH  17  19
ATOM     19  C   UNL     1      -3.290  -2.366  24.303  0.00  0.00    +0.078 C 
ATOM     20  C   UNL     1      -3.803  -1.747  24.116  0.00  0.00    +0.009 C 
ATOM     21  C   UNL     1      -4.500  -2.073  23.820  0.00  0.00    +0.001 C 
ATOM     22  C   UNL     1      -4.419  -2.895  23.825  0.00  0.00    +0.001 C 
ATOM     23  C   UNL     1      -3.671  -3.075  24.123  0.00  0.00    +0.009 C 
ENDBRANCH  17  19
ENDBRANCH  15  16
ENDBRANCH  14  15
TORSDOF 7
ENDMDL
MODEL 4
REMARK VINA RESULT:      -8.9      2.023      6.409
REMARK  Name = 
REMARK  7 active torsions:
REMARK  status: ('A' for Active; 'I' for Inactive)
REMARK    1  A    between atoms: N_4  and  C_5
REMARK    2  A    between atoms: C_8  and  C_9
REMARK    3  A    between atoms: C_9  and  N_10
REMARK    4  A    between atoms: N_10  and  C_11
REMARK    5  A    between atoms: C_14  and  C_15
REMARK    6  A    between atoms: C_15  and  N_16
REMARK    7  A    between atoms: C_17  and  C_19
REMARK                            x       y       z     vdW  Elec       q    Type
REMARK                         _______ _______ _______ _____ _____    ______ ____
ROOT
ATOM     11  C   UNL     1      -4.456   1.675  24.778  0.00  0.00    +0.135 C 
ATOM     12  C   UNL     1      -4.900   1.349  25.392  0.00  0.00    +0.162 C 
ATOM     13  O   UNL     1      -4.970   0.538  25.253  0.00  0.00    -0.350 OA
ATOM     14  C   UNL     1      -4.569   0.363  24.554  0.00  0.00    +0.169 C 
ATOM     24  C   UNL     1      -4.251   1.066  24.260  0.00  0.00    +0.199 C 
ATOM     25  O   UNL     1      -3.806   1.146  23.571  0.00  0.00    -0.219 OA
ENDROOT
BRANCH  11  10
ATOM     10  N   UNL     1      -4.252   2.470  24.697  0.00  0.00    -0.209 NA
BRANCH  10   9
ATOM      9  C   UNL     1      -4.071   2.920  25.364  0.00  0.00    +0.115 C 
BRANCH   9   8
ATOM      5  C   UNL     1      -2.245   4.588  25.274  0.00  0.00    +0.073 A 
ATOM      6  C   UNL     1      -2.813   4.566  24.676  0.00  0.00    +0.016 A 
ATOM      7  C   UNL     1      -3.421   4.010  24.706  0.00  0.00    -0.002 A 
ATOM      8  C   UNL     1      -3.462   3.476  25.334  0.00  0.00    -0.005 A 
ATOM     26  C   UNL     1      -2.894   3.498  25.931  0.00  0.00    -0.002 A 
ATOM     27  C   UNL     1      -2.285   4.054  25.901  0.00  0.00    +0.016 A 
BRANCH   5   4
ATOM      1  C   UNL     1      -0.316   5.513  24.840  0.00  0.00    +0.097 C 
ATOM      2  C   UNL     1      -0.924   4.957  24.870  0.00  0.00    +0.246 C 
ATOM      3  O   UNL     1      -0.823   4.215  24.526  0.00  0.00    -0.273 OA
ATOM      4  N   UNL     1      -1.636   5.144  25.244  0.00  0.00    -0.179 NA
ENDBRANCH   5   4
ENDBRANCH   9   8
ENDBRANCH  10   9
ENDBRANCH  11  10
BRANCH  14  15
ATOM     15  C   UNL     1      -4.498  -0.382  24.209  0.00  0.00    +0.147 C 
BRANCH  15  16
ATOM     16  N   UNL     1      -3.934  -0.915  24.490  0.00  0.00    -0.203 NA
ATOM     17  C   UNL     1      -3.892  -1.676  24.173  0.00  0.00    +0.241 C 
ATOM     18  O   UNL     1      -4.413  -1.903  23.576  0.00  0.00    -0.273 OA
BRANCH  17  19
ATOM     19  C   UNL     1      -3.329  -2.208  24.454  0.00  0.00    +0.078 C 
ATOM     20  C   UNL     1      -3.473  -2.846  24.956  0.00  0.00    +0.009 C 
ATOM     21  C   UNL     1      -2.756  -3.229  25.096  0.00  0.00    +0.001 C 
ATOM     22  C   UNL     1      -2.167  -2.827  24.680  0.00  0.00    +0.001 C 
ATOM     23  C   UNL     1      -2.522  -2.196  24.284  0.00  0.00    +0.009 C 
ENDBRANCH  17  19
ENDBRANCH  15  16
ENDBRANCH  14  15
TORSDOF 7
ENDMDL
MODEL 5
REMARK VINA RESULT:      -8.7      2.260      2.762
REMARK  Name = 
REMARK  7 active torsions:
REMARK  status: ('A' for Active; 'I' for Inactive)
REMARK    1  A    between atoms: N_4  and  C_5
REMARK    2  A    between atoms: C_8  and  C_9
REMARK    3  A    between atoms: C_9  and  N_10
REMARK    4  A    between atoms: N_10  and  C_11
REMARK    5  A    between atoms: C_14  and  C_15
REMARK    6  A    between atoms: C_15  and  N_16
REMARK    7  A    between atoms: C_17  and  C_19
REMARK                            x       y       z     vdW  Elec       q    Type
REMARK                         _______ _______ _______ _____ _____    ______ ____
ROOT
ATOM     11  C   UNL     1      -4.539   1.577  24.760  0.00  0.00    +0.135 C 
ATOM     12  C   UNL     1      -4.900   1.894  25.429  0.00  0.00    +0.162 C 
ATOM     13  O   UNL     1      -4.676   2.686  25.490  0.00  0.00    -0.350 OA
ATOM     14  C   UNL     1      -4.175   2.858  24.857  0.00  0.00    +0.169 C 
ATOM     24  C   UNL     1      -4.091   2.172  24.405  0.00  0.00    +0.199 C 
ATOM     25  O   UNL     1      -3.638   2.096  23.721  0.00  0.00    -0.219 OA
ENDROOT
BRANCH  11  10
ATOM     10  N   UNL     1      -4.613   0.800  24.491  0.00  0.00    -0.209 NA
BRANCH  10   9
ATOM      9  C   UNL     1      -4.685   0.182  25.031  0.00  0.00    +0.115 C 
BRANCH   9   8
ATOM      5  C   UNL     1      -3.443  -1.928  24.670  0.00  0.00    +0.073 A 
ATOM      6  C   UNL     1      -3.919  -1.622  24.069  0.00  0.00    +0.016 A 
ATOM      7  C   UNL     1      -4.333  -0.919  24.190  0.00  0.00    -0.002 A 
ATOM      8  C   UNL     1      -4.271  -0.521  24.911  0.00  0.00    -0.005 A 
ATOM     26  C   UNL     1      -3.795  -0.829  25.511  0.00  0.00    -0.002 A 
ATOM     27  C   UNL     1      -3.381  -1.532  25.390  0.00  0.00    +0.016 A 
BRANCH   5   4
ATOM      1  C   UNL     1      -1.809  -3.316  24.255  0.00  0.00    +0.097 C 
ATOM      2  C   UNL     1      -2.223  -2.612  24.375  0.00  0.00    +0.246 C 
ATOM      3  O   UNL     1      -1.832  -1.888  24.321  0.00  0.00    -0.273 OA
ATOM      4  N   UNL     1      -3.029  -2.632  24.550  0.00  0.00    -0.179 NA
ENDBRANCH   5   4
ENDBRANCH   9   8
ENDBRANCH  10   9
ENDBRANCH  11  10
BRANCH  14  15
ATOM     15  C   UNL     1      -3.822   3.587  24.702  0.00  0.00    +0.147 C 
BRANCH  15  16
ATOM     16  N   UNL     1      -3.009   3.682  24.807  0.00  0.00    -0.203 NA
ATOM     17  C   UNL     1      -2.691   4.438  24.901  0.00  0.00    +0.241 C 
ATOM     18  O   UNL     1      -3.186   5.097  24.889  0.00  0.00    -0.273 OA
BRANCH  17  19
ATOM     19  C   UNL     1      -1.879   4.532  25.005  0.00  0.00    +0.078 C 
ATOM     20  C   UNL     1      -1.366   3.979  25.341  0.00  0.00    +0.009 C 
ATOM     21  C   UNL     1      -0.606   4.300  25.337  0.00  0.00    +0.001 C 
ATOM     22  C   UNL     1      -0.649   5.051  24.998  0.00  0.00    +0.001 C 
ATOM     23  C   UNL     1      -1.435   5.194  24.794  0.00  0.00    +0.009 C 
ENDBRANCH  17  19
ENDBRANCH  15  16
ENDBRANCH  14  15
TORSDOF 7
ENDMDL
MODEL 6
REMARK VINA RESULT:      -8.7      3.293      6.287
REMARK  Name = 
REMARK  7 active torsions:
REMARK  status: ('A' for Active; 'I' for Inactive)
REMARK    1  A    between atoms: N_4  and  C_5
REMARK    2  A    between atoms: C_8  and  C_9
REMARK    3  A    between atoms: C_9  and  N_10
REMARK    4  A    between atoms: N_10  and  C_11
REMARK    5  A    between atoms: C_14  and  C_15
REMARK    6  A    between atoms: C_15  and  N_16
REMARK    7  A    between atoms: C_17  and  C_19
REMARK                            x       y       z     vdW  Elec       q    Type
REMARK                         _______ _______ _______ _____ _____    ______ ____
ROOT
ATOM     11  C   UNL     1       0.215   0.038  23.714  0.00  0.00    +0.135 C 
ATOM     12  C   UNL     1      -0.274   0.650  23.455  0.00  0.00    +0.162 C 
ATOM     13  O   UNL     1      -1.011   0.558  23.815  0.00  0.00    -0.350 OA
ATOM     14  C   UNL     1      -0.977  -0.111  24.297  0.00  0.00    +0.169 C 
ATOM     24  C   UNL     1      -0.220  -0.433  24.234  0.00  0.00    +0.199 C 
ATOM     25  O   UNL     1       0.055  -1.105  24.624  0.00  0.00    -0.219 OA
ENDROOT
BRANCH  11  10
ATOM     10  N   UNL     1       1.000  -0.082  23.492  0.00  0.00    -0.209 NA
BRANCH  10   9
ATOM      9  C   UNL     1       1.369   0.447  22.979  0.00  0.00    +0.115 C 
BRANCH   9   8
ATOM      5  C   UNL     1       3.835   0.446  22.765  0.00  0.00    +0.073 A 
ATOM      6  C   UNL     1       3.446   1.119  23.042  0.00  0.00    +0.016 A 
ATOM      7  C   UNL     1       2.624   1.120  23.113  0.00  0.00    -0.002 A 
ATOM      8  C   UNL     1       2.191   0.447  22.908  0.00  0.00    -0.005 A 
ATOM     26  C   UNL     1       2.582  -0.225  22.631  0.00  0.00    -0.002 A 
ATOM     27  C   UNL     1       3.404  -0.225  22.560  0.00  0.00    +0.016 A 
BRANCH   5   4
ATOM      1  C   UNL     1       5.945   0.109  23.214  0.00  0.00    +0.097 C 
ATOM      2  C   UNL     1       5.123   0.110  23.285  0.00  0.00    +0.246 C 
ATOM      3  O   UNL     1       4.766  -0.226  23.949  0.00  0.00    -0.273 OA
ATOM      4  N   UNL     1       4.657   0.446  22.694  0.00  0.00    -0.179 NA
ENDBRANCH   5   4
ENDBRANCH   9   8
ENDBRANCH  10   9
ENDBRANCH  11  10
BRANCH  14  15
ATOM     15  C   UNL     1      -1.593  -0.407  24.759  0.00  0.00    +0.147 C 
BRANCH  15  16
ATOM     16  N   UNL     1      -2.172  -0.884  24.419  0.00  0.00    -0.203 NA
ATOM     17  C   UNL     1      -2.834  -1.107  24.859  0.00  0.00    +0.241 C 
ATOM     18  O   UNL     1      -2.914  -0.853  25.640  0.00  0.00    -0.273 OA
BRANCH  17  19
ATOM     19  C   UNL     1      -3.413  -1.585  24.518  0.00  0.00    +0.078 C 
ATOM     20  C   UNL     1      -4.064  -1.322  24.084  0.00  0.00    +0.009 C 
ATOM     21  C   UNL     1      -4.497  -1.983  23.848  0.00  0.00    +0.001 C 
ATOM     22  C   UNL     1      -4.115  -2.655  24.136  0.00  0.00    +0.001 C 
ATOM     23  C   UNL     1      -3.445  -2.409  24.550  0.00  0.00    +0.009 C 
ENDBRANCH  17  19
ENDBRANCH  15  16
ENDBRANCH  14  15
TORSDOF 7
ENDMDL
MODEL 7
REMARK VINA RESULT:      -8.5      3.361      4.450
REMARK  Name = 
REMARK  7 active torsions:
REMARK  status: ('A' for Active; 'I' for Inactive)
REMARK    1  A    between atoms: N_4  and  C_5
REMARK    2  A    between atoms: C_8  and  C_9
REMARK    3  A    between atoms: C_9  and  N_10
REMARK    4  A    between atoms: N_10  and  C_11
REMARK    5  A    between atoms: C_14  and  C_15
REMARK    6  A    between atoms: C_15  and  N_16
REMARK    7  A    between atoms: C_17  and  C_19
REMARK                            x       y       z     vdW  Elec       q    Type
REMARK                         _______ _______ _______ _____ _____    ______ ____
ROOT
ATOM     11  C   UNL     1       0.547   0.725  23.669  0.00  0.00    +0.135 C 
ATOM     12  C   UNL     1       0.862   1.380  24.058  0.00  0.00    +0.162 C 
ATOM     13  O   UNL     1       1.636   1.487  23.793  0.00  0.00    -0.350 OA
ATOM     14  C   UNL     1       1.800   0.897  23.240  0.00  0.00    +0.169 C 
ATOM     24  C   UNL     1       1.126   0.426  23.163  0.00  0.00    +0.199 C 
ATOM     25  O   UNL     1       1.046  -0.229  22.668  0.00  0.00    -0.219 OA
ENDROOT
BRANCH  11  10
ATOM     10  N   UNL     1      -0.214   0.422  23.768  0.00  0.00    -0.209 NA
BRANCH  10   9
ATOM      9  C   UNL     1      -0.588   0.477  24.500  0.00  0.00    +0.115 C 
BRANCH   9   8
ATOM      5  C   UNL     1      -2.472  -1.033  25.046  0.00  0.00    +0.073 A 
ATOM      6  C   UNL     1      -2.584  -0.408  24.519  0.00  0.00    +0.016 A 
ATOM      7  C   UNL     1      -1.956   0.096  24.337  0.00  0.00    -0.002 A 
ATOM      8  C   UNL     1      -1.216  -0.026  24.682  0.00  0.00    -0.005 A 
ATOM     26  C   UNL     1      -1.105  -0.651  25.208  0.00  0.00    -0.002 A 
ATOM     27  C   UNL     1      -1.733  -1.155  25.390  0.00  0.00    +0.016 A 
BRANCH   5   4
ATOM      1  C   UNL     1      -3.817  -2.751  25.002  0.00  0.00    +0.097 C 
ATOM      2  C   UNL     1      -3.190  -2.248  24.820  0.00  0.00    +0.246 C 
ATOM      3  O   UNL     1      -2.652  -2.455  24.231  0.00  0.00    -0.273 OA
ATOM      4  N   UNL     1      -3.099  -1.536  25.228  0.00  0.00    -0.179 NA
ENDBRANCH   5   4
ENDBRANCH   9   8
ENDBRANCH  10   9
ENDBRANCH  11  10
BRANCH  14  15
ATOM     15  C   UNL     1       2.511   0.795  22.835  0.00  0.00    +0.147 C 
BRANCH  15  16
ATOM     16  N   UNL     1       3.191   0.574  23.245  0.00  0.00    -0.203 NA
ATOM     17  C   UNL     1       3.914   0.526  22.849  0.00  0.00    +0.241 C 
ATOM     18  O   UNL     1       3.955   0.700  22.044  0.00  0.00    -0.273 OA
BRANCH  17  19
ATOM     19  C   UNL     1       4.594   0.304  23.260  0.00  0.00    +0.078 C 
ATOM     20  C   UNL     1       5.177   0.815  23.541  0.00  0.00    +0.009 C 
ATOM     21  C   UNL     1       5.755   0.360  23.917  0.00  0.00    +0.001 C 
ATOM     22  C   UNL     1       5.528  -0.432  23.867  0.00  0.00    +0.001 C 
ATOM     23  C   UNL     1       4.811  -0.466  23.461  0.00  0.00    +0.009 C 
ENDBRANCH  17  19
ENDBRANCH  15  16
ENDBRANCH  14  15
TORSDOF 7
ENDMDL
MODEL 8
REMARK VINA RESULT:      -8.2      3.343      5.000
REMARK  Name = 
REMARK  7 active torsions:
REMARK  status: ('A' for Active; 'I' for Inactive)
REMARK    1  A    between atoms: N_4  and  C_5
REMARK    2  A    between atoms: C_8  and  C_9
REMARK    3  A    between atoms: C_9  and  N_10
REMARK    4  A    between atoms: N_10  and  C_11
REMARK    5  A    between atoms: C_14  and  C_15
REMARK    6  A    between atoms: C_15  and  N_16
REMARK    7  A    between atoms: C_17  and  C_19
REMARK                            x       y       z     vdW  Elec       q    Type
REMARK                         _______ _______ _______ _____ _____    ______ ____
ROOT
ATOM     11  C   UNL     1      -1.338   1.144  23.854  0.00  0.00    +0.135 C 
ATOM     12  C   UNL     1      -1.535   0.950  24.631  0.00  0.00    +0.162 C 
ATOM     13  O   UNL     1      -2.256   1.311  24.809  0.00  0.00    -0.350 OA
ATOM     14  C   UNL     1      -2.504   1.729  24.142  0.00  0.00    +0.169 C 
ATOM     24  C   UNL     1      -1.937   1.625  23.551  0.00  0.00    +0.199 C 
ATOM     25  O   UNL     1      -1.963   1.946  22.792  0.00  0.00    -0.219 OA
ENDROOT
BRANCH  11  10
ATOM     10  N   UNL     1      -0.662   0.900  23.449  0.00  0.00    -0.209 NA
BRANCH  10   9
ATOM      9  C   UNL     1      -0.024   0.586  23.866  0.00  0.00    +0.115 C 
BRANCH   9   8
ATOM      5  C   UNL     1       2.186   0.377  22.772  0.00  0.00    +0.073 A 
ATOM      6  C   UNL     1       1.994   1.066  23.185  0.00  0.00    +0.016 A 
ATOM      7  C   UNL     1       1.258   1.135  23.550  0.00  0.00    -0.002 A 
ATOM      8  C   UNL     1       0.713   0.516  23.501  0.00  0.00    -0.005 A 
ATOM     26  C   UNL     1       0.906  -0.171  23.088  0.00  0.00    -0.002 A 
ATOM     27  C   UNL     1       1.643  -0.240  22.723  0.00  0.00    +0.016 A 
BRANCH   5   4
ATOM      1  C   UNL     1       4.343   0.466  22.444  0.00  0.00    +0.097 C 
ATOM      2  C   UNL     1       3.606   0.535  22.809  0.00  0.00    +0.246 C 
ATOM      3  O   UNL     1       3.552   0.832  23.577  0.00  0.00    -0.273 OA
ATOM      4  N   UNL     1       2.923   0.308  22.407  0.00  0.00    -0.179 NA
ENDBRANCH   5   4
ENDBRANCH   9   8
ENDBRANCH  10   9
ENDBRANCH  11  10
BRANCH  14  15
ATOM     15  C   UNL     1      -3.197   2.171  24.077  0.00  0.00    +0.147 C 
BRANCH  15  16
ATOM     16  N   UNL     1      -3.827   2.029  24.589  0.00  0.00    -0.203 NA
ATOM     17  C   UNL     1      -4.510   2.491  24.541  0.00  0.00    +0.241 C 
ATOM     18  O   UNL     1      -4.561   3.093  23.980  0.00  0.00    -0.273 OA
BRANCH  17  19
ATOM     19  C   UNL     1      -5.140   2.348  25.053  0.00  0.00    +0.078 C 
ATOM     20  C   UNL     1      -5.712   1.761  24.965  0.00  0.00    +0.009 C 
ATOM     21  C   UNL     1      -6.235   1.816  25.601  0.00  0.00    +0.001 C 
ATOM     22  C   UNL     1      -5.985   2.438  26.083  0.00  0.00    +0.001 C 
ATOM     23  C   UNL     1      -5.309   2.767  25.744  0.00  0.00    +0.009 C 
ENDBRANCH  17  19
ENDBRANCH  15  16
ENDBRANCH  14  15
TORSDOF 7
ENDMDL
