MODEL 1
REMARK VINA RESULT:     -16.3      0.000      0.000
REMARK  Name = 
REMARK  5 active torsions:
REMARK  status: ('A' for Active; 'I' for Inactive)
REMARK    1  A    between atoms: C_2  and  C_3
REMARK    2  A    between atoms: C_11  and  C_12
REMARK    3  A    between atoms: C_12  and  C_13
REMARK    4  A    between atoms: N_15  and  C_16
REMARK    5  A    between atoms: C_29  and  C_31
REMARK                            x       y       z     vdW  Elec       q    Type
REMARK                         _______ _______ _______ _____ _____    ______ ____
ROOT
ATOM      1  C   UNL     1      -2.304  -2.774  24.729  0.00  0.00    +0.005 C 
ATOM      2  C   UNL     1      -2.586  -2.008  24.610  0.00  0.00    +0.059 C 
ATOM      5  C   UNL     1      -3.264  -2.441  24.429  0.00  0.00    +0.154 C 
ATOM      6  O   UNL     1      -3.252  -3.265  24.471  0.00  0.00    -0.223 OA
ATOM      7  C   UNL     1      -3.957  -2.049  24.207  0.00  0.00    +0.033 C 
ATOM      8  C   UNL     1      -3.969  -1.226  24.165  0.00  0.00    +0.003 C 
ATOM      9  C   UNL     1      -3.291  -0.793  24.346  0.00  0.00    +0.006 C 
ATOM     10  C   UNL     1      -3.982  -0.403  24.124  0.00  0.00    +0.000 C 
ATOM     11  C   UNL     1      -3.303   0.031  24.305  0.00  0.00    +0.050 C 
ATOM     22  C   UNL     1      -2.625   0.463  24.486  0.00  0.00    +0.063 A 
ATOM     23  C   UNL     1      -1.933   0.072  24.709  0.00  0.00    +0.023 A 
ATOM     24  C   UNL     1      -1.920  -0.752  24.750  0.00  0.00    +0.034 C 
ATOM     25  C   UNL     1      -2.599  -1.185  24.569  0.00  0.00    +0.010 C 
ATOM     26  S   UNL     1      -1.354   0.641  24.854  0.00  0.00    -0.054 S 
ATOM     27  C   UNL     1      -1.687   1.384  24.722  0.00  0.00    +0.185 A 
ATOM     28  N   UNL     1      -1.303   2.110  24.802  0.00  0.00    -0.151 NA
ATOM     29  C   UNL     1      -1.709   2.811  24.650  0.00  0.00    +0.271 C 
ATOM     30  O   UNL     1      -2.500   2.787  24.417  0.00  0.00    -0.268 OA
ATOM     38  N   UNL     1      -2.472   1.274  24.494  0.00  0.00    -0.227 NA
ENDROOT
BRANCH  29  31
ATOM     31  C   UNL     1      -1.325   3.536  24.731  0.00  0.00    +0.058 A 
ATOM     32  C   UNL     1      -0.558   3.632  24.440  0.00  0.00    +0.005 A 
ATOM     33  C   UNL     1      -0.173   4.357  24.520  0.00  0.00    +0.002 A 
ATOM     34  C   UNL     1      -0.556   4.987  24.892  0.00  0.00    +0.030 A 
ATOM     35  C   UNL     1      -1.321   4.892  25.183  0.00  0.00    +0.140 A 
ATOM     36  F   UNL     1      -1.703   5.522  25.555  0.00  0.00    -0.204 F 
ATOM     37  C   UNL     1      -1.706   4.166  25.102  0.00  0.00    +0.034 A 
ENDBRANCH  29  31
BRANCH   2   3
ATOM      3  C   UNL     1      -1.810  -1.842  24.833  0.00  0.00    +0.184 C 
ATOM      4  O   UNL     1      -1.287  -2.458  25.001  0.00  0.00    -0.220 OA
ENDBRANCH   2   3
BRANCH  11  12
ATOM     12  C   UNL     1      -3.995   0.422  24.082  0.00  0.00    +0.093 C 
BRANCH  12  13
ATOM     13  C   UNL     1      -4.437   0.832  24.646  0.00  0.00    +0.246 C 
ATOM     14  O   UNL     1      -4.372   0.633  25.444  0.00  0.00    -0.273 OA
ATOM     15  N   UNL     1      -4.944   1.438  24.412  0.00  0.00    -0.179 NA
BRANCH  15  16
ATOM     16  C   UNL     1      -5.386   1.847  24.975  0.00  0.00    +0.073 A 
ATOM     17  C   UNL     1      -5.180   2.620  25.178  0.00  0.00    +0.017 A 
ATOM     18  C   UNL     1      -5.622   3.030  25.742  0.00  0.00    +0.001 A 
ATOM     19  C   UNL     1      -6.270   2.667  26.102  0.00  0.00    +0.000 A 
ATOM     20  C   UNL     1      -6.476   1.894  25.898  0.00  0.00    +0.001 A 
ATOM     21  C   UNL     1      -6.034   1.485  25.335  0.00  0.00    +0.017 A 
ENDBRANCH  15  16
ENDBRANCH  12  13
ENDBRANCH  11  12
TORSDOF 5
ENDMDL
MODEL 2
REMARK VINA RESULT:     -14.5      1.874      4.760
REMARK  Name = 
REMARK  5 active torsions:
REMARK  status: ('A' for Active; 'I' for Inactive)
REMARK    1  A    between atoms: C_2  and  C_3
REMARK    2  A    between atoms: C_11  and  C_12
REMARK    3  A    between atoms: C_12  and  C_13
REMARK    4  A    between atoms: N_15  and  C_16
REMARK    5  A    between atoms: C_29  and  C_31
REMARK                            x       y       z     vdW  Elec       q    Type
REMARK                         _______ _______ _______ _____ _____    ______ ____
ROOT
ATOM      1  C   UNL     1       0.106   3.703  25.443  0.00  0.00    +0.005 C 
ATOM      2  C   UNL     1      -0.597   3.346  25.200  0.00  0.00    +0.059 C 
ATOM      5  C   UNL     1      -0.789   4.138  25.077  0.00  0.00    +0.154 C 
ATOM      6  O   UNL     1      -0.238   4.728  25.248  0.00  0.00    -0.223 OA
ATOM      7  C   UNL     1      -1.533   4.342  24.783  0.00  0.00    +0.033 C 
ATOM      8  C   UNL     1      -2.084   3.753  24.612  0.00  0.00    +0.003 C 
ATOM      9  C   UNL     1      -1.893   2.961  24.735  0.00  0.00    +0.006 C 
ATOM     10  C   UNL     1      -2.635   3.164  24.441  0.00  0.00    +0.000 C 
ATOM     11  C   UNL     1      -2.444   2.371  24.564  0.00  0.00    +0.050 C 
ATOM     22  C   UNL     1      -2.252   1.579  24.687  0.00  0.00    +0.063 A 
ATOM     23  C   UNL     1      -1.508   1.375  24.982  0.00  0.00    +0.023 A 
ATOM     24  C   UNL     1      -0.957   1.964  25.152  0.00  0.00    +0.034 C 
ATOM     25  C   UNL     1      -1.148   2.757  25.029  0.00  0.00    +0.010 C 
ATOM     26  S   UNL     1      -1.477   0.553  25.046  0.00  0.00    -0.054 S 
ATOM     27  C   UNL     1      -2.200   0.248  24.792  0.00  0.00    +0.185 A 
ATOM     28  N   UNL     1      -2.408  -0.550  24.764  0.00  0.00    -0.151 NA
ATOM     29  C   UNL     1      -3.155  -0.772  24.496  0.00  0.00    +0.271 C 
ATOM     30  O   UNL     1      -3.695  -0.197  24.255  0.00  0.00    -0.268 OA
ATOM     38  N   UNL     1      -2.679   0.882  24.571  0.00  0.00    -0.227 NA
ENDROOT
BRANCH  29  31
ATOM     31  C   UNL     1      -3.362  -1.570  24.469  0.00  0.00    +0.058 A 
ATOM     32  C   UNL     1      -3.004  -2.108  24.983  0.00  0.00    +0.005 A 
ATOM     33  C   UNL     1      -3.212  -2.906  24.955  0.00  0.00    +0.002 A 
ATOM     34  C   UNL     1      -3.778  -3.166  24.414  0.00  0.00    +0.030 A 
ATOM     35  C   UNL     1      -4.135  -2.629  23.900  0.00  0.00    +0.140 A 
ATOM     36  F   UNL     1      -4.701  -2.889  23.359  0.00  0.00    -0.204 F 
ATOM     37  C   UNL     1      -3.928  -1.831  23.928  0.00  0.00    +0.034 A 
ENDBRANCH  29  31
BRANCH   2   3
ATOM      3  C   UNL     1      -0.161   2.677  25.407  0.00  0.00    +0.184 C 
ATOM      4  O   UNL     1       0.554   2.760  25.812  0.00  0.00    -0.220 OA
ENDBRANCH   2   3
BRANCH  11  12
ATOM     12  C   UNL     1      -3.188   2.575  24.270  0.00  0.00    +0.093 C 
BRANCH  12  13
ATOM     13  C   UNL     1      -3.852   2.529  24.759  0.00  0.00    +0.246 C 
ATOM     14  O   UNL     1      -3.759   2.497  25.578  0.00  0.00    -0.273 OA
ATOM     15  N   UNL     1      -4.606   2.514  24.429  0.00  0.00    -0.179 NA
BRANCH  15  16
ATOM     16  C   UNL     1      -5.270   2.468  24.916  0.00  0.00    +0.073 A 
ATOM     17  C   UNL     1      -5.733   1.786  24.917  0.00  0.00    +0.017 A 
ATOM     18  C   UNL     1      -6.398   1.739  25.405  0.00  0.00    +0.001 A 
ATOM     19  C   UNL     1      -6.598   2.375  25.891  0.00  0.00    +0.000 A 
ATOM     20  C   UNL     1      -6.133   3.057  25.889  0.00  0.00    +0.001 A 
ATOM     21  C   UNL     1      -5.470   3.104  25.402  0.00  0.00    +0.017 A 
ENDBRANCH  15  16
ENDBRANCH  12  13
ENDBRANCH  11  12
TORSDOF 5
ENDMDL
MODEL 3
REMARK VINA RESULT:     -14.4      2.299      5.942
REMARK  Name = 
REMARK  5 active torsions:
REMARK  status: ('A' for Active; 'I' for Inactive)
REMARK    1  A    between atoms: C_2  and  C_3
REMARK    2  A    between atoms: C_11  and  C_12
REMARK    3  A    between atoms: C_12  and  C_13
REMARK    4  A    between atoms: N_15  and  C_16
REMARK    5  A    between atoms: C_29  and  C_31
REMARK                            x       y       z     vdW  Elec       q    Type
REMARK                         _______ _______ _______ _____ _____    ______ ____
ROOT
ATOM      1  C   UNL     1      -2.616   4.894  25.132  0.00  0.00    +0.005 C 
ATOM      2  C   UNL     1      -2.299   4.132  25.120  0.00  0.00    +0.059 C 
ATOM      5  C   UNL     1      -1.616   4.569  25.268  0.00  0.00    +0.154 C 
ATOM      6  O   UNL     1      -1.657   5.391  25.330  0.00  0.00    -0.223 OA
ATOM      7  C   UNL     1      -0.890   4.185  25.354  0.00  0.00    +0.033 C 
ATOM      8  C   UNL     1      -0.849   3.364  25.292  0.00  0.00    +0.003 C 
ATOM      9  C   UNL     1      -1.532   2.927  25.144  0.00  0.00    +0.006 C 
ATOM     10  C   UNL     1      -0.808   2.543  25.230  0.00  0.00    +0.000 C 
ATOM     11  C   UNL     1      -1.491   2.105  25.081  0.00  0.00    +0.050 C 
ATOM     22  C   UNL     1      -2.174   1.668  24.933  0.00  0.00    +0.063 A 
ATOM     23  C   UNL     1      -2.900   2.052  24.847  0.00  0.00    +0.023 A 
ATOM     24  C   UNL     1      -2.941   2.873  24.909  0.00  0.00    +0.034 C 
ATOM     25  C   UNL     1      -2.258   3.311  25.058  0.00  0.00    +0.010 C 
ATOM     26  S   UNL     1      -3.476   1.479  24.705  0.00  0.00    -0.054 S 
ATOM     27  C   UNL     1      -3.108   0.741  24.703  0.00  0.00    +0.185 A 
ATOM     28  N   UNL     1      -3.478   0.014  24.582  0.00  0.00    -0.151 NA
ATOM     29  C   UNL     1      -3.036  -0.682  24.595  0.00  0.00    +0.271 C 
ATOM     30  O   UNL     1      -2.223  -0.651  24.731  0.00  0.00    -0.268 OA
ATOM     38  N   UNL     1      -2.304   0.858  24.844  0.00  0.00    -0.227 NA
ENDROOT
BRANCH  29  31
ATOM     31  C   UNL     1      -3.407  -1.408  24.474  0.00  0.00    +0.058 A 
ATOM     32  C   UNL     1      -3.943  -1.500  23.853  0.00  0.00    +0.005 A 
ATOM     33  C   UNL     1      -4.314  -2.227  23.731  0.00  0.00    +0.002 A 
ATOM     34  C   UNL     1      -4.148  -2.862  24.231  0.00  0.00    +0.030 A 
ATOM     35  C   UNL     1      -3.613  -2.771  24.851  0.00  0.00    +0.140 A 
ATOM     36  F   UNL     1      -3.447  -3.407  25.350  0.00  0.00    -0.204 F 
ATOM     37  C   UNL     1      -3.242  -2.045  24.972  0.00  0.00    +0.034 A 
ENDBRANCH  29  31
BRANCH   2   3
ATOM      3  C   UNL     1      -3.092   3.960  24.976  0.00  0.00    +0.184 C 
ATOM      4  O   UNL     1      -3.641   4.572  24.903  0.00  0.00    -0.220 OA
ENDBRANCH   2   3
BRANCH  11  12
ATOM     12  C   UNL     1      -0.766   1.721  25.167  0.00  0.00    +0.093 C 
BRANCH  12  13
ATOM     13  C   UNL     1      -0.367   1.438  24.502  0.00  0.00    +0.246 C 
ATOM     14  O   UNL     1      -0.579   1.704  23.751  0.00  0.00    -0.273 OA
ATOM     15  N   UNL     1       0.243   0.891  24.589  0.00  0.00    -0.179 NA
BRANCH  15  16
ATOM     16  C   UNL     1       0.642   0.609  23.925  0.00  0.00    +0.073 A 
ATOM     17  C   UNL     1       1.312   1.003  23.649  0.00  0.00    +0.017 A 
ATOM     18  C   UNL     1       1.712   0.720  22.984  0.00  0.00    +0.001 A 
ATOM     19  C   UNL     1       1.441   0.044  22.596  0.00  0.00    +0.000 A 
ATOM     20  C   UNL     1       0.771  -0.349  22.873  0.00  0.00    +0.001 A 
ATOM     21  C   UNL     1       0.372  -0.067  23.537  0.00  0.00    +0.017 A 
ENDBRANCH  15  16
ENDBRANCH  12  13
ENDBRANCH  11  12
TORSDOF 5
ENDMDL
MODEL 4
REMARK VINA RESULT:     -14.2      2.064      4.286
REMARK  Name = 
REMARK  5 active torsions:
REMARK  status: ('A' for Active; 'I' for Inactive)
REMARK    1  A    between atoms: C_2  and  C_3
REMARK    2  A    between atoms: C_11  and  C_12
REMARK    3  A    between atoms: C_12  and  C_13
REMARK    4  A    between atoms: N_15  and  C_16
REMARK    5  A    between atoms: C_29  and  C_31
REMARK                            x       y       z     vdW  Elec       q    Type
REMARK                         _______ _______ _______ _____ _____    ______ ____
ROOT
ATOM      1  C   UNL     1      -4.608   3.795  25.956  0.00  0.00    +0.005 C 
ATOM      2  C   UNL     1      -4.315   3.168  25.507  0.00  0.00    +0.059 C 
ATOM      5  C   UNL     1      -5.124   3.014  25.458  0.00  0.00    +0.154 C 
ATOM      6  O   UNL     1      -5.663   3.511  25.836  0.00  0.00    -0.223 OA
ATOM      7  C   UNL     1      -5.395   2.361  25.031  0.00  0.00    +0.033 C 
ATOM      8  C   UNL     1      -4.857   1.864  24.653  0.00  0.00    +0.003 C 
ATOM      9  C   UNL     1      -4.048   2.018  24.702  0.00  0.00    +0.006 C 
ATOM     10  C   UNL     1      -4.319   1.366  24.275  0.00  0.00    +0.000 C 
ATOM     11  C   UNL     1      -3.509   1.520  24.324  0.00  0.00    +0.050 C 
ATOM     22  C   UNL     1      -2.701   1.674  24.372  0.00  0.00    +0.063 A 
ATOM     23  C   UNL     1      -2.430   2.327  24.800  0.00  0.00    +0.023 A 
ATOM     24  C   UNL     1      -2.968   2.824  25.178  0.00  0.00    +0.034 C 
ATOM     25  C   UNL     1      -3.777   2.670  25.129  0.00  0.00    +0.010 C 
ATOM     26  S   UNL     1      -1.606   2.338  24.750  0.00  0.00    -0.054 S 
ATOM     27  C   UNL     1      -1.368   1.695  24.293  0.00  0.00    +0.185 A 
ATOM     28  N   UNL     1      -0.590   1.496  24.103  0.00  0.00    -0.151 NA
ATOM     29  C   UNL     1      -0.436   0.833  23.639  0.00  0.00    +0.271 C 
ATOM     30  O   UNL     1      -1.059   0.367  23.364  0.00  0.00    -0.268 OA
ATOM     38  N   UNL     1      -2.044   1.284  24.060  0.00  0.00    -0.227 NA
ENDROOT
BRANCH  29  31
ATOM     31  C   UNL     1       0.342   0.634  23.449  0.00  0.00    +0.058 A 
ATOM     32  C   UNL     1       0.518  -0.121  23.166  0.00  0.00    +0.005 A 
ATOM     33  C   UNL     1       1.296  -0.320  22.976  0.00  0.00    +0.002 A 
ATOM     34  C   UNL     1       1.898   0.237  23.068  0.00  0.00    +0.030 A 
ATOM     35  C   UNL     1       1.722   0.992  23.350  0.00  0.00    +0.140 A 
ATOM     36  F   UNL     1       2.324   1.549  23.442  0.00  0.00    -0.204 F 
ATOM     37  C   UNL     1       0.944   1.190  23.540  0.00  0.00    +0.034 A 
ENDBRANCH  29  31
BRANCH   2   3
ATOM      3  C   UNL     1      -3.608   3.540  25.712  0.00  0.00    +0.184 C 
ATOM      4  O   UNL     1      -3.616   4.188  26.223  0.00  0.00    -0.220 OA
ENDBRANCH   2   3
BRANCH  11  12
ATOM     12  C   UNL     1      -3.780   0.868  23.897  0.00  0.00    +0.093 C 
BRANCH  12  13
ATOM     13  C   UNL     1      -3.732   0.111  24.224  0.00  0.00    +0.246 C 
ATOM     14  O   UNL     1      -3.724   0.017  25.043  0.00  0.00    -0.273 OA
ATOM     15  N   UNL     1      -3.692  -0.549  23.732  0.00  0.00    -0.179 NA
BRANCH  15  16
ATOM     16  C   UNL     1      -3.644  -1.305  24.058  0.00  0.00    +0.073 A 
ATOM     17  C   UNL     1      -4.256  -1.844  23.938  0.00  0.00    +0.017 A 
ATOM     18  C   UNL     1      -4.208  -2.601  24.265  0.00  0.00    +0.001 A 
ATOM     19  C   UNL     1      -3.548  -2.817  24.710  0.00  0.00    +0.000 A 
ATOM     20  C   UNL     1      -2.936  -2.277  24.829  0.00  0.00    +0.001 A 
ATOM     21  C   UNL     1      -2.984  -1.521  24.503  0.00  0.00    +0.017 A 
ENDBRANCH  15  16
ENDBRANCH  12  13
ENDBRANCH  11  12
TORSDOF 5
ENDMDL
MODEL 5
REMARK VINA RESULT:     -14.0      2.107      5.572
REMARK  Name = 
REMARK  5 active torsions:
REMARK  status: ('A' for Active; 'I' for Inactive)
REMARK    1  A    between atoms: C_2  and  C_3
REMARK    2  A    between atoms: C_11  and  C_12
REMARK    3  A    between atoms: C_12  and  C_13
REMARK    4  A    between atoms: N_15  and  C_16
REMARK    5  A    between atoms: C_29  and  C_31
REMARK                            x       y       z     vdW  Elec       q    Type
REMARK                         _______ _______ _______ _____ _____    ______ ____
ROOT
ATOM      1  C   UNL     1      -5.862   3.946  25.819  0.00  0.00    +0.005 C 
ATOM      2  C   UNL     1      -5.303   3.491  25.417  0.00  0.00    +0.059 C 
ATOM      5  C   UNL     1      -5.067   4.246  25.185  0.00  0.00    +0.154 C 
ATOM      6  O   UNL     1      -5.475   4.909  25.458  0.00  0.00    -0.223 OA
ATOM      7  C   UNL     1      -4.421   4.339  24.679  0.00  0.00    +0.033 C 
ATOM      8  C   UNL     1      -4.013   3.677  24.406  0.00  0.00    +0.003 C 
ATOM      9  C   UNL     1      -4.249   2.922  24.637  0.00  0.00    +0.006 C 
ATOM     10  C   UNL     1      -3.605   3.015  24.132  0.00  0.00    +0.000 C 
ATOM     11  C   UNL     1      -3.841   2.259  24.364  0.00  0.00    +0.050 C 
ATOM     22  C   UNL     1      -4.078   1.504  24.595  0.00  0.00    +0.063 A 
ATOM     23  C   UNL     1      -4.724   1.411  25.101  0.00  0.00    +0.023 A 
ATOM     24  C   UNL     1      -5.132   2.073  25.375  0.00  0.00    +0.034 C 
ATOM     25  C   UNL     1      -4.895   2.829  25.143  0.00  0.00    +0.010 C 
ATOM     26  S   UNL     1      -4.828   0.603  25.234  0.00  0.00    -0.054 S 
ATOM     27  C   UNL     1      -4.248   0.197  24.811  0.00  0.00    +0.185 A 
ATOM     28  N   UNL     1      -4.149  -0.622  24.787  0.00  0.00    -0.151 NA
ATOM     29  C   UNL     1      -3.541  -0.950  24.338  0.00  0.00    +0.271 C 
ATOM     30  O   UNL     1      -3.031  -0.461  23.912  0.00  0.00    -0.268 OA
ATOM     38  N   UNL     1      -3.785   0.753  24.417  0.00  0.00    -0.227 NA
ENDROOT
BRANCH  29  31
ATOM     31  C   UNL     1      -3.442  -1.769  24.313  0.00  0.00    +0.058 A 
ATOM     32  C   UNL     1      -4.042  -2.248  24.010  0.00  0.00    +0.005 A 
ATOM     33  C   UNL     1      -3.943  -3.067  23.986  0.00  0.00    +0.002 A 
ATOM     34  C   UNL     1      -3.244  -3.406  24.265  0.00  0.00    +0.030 A 
ATOM     35  C   UNL     1      -2.645  -2.927  24.568  0.00  0.00    +0.140 A 
ATOM     36  F   UNL     1      -1.946  -3.266  24.846  0.00  0.00    -0.204 F 
ATOM     37  C   UNL     1      -2.744  -2.109  24.592  0.00  0.00    +0.034 A 
ENDBRANCH  29  31
BRANCH   2   3
ATOM      3  C   UNL     1      -5.734   2.894  25.788  0.00  0.00    +0.184 C 
ATOM      4  O   UNL     1      -6.302   3.086  26.355  0.00  0.00    -0.220 OA
ENDBRANCH   2   3
BRANCH  11  12
ATOM     12  C   UNL     1      -3.196   2.352  23.859  0.00  0.00    +0.093 C 
BRANCH  12  13
ATOM     13  C   UNL     1      -2.427   2.275  24.151  0.00  0.00    +0.246 C 
ATOM     14  O   UNL     1      -2.297   2.264  24.966  0.00  0.00    -0.273 OA
ATOM     15  N   UNL     1      -1.792   2.211  23.630  0.00  0.00    -0.179 NA
BRANCH  15  16
ATOM     16  C   UNL     1      -1.025   2.135  23.923  0.00  0.00    +0.073 A 
ATOM     17  C   UNL     1      -0.656   1.397  23.923  0.00  0.00    +0.017 A 
ATOM     18  C   UNL     1       0.112   1.320  24.215  0.00  0.00    +0.001 A 
ATOM     19  C   UNL     1       0.511   1.981  24.507  0.00  0.00    +0.000 A 
ATOM     20  C   UNL     1       0.141   2.719  24.506  0.00  0.00    +0.001 A 
ATOM     21  C   UNL     1      -0.626   2.796  24.214  0.00  0.00    +0.017 A 
ENDBRANCH  15  16
ENDBRANCH  12  13
ENDBRANCH  11  12
TORSDOF 5
ENDMDL
MODEL 6
REMARK VINA RESULT:     -13.8      1.762      3.697
REMARK  Name = 
REMARK  5 active torsions:
REMARK  status: ('A' for Active; 'I' for Inactive)
REMARK    1  A    between atoms: C_2  and  C_3
REMARK    2  A    between atoms: C_11  and  C_12
REMARK    3  A    between atoms: C_12  and  C_13
REMARK    4  A    between atoms: N_15  and  C_16
REMARK    5  A    between atoms: C_29  and  C_31
REMARK                            x       y       z     vdW  Elec       q    Type
REMARK                         _______ _______ _______ _____ _____    ______ ____
ROOT
ATOM      1  C   UNL     1      -4.305  -2.123  24.199  0.00  0.00    +0.005 C 
ATOM      2  C   UNL     1      -3.645  -1.650  24.345  0.00  0.00    +0.059 C 
ATOM      5  C   UNL     1      -3.289  -2.394  24.333  0.00  0.00    +0.154 C 
ATOM      6  O   UNL     1      -3.745  -3.069  24.202  0.00  0.00    -0.223 OA
ATOM      7  C   UNL     1      -2.475  -2.464  24.454  0.00  0.00    +0.033 C 
ATOM      8  C   UNL     1      -2.018  -1.790  24.586  0.00  0.00    +0.003 C 
ATOM      9  C   UNL     1      -2.374  -1.046  24.597  0.00  0.00    +0.006 C 
ATOM     10  C   UNL     1      -1.562  -1.116  24.717  0.00  0.00    +0.000 C 
ATOM     11  C   UNL     1      -1.918  -0.371  24.729  0.00  0.00    +0.050 C 
ATOM     22  C   UNL     1      -2.274   0.372  24.740  0.00  0.00    +0.063 A 
ATOM     23  C   UNL     1      -3.088   0.442  24.619  0.00  0.00    +0.023 A 
ATOM     24  C   UNL     1      -3.544  -0.232  24.487  0.00  0.00    +0.034 C 
ATOM     25  C   UNL     1      -3.188  -0.976  24.476  0.00  0.00    +0.010 C 
ATOM     26  S   UNL     1      -3.283   1.242  24.661  0.00  0.00    -0.054 S 
ATOM     27  C   UNL     1      -2.592   1.667  24.806  0.00  0.00    +0.185 A 
ATOM     28  N   UNL     1      -2.534   2.486  24.889  0.00  0.00    -0.151 NA
ATOM     29  C   UNL     1      -1.801   2.835  25.035  0.00  0.00    +0.271 C 
ATOM     30  O   UNL     1      -1.125   2.365  25.098  0.00  0.00    -0.268 OA
ATOM     38  N   UNL     1      -1.968   1.130  24.855  0.00  0.00    -0.227 NA
ENDROOT
BRANCH  29  31
ATOM     31  C   UNL     1      -1.743   3.654  25.117  0.00  0.00    +0.058 A 
ATOM     32  C   UNL     1      -2.349   4.076  25.485  0.00  0.00    +0.005 A 
ATOM     33  C   UNL     1      -2.291   4.894  25.568  0.00  0.00    +0.002 A 
ATOM     34  C   UNL     1      -1.627   5.291  25.282  0.00  0.00    +0.030 A 
ATOM     35  C   UNL     1      -1.021   4.870  24.914  0.00  0.00    +0.140 A 
ATOM     36  F   UNL     1      -0.356   5.267  24.629  0.00  0.00    -0.204 F 
ATOM     37  C   UNL     1      -1.079   4.051  24.832  0.00  0.00    +0.034 A 
ENDBRANCH  29  31
BRANCH   2   3
ATOM      3  C   UNL     1      -4.230  -1.071  24.305  0.00  0.00    +0.184 C 
ATOM      4  O   UNL     1      -5.006  -1.280  24.117  0.00  0.00    -0.220 OA
ENDBRANCH   2   3
BRANCH  11  12
ATOM     12  C   UNL     1      -1.105  -0.441  24.849  0.00  0.00    +0.093 C 
BRANCH  12  13
ATOM     13  C   UNL     1      -0.579  -0.250  24.242  0.00  0.00    +0.246 C 
ATOM     14  O   UNL     1      -0.866  -0.083  23.486  0.00  0.00    -0.273 OA
ATOM     15  N   UNL     1       0.231  -0.226  24.390  0.00  0.00    -0.179 NA
BRANCH  15  16
ATOM     16  C   UNL     1       0.756  -0.034  23.783  0.00  0.00    +0.073 A 
ATOM     17  C   UNL     1       1.129   0.702  23.778  0.00  0.00    +0.017 A 
ATOM     18  C   UNL     1       1.654   0.894  23.171  0.00  0.00    +0.001 A 
ATOM     19  C   UNL     1       1.807   0.349  22.571  0.00  0.00    +0.000 A 
ATOM     20  C   UNL     1       1.434  -0.387  22.577  0.00  0.00    +0.001 A 
ATOM     21  C   UNL     1       0.909  -0.579  23.182  0.00  0.00    +0.017 A 
ENDBRANCH  15  16
ENDBRANCH  12  13
ENDBRANCH  11  12
TORSDOF 5
ENDMDL
MODEL 7
REMARK VINA RESULT:     -13.5      1.602      3.545
REMARK  Name = 
REMARK  5 active torsions:
REMARK  status: ('A' for Active; 'I' for Inactive)
REMARK    1  A    between atoms: C_2  and  C_3
REMARK    2  A    between atoms: C_11  and  C_12
REMARK    3  A    between atoms: C_12  and  C_13
REMARK    4  A    between atoms: N_15  and  C_16
REMARK    5  A    between atoms: C_29  and  C_31
REMARK                            x       y       z     vdW  Elec       q    Type
REMARK                         _______ _______ _______ _____ _____    ______ ____
ROOT
ATOM      1  C   UNL     1      -3.847  -3.041  23.949  0.00  0.00    +0.005 C 
ATOM      2  C   UNL     1      -3.554  -2.339  24.268  0.00  0.00    +0.059 C 
ATOM      5  C   UNL     1      -2.917  -2.841  24.417  0.00  0.00    +0.154 C 
ATOM      6  O   UNL     1      -2.953  -3.633  24.189  0.00  0.00    -0.223 OA
ATOM      7  C   UNL     1      -2.243  -2.551  24.796  0.00  0.00    +0.033 C 
ATOM      8  C   UNL     1      -2.206  -1.759  25.024  0.00  0.00    +0.003 C 
ATOM      9  C   UNL     1      -2.843  -1.257  24.874  0.00  0.00    +0.006 C 
ATOM     10  C   UNL     1      -2.170  -0.968  25.252  0.00  0.00    +0.000 C 
ATOM     11  C   UNL     1      -2.807  -0.465  25.102  0.00  0.00    +0.050 C 
ATOM     22  C   UNL     1      -3.444   0.037  24.953  0.00  0.00    +0.063 A 
ATOM     23  C   UNL     1      -4.118  -0.253  24.575  0.00  0.00    +0.023 A 
ATOM     24  C   UNL     1      -4.154  -1.045  24.347  0.00  0.00    +0.034 C 
ATOM     25  C   UNL     1      -3.517  -1.547  24.496  0.00  0.00    +0.010 C 
ATOM     26  S   UNL     1      -4.655   0.369  24.501  0.00  0.00    -0.054 S 
ATOM     27  C   UNL     1      -4.315   1.042  24.834  0.00  0.00    +0.185 A 
ATOM     28  N   UNL     1      -4.662   1.789  24.879  0.00  0.00    -0.151 NA
ATOM     29  C   UNL     1      -4.252   2.413  25.229  0.00  0.00    +0.271 C 
ATOM     30  O   UNL     1      -3.495   2.291  25.534  0.00  0.00    -0.268 OA
ATOM     38  N   UNL     1      -3.566   0.837  25.113  0.00  0.00    -0.227 NA
ENDROOT
BRANCH  29  31
ATOM     31  C   UNL     1      -4.599   3.160  25.274  0.00  0.00    +0.058 A 
ATOM     32  C   UNL     1      -4.155   3.833  25.095  0.00  0.00    +0.005 A 
ATOM     33  C   UNL     1      -4.502   4.580  25.140  0.00  0.00    +0.002 A 
ATOM     34  C   UNL     1      -5.292   4.655  25.365  0.00  0.00    +0.030 A 
ATOM     35  C   UNL     1      -5.735   3.983  25.544  0.00  0.00    +0.140 A 
ATOM     36  F   UNL     1      -6.526   4.057  25.769  0.00  0.00    -0.204 F 
ATOM     37  C   UNL     1      -5.389   3.236  25.499  0.00  0.00    +0.034 A 
ENDBRANCH  29  31
BRANCH   2   3
ATOM      3  C   UNL     1      -4.293  -2.081  24.008  0.00  0.00    +0.184 C 
ATOM      4  O   UNL     1      -4.781  -2.591  23.579  0.00  0.00    -0.220 OA
ENDBRANCH   2   3
BRANCH  11  12
ATOM     12  C   UNL     1      -2.133  -0.175  25.480  0.00  0.00    +0.093 C 
BRANCH  12  13
ATOM     13  C   UNL     1      -1.616   0.325  25.076  0.00  0.00    +0.246 C 
ATOM     14  O   UNL     1      -1.674   0.402  24.257  0.00  0.00    -0.273 OA
ATOM     15  N   UNL     1      -1.042   0.747  25.490  0.00  0.00    -0.179 NA
BRANCH  15  16
ATOM     16  C   UNL     1      -0.525   1.247  25.087  0.00  0.00    +0.073 A 
ATOM     17  C   UNL     1      -0.553   2.060  25.218  0.00  0.00    +0.017 A 
ATOM     18  C   UNL     1      -0.035   2.561  24.814  0.00  0.00    +0.001 A 
ATOM     19  C   UNL     1       0.509   2.248  24.280  0.00  0.00    +0.000 A 
ATOM     20  C   UNL     1       0.537   1.433  24.149  0.00  0.00    +0.001 A 
ATOM     21  C   UNL     1       0.020   0.933  24.552  0.00  0.00    +0.017 A 
ENDBRANCH  15  16
ENDBRANCH  12  13
ENDBRANCH  11  12
TORSDOF 5
ENDMDL
