REMARK  Name = 
REMARK  8 active torsions:
REMARK  status: ('A' for Active; 'I' for Inactive)
REMARK    1  A    between atoms: O_2  and  C_3
REMARK    2  A    between atoms: C_6  and  C_7
REMARK    3  A    between atoms: C_7  and  N_8
REMARK    4  A    between atoms: C_9  and  C_11
REMARK    5  A    between atoms: C_11  and  C_12
REMARK    6  A    between atoms: C_14  and  C_15
REMARK    7  A    between atoms: C_15  and  N_16
REMARK    8  A    between atoms: N_19  and  C_20
REMARK                            x       y       z     vdW  Elec       q    Type
REMARK                         _______ _______ _______ _____ _____    ______ ____
ROOT
ATOM     12  C   UNL     1      -3.220   7.879   0.000  0.00  0.00    +0.157 C 
ATOM     13  O   UNL     1      -2.413   7.707   0.000  0.00  0.00    -0.351 OA
ATOM     14  C   UNL     1      -2.326   6.887   0.000  0.00  0.00    +0.170 C 
ATOM     23  C   UNL     1      -3.080   6.551   0.000  0.00  0.00    +0.213 C 
ATOM     24  O   UNL     1      -3.252   5.745   0.000  0.00  0.00    -0.218 OA
ATOM     25  C   UNL     1      -3.632   7.165   0.000  0.00  0.00    +0.212 C 
ATOM     26  O   UNL     1      -4.453   7.078   0.000  0.00  0.00    -0.218 OA
ENDROOT
BRANCH  12  11
ATOM     11  C   UNL     1      -3.555   8.633   0.000  0.00  0.00    +0.119 C 
BRANCH  11   9
ATOM      8  N   UNL     1      -4.711   9.473   0.000  0.00  0.00    -0.200 NA
ATOM      9  C   UNL     1      -4.376   8.719   0.000  0.00  0.00    +0.244 C 
ATOM     10  O   UNL     1      -4.861   8.052   0.000  0.00  0.00    -0.273 OA
BRANCH   8   7
ATOM      7  C   UNL     1      -5.532   9.559   0.000  0.00  0.00    +0.141 C 
BRANCH   7   6
ATOM      3  C   UNL     1      -6.538  11.820   0.000  0.00  0.00    +0.139 A 
ATOM      4  C   UNL     1      -5.718  11.734   0.000  0.00  0.00    +0.037 A 
ATOM      5  C   UNL     1      -5.382  10.980   0.000  0.00  0.00    +0.001 A 
ATOM      6  C   UNL     1      -5.867  10.312   0.000  0.00  0.00    -0.000 A 
ATOM     27  C   UNL     1      -6.688  10.399   0.000  0.00  0.00    +0.001 A 
ATOM     28  C   UNL     1      -7.023  11.152   0.000  0.00  0.00    +0.037 A 
BRANCH   3   2
ATOM      1  C   UNL     1      -7.694  12.660   0.000  0.00  0.00    +0.252 C 
ATOM      2  O   UNL     1      -6.874  12.573   0.000  0.00  0.00    -0.471 OA
ENDBRANCH   3   2
ENDBRANCH   7   6
ENDBRANCH   8   7
ENDBRANCH  11   9
ENDBRANCH  12  11
BRANCH  14  15
ATOM     15  C   UNL     1      -1.612   6.474   0.000  0.00  0.00    +0.149 C 
BRANCH  15  16
ATOM     16  N   UNL     1      -0.897   6.887   0.000  0.00  0.00    -0.185 NA
ATOM     17  C   UNL     1      -0.183   6.474   0.000  0.00  0.00    +0.339 C 
ATOM     18  O   UNL     1      -0.183   5.649   0.000  0.00  0.00    -0.249 OA
ATOM     19  N   UNL     1       0.531   6.887   0.000  0.00  0.00    -0.189 NA
BRANCH  19  20
ATOM     20  C   UNL     1       1.246   6.474   0.000  0.00  0.00    +0.097 C 
ATOM     21  C   UNL     1       1.960   6.887   0.000  0.00  0.00    +0.023 C 
ATOM     22  C   UNL     1       1.246   5.649   0.000  0.00  0.00    +0.023 C 
ENDBRANCH  19  20
ENDBRANCH  15  16
ENDBRANCH  14  15
TORSDOF 8
