MODEL 1
REMARK VINA RESULT:     -13.1      0.000      0.000
REMARK  Name = 
REMARK  5 active torsions:
REMARK  status: ('A' for Active; 'I' for Inactive)
REMARK    1  A    between atoms: N_4  and  C_23
REMARK    2  A    between atoms: C_7  and  C_8
REMARK    3  A    between atoms: C_10  and  N_11
REMARK    4  A    between atoms: N_14  and  C_15
REMARK    5  A    between atoms: C_26  and  C_29
REMARK                            x       y       z     vdW  Elec       q    Type
REMARK                         _______ _______ _______ _____ _____    ______ ____
ROOT
ATOM      1  C   UNL     1      -6.122   1.341  25.379  0.00  0.00    +0.054 C 
ATOM      2  C   UNL     1      -5.434   0.939  25.162  0.00  0.00    +0.077 A 
ATOM      3  N   UNL     1      -5.358   0.123  25.077  0.00  0.00    -0.170 NA
ATOM      4  N   UNL     1      -4.580  -0.038  24.854  0.00  0.00    -0.234 N 
ATOM      5  C   UNL     1      -4.176   0.679  24.803  0.00  0.00    +0.058 A 
ATOM      6  C   UNL     1      -3.382   0.775  24.597  0.00  0.00    +0.052 C 
ATOM      7  C   UNL     1      -4.704   1.284  24.993  0.00  0.00    +0.010 A 
ENDROOT
BRANCH   4  23
ATOM     23  C   UNL     1      -4.261  -0.786  24.710  0.00  0.00    +0.082 A 
ATOM     24  C   UNL     1      -3.820  -1.166  25.294  0.00  0.00    +0.019 A 
ATOM     25  C   UNL     1      -3.501  -1.913  25.149  0.00  0.00    +0.005 A 
ATOM     26  C   UNL     1      -3.623  -2.280  24.421  0.00  0.00    +0.072 A 
ATOM     27  C   UNL     1      -4.065  -1.899  23.836  0.00  0.00    +0.005 A 
ATOM     28  C   UNL     1      -4.383  -1.152  23.981  0.00  0.00    +0.019 A 
BRANCH  26  29
ATOM     29  C   UNL     1      -3.305  -3.027  24.276  0.00  0.00    +0.419 C 
ATOM     30  F   UNL     1      -2.986  -3.774  24.131  0.00  0.00    -0.166 F 
ATOM     31  F   UNL     1      -4.054  -3.363  24.360  0.00  0.00    -0.166 F 
ATOM     32  F   UNL     1      -2.556  -2.691  24.192  0.00  0.00    -0.166 F 
ENDBRANCH  26  29
ENDBRANCH   4  23
BRANCH   7   8
ATOM      8  C   UNL     1      -4.532   2.090  25.010  0.00  0.00    +0.048 C 
ATOM      9  C   UNL     1      -3.949   2.452  25.467  0.00  0.00    +0.035 C 
ATOM     10  C   UNL     1      -3.969   3.262  25.312  0.00  0.00    +0.119 C 
ATOM     21  C   UNL     1      -4.565   3.400  24.758  0.00  0.00    -0.009 C 
ATOM     22  C   UNL     1      -4.913   2.677  24.572  0.00  0.00    -0.025 C 
BRANCH  10  11
ATOM     11  N   UNL     1      -3.481   3.834  25.651  0.00  0.00    -0.184 NA
ATOM     12  C   UNL     1      -2.764   4.030  25.292  0.00  0.00    +0.339 C 
ATOM     13  O   UNL     1      -2.536   3.655  24.594  0.00  0.00    -0.249 OA
ATOM     14  N   UNL     1      -2.276   4.602  25.631  0.00  0.00    -0.189 NA
BRANCH  14  15
ATOM     15  C   UNL     1      -1.560   4.799  25.272  0.00  0.00    +0.097 C 
ATOM     16  C   UNL     1      -1.450   5.553  24.956  0.00  0.00    +0.022 C 
ATOM     17  C   UNL     1      -0.734   5.750  24.597  0.00  0.00    +0.002 C 
ATOM     18  C   UNL     1      -0.127   5.192  24.554  0.00  0.00    +0.000 C 
ATOM     19  C   UNL     1      -0.237   4.438  24.870  0.00  0.00    +0.002 C 
ATOM     20  C   UNL     1      -0.953   4.241  25.229  0.00  0.00    +0.022 C 
ENDBRANCH  14  15
ENDBRANCH  10  11
ENDBRANCH   7   8
TORSDOF 5
ENDMDL
MODEL 2
REMARK VINA RESULT:     -12.4      2.870      5.988
REMARK  Name = 
REMARK  5 active torsions:
REMARK  status: ('A' for Active; 'I' for Inactive)
REMARK    1  A    between atoms: N_4  and  C_23
REMARK    2  A    between atoms: C_7  and  C_8
REMARK    3  A    between atoms: C_10  and  N_11
REMARK    4  A    between atoms: N_14  and  C_15
REMARK    5  A    between atoms: C_26  and  C_29
REMARK                            x       y       z     vdW  Elec       q    Type
REMARK                         _______ _______ _______ _____ _____    ______ ____
ROOT
ATOM      1  C   UNL     1      -5.426   2.969  25.798  0.00  0.00    +0.054 C 
ATOM      2  C   UNL     1      -4.643   3.014  25.537  0.00  0.00    +0.077 A 
ATOM      3  N   UNL     1      -4.165   3.685  25.556  0.00  0.00    -0.170 NA
ATOM      4  N   UNL     1      -3.429   3.481  25.243  0.00  0.00    -0.234 N 
ATOM      5  C   UNL     1      -3.454   2.684  25.031  0.00  0.00    +0.058 A 
ATOM      6  C   UNL     1      -2.835   2.252  24.696  0.00  0.00    +0.052 C 
ATOM      7  C   UNL     1      -4.205   2.395  25.213  0.00  0.00    +0.010 A 
ENDROOT
BRANCH   4  23
ATOM     23  C   UNL     1      -2.782   3.987  25.156  0.00  0.00    +0.082 A 
ATOM     24  C   UNL     1      -2.187   3.995  25.727  0.00  0.00    +0.019 A 
ATOM     25  C   UNL     1      -1.540   4.500  25.641  0.00  0.00    +0.005 A 
ATOM     26  C   UNL     1      -1.488   4.995  24.985  0.00  0.00    +0.072 A 
ATOM     27  C   UNL     1      -2.084   4.987  24.413  0.00  0.00    +0.005 A 
ATOM     28  C   UNL     1      -2.731   4.482  24.499  0.00  0.00    +0.019 A 
BRANCH  26  29
ATOM     29  C   UNL     1      -0.841   5.500  24.898  0.00  0.00    +0.419 C 
ATOM     30  F   UNL     1      -0.195   6.005  24.812  0.00  0.00    -0.166 F 
ATOM     31  F   UNL     1      -0.395   4.877  24.591  0.00  0.00    -0.166 F 
ATOM     32  F   UNL     1      -1.287   6.123  25.205  0.00  0.00    -0.166 F 
ENDBRANCH  26  29
ENDBRANCH   4  23
BRANCH   7   8
ATOM      8  C   UNL     1      -4.469   1.623  25.092  0.00  0.00    +0.048 C 
ATOM      9  C   UNL     1      -4.180   0.947  25.465  0.00  0.00    +0.035 C 
ATOM     10  C   UNL     1      -4.601   0.298  25.180  0.00  0.00    +0.119 C 
ATOM     21  C   UNL     1      -5.150   0.573  24.629  0.00  0.00    -0.009 C 
ATOM     22  C   UNL     1      -5.069   1.392  24.575  0.00  0.00    -0.025 C 
BRANCH  10  11
ATOM     11  N   UNL     1      -4.493  -0.488  25.404  0.00  0.00    -0.184 NA
ATOM     12  C   UNL     1      -3.948  -0.961  25.004  0.00  0.00    +0.339 C 
ATOM     13  O   UNL     1      -3.510  -0.648  24.379  0.00  0.00    -0.249 OA
ATOM     14  N   UNL     1      -3.840  -1.748  25.230  0.00  0.00    -0.189 NA
BRANCH  14  15
ATOM     15  C   UNL     1      -3.295  -2.221  24.830  0.00  0.00    +0.097 C 
ATOM     16  C   UNL     1      -2.487  -2.107  24.947  0.00  0.00    +0.022 C 
ATOM     17  C   UNL     1      -1.941  -2.580  24.547  0.00  0.00    +0.002 C 
ATOM     18  C   UNL     1      -2.205  -3.166  24.029  0.00  0.00    +0.000 C 
ATOM     19  C   UNL     1      -3.015  -3.280  23.912  0.00  0.00    +0.002 C 
ATOM     20  C   UNL     1      -3.560  -2.807  24.312  0.00  0.00    +0.022 C 
ENDBRANCH  14  15
ENDBRANCH  10  11
ENDBRANCH   7   8
TORSDOF 5
ENDMDL
MODEL 3
REMARK VINA RESULT:     -11.6      4.161      5.285
REMARK  Name = 
REMARK  5 active torsions:
REMARK  status: ('A' for Active; 'I' for Inactive)
REMARK    1  A    between atoms: N_4  and  C_23
REMARK    2  A    between atoms: C_7  and  C_8
REMARK    3  A    between atoms: C_10  and  N_11
REMARK    4  A    between atoms: N_14  and  C_15
REMARK    5  A    between atoms: C_26  and  C_29
REMARK                            x       y       z     vdW  Elec       q    Type
REMARK                         _______ _______ _______ _____ _____    ______ ____
ROOT
ATOM      1  C   UNL     1      -0.556   1.771  25.404  0.00  0.00    +0.054 C 
ATOM      2  C   UNL     1      -1.276   1.518  25.090  0.00  0.00    +0.077 A 
ATOM      3  N   UNL     1      -2.017   1.835  25.262  0.00  0.00    -0.170 NA
ATOM      4  N   UNL     1      -2.580   1.416  24.827  0.00  0.00    -0.234 N 
ATOM      5  C   UNL     1      -2.186   0.841  24.387  0.00  0.00    +0.058 A 
ATOM      6  C   UNL     1      -2.537   0.298  23.874  0.00  0.00    +0.052 C 
ATOM      7  C   UNL     1      -1.379   0.904  24.550  0.00  0.00    +0.010 A 
ENDROOT
BRANCH   4  23
ATOM     23  C   UNL     1      -3.395   1.550  24.832  0.00  0.00    +0.082 A 
ATOM     24  C   UNL     1      -3.707   2.203  24.437  0.00  0.00    +0.019 A 
ATOM     25  C   UNL     1      -4.522   2.337  24.442  0.00  0.00    +0.005 A 
ATOM     26  C   UNL     1      -5.022   1.818  24.841  0.00  0.00    +0.072 A 
ATOM     27  C   UNL     1      -4.710   1.164  25.236  0.00  0.00    +0.005 A 
ATOM     28  C   UNL     1      -3.895   1.031  25.232  0.00  0.00    +0.019 A 
BRANCH  26  29
ATOM     29  C   UNL     1      -5.837   1.952  24.846  0.00  0.00    +0.419 C 
ATOM     30  F   UNL     1      -6.651   2.085  24.850  0.00  0.00    -0.166 F 
ATOM     31  F   UNL     1      -5.719   2.655  25.262  0.00  0.00    -0.166 F 
ATOM     32  F   UNL     1      -5.954   1.249  24.430  0.00  0.00    -0.166 F 
ENDBRANCH  26  29
ENDBRANCH   4  23
BRANCH   7   8
ATOM      8  C   UNL     1      -0.783   0.434  24.227  0.00  0.00    +0.048 C 
ATOM      9  C   UNL     1      -0.302   0.630  23.587  0.00  0.00    +0.035 C 
ATOM     10  C   UNL     1       0.215   0.003  23.454  0.00  0.00    +0.119 C 
ATOM     21  C   UNL     1       0.054  -0.583  24.012  0.00  0.00    -0.009 C 
ATOM     22  C   UNL     1      -0.562  -0.317  24.490  0.00  0.00    -0.025 C 
BRANCH  10  11
ATOM     11  N   UNL     1       0.793  -0.034  22.866  0.00  0.00    -0.184 NA
ATOM     12  C   UNL     1       1.583   0.109  23.053  0.00  0.00    +0.339 C 
ATOM     13  O   UNL     1       1.797   0.290  23.829  0.00  0.00    -0.249 OA
ATOM     14  N   UNL     1       2.161   0.071  22.465  0.00  0.00    -0.189 NA
BRANCH  14  15
ATOM     15  C   UNL     1       2.951   0.215  22.652  0.00  0.00    +0.097 C 
ATOM     16  C   UNL     1       3.424  -0.397  22.939  0.00  0.00    +0.022 C 
ATOM     17  C   UNL     1       4.215  -0.254  23.126  0.00  0.00    +0.002 C 
ATOM     18  C   UNL     1       4.532   0.501  23.027  0.00  0.00    +0.000 C 
ATOM     19  C   UNL     1       4.058   1.113  22.741  0.00  0.00    +0.002 C 
ATOM     20  C   UNL     1       3.268   0.970  22.553  0.00  0.00    +0.022 C 
ENDBRANCH  14  15
ENDBRANCH  10  11
ENDBRANCH   7   8
TORSDOF 5
ENDMDL
MODEL 4
REMARK VINA RESULT:     -10.9      2.054      2.850
REMARK  Name = 
REMARK  5 active torsions:
REMARK  status: ('A' for Active; 'I' for Inactive)
REMARK    1  A    between atoms: N_4  and  C_23
REMARK    2  A    between atoms: C_7  and  C_8
REMARK    3  A    between atoms: C_10  and  N_11
REMARK    4  A    between atoms: N_14  and  C_15
REMARK    5  A    between atoms: C_26  and  C_29
REMARK                            x       y       z     vdW  Elec       q    Type
REMARK                         _______ _______ _______ _____ _____    ______ ____
ROOT
ATOM      1  C   UNL     1      -0.630  -0.608  26.506  0.00  0.00    +0.054 C 
ATOM      2  C   UNL     1      -1.152  -0.663  25.868  0.00  0.00    +0.077 A 
ATOM      3  N   UNL     1      -1.708  -1.259  25.748  0.00  0.00    -0.170 NA
ATOM      4  N   UNL     1      -2.108  -1.096  25.044  0.00  0.00    -0.234 N 
ATOM      5  C   UNL     1      -1.798  -0.398  24.731  0.00  0.00    +0.058 A 
ATOM      6  C   UNL     1      -2.037  -0.033  24.031  0.00  0.00    +0.052 C 
ATOM      7  C   UNL     1      -1.206  -0.131  25.240  0.00  0.00    +0.010 A 
ENDROOT
BRANCH   4  23
ATOM     23  C   UNL     1      -2.712  -1.550  24.713  0.00  0.00    +0.082 A 
ATOM     24  C   UNL     1      -3.486  -1.264  24.707  0.00  0.00    +0.019 A 
ATOM     25  C   UNL     1      -4.090  -1.719  24.375  0.00  0.00    +0.005 A 
ATOM     26  C   UNL     1      -3.920  -2.457  24.050  0.00  0.00    +0.072 A 
ATOM     27  C   UNL     1      -3.146  -2.743  24.056  0.00  0.00    +0.005 A 
ATOM     28  C   UNL     1      -2.541  -2.288  24.388  0.00  0.00    +0.019 A 
BRANCH  26  29
ATOM     29  C   UNL     1      -4.524  -2.911  23.719  0.00  0.00    +0.419 C 
ATOM     30  F   UNL     1      -5.128  -3.364  23.387  0.00  0.00    -0.166 F 
ATOM     31  F   UNL     1      -4.236  -3.579  24.109  0.00  0.00    -0.166 F 
ATOM     32  F   UNL     1      -4.812  -2.243  23.329  0.00  0.00    -0.166 F 
ENDBRANCH  26  29
ENDBRANCH   4  23
BRANCH   7   8
ATOM      8  C   UNL     1      -0.751   0.549  25.138  0.00  0.00    +0.048 C 
ATOM      9  C   UNL     1      -0.817   1.248  25.571  0.00  0.00    +0.035 C 
ATOM     10  C   UNL     1      -0.256   1.780  25.285  0.00  0.00    +0.119 C 
ATOM     21  C   UNL     1       0.158   1.410  24.675  0.00  0.00    -0.009 C 
ATOM     22  C   UNL     1      -0.147   0.650  24.584  0.00  0.00    -0.025 C 
BRANCH  10  11
ATOM     11  N   UNL     1      -0.130   2.548  25.560  0.00  0.00    -0.184 NA
ATOM     12  C   UNL     1      -0.618   3.163  25.306  0.00  0.00    +0.339 C 
ATOM     13  O   UNL     1      -1.232   3.011  24.777  0.00  0.00    -0.249 OA
ATOM     14  N   UNL     1      -0.491   3.930  25.581  0.00  0.00    -0.189 NA
BRANCH  14  15
ATOM     15  C   UNL     1      -0.978   4.545  25.327  0.00  0.00    +0.097 C 
ATOM     16  C   UNL     1      -0.688   5.112  24.803  0.00  0.00    +0.022 C 
ATOM     17  C   UNL     1      -1.175   5.728  24.549  0.00  0.00    +0.002 C 
ATOM     18  C   UNL     1      -1.953   5.776  24.820  0.00  0.00    +0.000 C 
ATOM     19  C   UNL     1      -2.244   5.208  25.344  0.00  0.00    +0.002 C 
ATOM     20  C   UNL     1      -1.756   4.593  25.598  0.00  0.00    +0.022 C 
ENDBRANCH  14  15
ENDBRANCH  10  11
ENDBRANCH   7   8
TORSDOF 5
ENDMDL
MODEL 5
REMARK VINA RESULT:     -10.4      2.992      4.926
REMARK  Name = 
REMARK  5 active torsions:
REMARK  status: ('A' for Active; 'I' for Inactive)
REMARK    1  A    between atoms: N_4  and  C_23
REMARK    2  A    between atoms: C_7  and  C_8
REMARK    3  A    between atoms: C_10  and  N_11
REMARK    4  A    between atoms: N_14  and  C_15
REMARK    5  A    between atoms: C_26  and  C_29
REMARK                            x       y       z     vdW  Elec       q    Type
REMARK                         _______ _______ _______ _____ _____    ______ ____
ROOT
ATOM      1  C   UNL     1      -0.219   2.602  26.449  0.00  0.00    +0.054 C 
ATOM      2  C   UNL     1      -0.176   2.372  25.657  0.00  0.00    +0.077 A 
ATOM      3  N   UNL     1       0.345   1.817  25.341  0.00  0.00    -0.170 NA
ATOM      4  N   UNL     1       0.197   1.759  24.532  0.00  0.00    -0.234 N 
ATOM      5  C   UNL     1      -0.416   2.280  24.347  0.00  0.00    +0.058 A 
ATOM      6  C   UNL     1      -0.742   2.400  23.598  0.00  0.00    +0.052 C 
ATOM      7  C   UNL     1      -0.647   2.659  25.043  0.00  0.00    +0.010 A 
ENDROOT
BRANCH   4  23
ATOM     23  C   UNL     1       0.592   1.267  23.999  0.00  0.00    +0.082 A 
ATOM     24  C   UNL     1       0.247   0.557  23.762  0.00  0.00    +0.019 A 
ATOM     25  C   UNL     1       0.643   0.065  23.230  0.00  0.00    +0.005 A 
ATOM     26  C   UNL     1       1.381   0.284  22.936  0.00  0.00    +0.072 A 
ATOM     27  C   UNL     1       1.725   0.996  23.173  0.00  0.00    +0.005 A 
ATOM     28  C   UNL     1       1.330   1.488  23.705  0.00  0.00    +0.019 A 
BRANCH  26  29
ATOM     29  C   UNL     1       1.776  -0.208  22.403  0.00  0.00    +0.419 C 
ATOM     30  F   UNL     1       2.170  -0.699  21.871  0.00  0.00    -0.166 F 
ATOM     31  F   UNL     1       2.432  -0.222  22.904  0.00  0.00    -0.166 F 
ATOM     32  F   UNL     1       1.120  -0.193  21.904  0.00  0.00    -0.166 F 
ENDBRANCH  26  29
ENDBRANCH   4  23
BRANCH   7   8
ATOM      8  C   UNL     1      -1.243   3.225  25.111  0.00  0.00    +0.048 C 
ATOM      9  C   UNL     1      -2.039   3.117  24.924  0.00  0.00    +0.035 C 
ATOM     10  C   UNL     1      -2.435   3.824  25.076  0.00  0.00    +0.119 C 
ATOM     21  C   UNL     1      -1.884   4.369  25.358  0.00  0.00    -0.009 C 
ATOM     22  C   UNL     1      -1.148   4.000  25.379  0.00  0.00    -0.025 C 
BRANCH  10  11
ATOM     11  N   UNL     1      -3.241   3.962  24.966  0.00  0.00    -0.184 NA
ATOM     12  C   UNL     1      -3.791   3.380  25.163  0.00  0.00    +0.339 C 
ATOM     13  O   UNL     1      -3.536   2.658  25.470  0.00  0.00    -0.249 OA
ATOM     14  N   UNL     1      -4.597   3.520  25.053  0.00  0.00    -0.189 NA
BRANCH  14  15
ATOM     15  C   UNL     1      -5.147   2.938  25.249  0.00  0.00    +0.097 C 
ATOM     16  C   UNL     1      -5.352   2.361  24.697  0.00  0.00    +0.022 C 
ATOM     17  C   UNL     1      -5.902   1.778  24.894  0.00  0.00    +0.002 C 
ATOM     18  C   UNL     1      -6.248   1.773  25.643  0.00  0.00    +0.000 C 
ATOM     19  C   UNL     1      -6.042   2.351  26.196  0.00  0.00    +0.002 C 
ATOM     20  C   UNL     1      -5.492   2.933  25.999  0.00  0.00    +0.022 C 
ENDBRANCH  14  15
ENDBRANCH  10  11
ENDBRANCH   7   8
TORSDOF 5
ENDMDL
MODEL 6
REMARK VINA RESULT:     -10.4      3.495      6.709
REMARK  Name = 
REMARK  5 active torsions:
REMARK  status: ('A' for Active; 'I' for Inactive)
REMARK    1  A    between atoms: N_4  and  C_23
REMARK    2  A    between atoms: C_7  and  C_8
REMARK    3  A    between atoms: C_10  and  N_11
REMARK    4  A    between atoms: N_14  and  C_15
REMARK    5  A    between atoms: C_26  and  C_29
REMARK                            x       y       z     vdW  Elec       q    Type
REMARK                         _______ _______ _______ _____ _____    ______ ____
ROOT
ATOM      1  C   UNL     1       0.289   1.570  26.682  0.00  0.00    +0.054 C 
ATOM      2  C   UNL     1      -0.199   2.004  26.175  0.00  0.00    +0.077 A 
ATOM      3  N   UNL     1      -0.286   2.823  26.172  0.00  0.00    -0.170 NA
ATOM      4  N   UNL     1      -0.825   3.019  25.578  0.00  0.00    -0.234 N 
ATOM      5  C   UNL     1      -1.069   2.320  25.215  0.00  0.00    +0.058 A 
ATOM      6  C   UNL     1      -1.607   2.259  24.591  0.00  0.00    +0.052 C 
ATOM      7  C   UNL     1      -0.682   1.692  25.584  0.00  0.00    +0.010 A 
ENDROOT
BRANCH   4  23
ATOM     23  C   UNL     1      -1.075   3.781  25.381  0.00  0.00    +0.082 A 
ATOM     24  C   UNL     1      -1.809   4.052  25.641  0.00  0.00    +0.019 A 
ATOM     25  C   UNL     1      -2.060   4.814  25.444  0.00  0.00    +0.005 A 
ATOM     26  C   UNL     1      -1.576   5.303  24.989  0.00  0.00    +0.072 A 
ATOM     27  C   UNL     1      -0.841   5.031  24.730  0.00  0.00    +0.005 A 
ATOM     28  C   UNL     1      -0.591   4.269  24.926  0.00  0.00    +0.019 A 
BRANCH  26  29
ATOM     29  C   UNL     1      -1.826   6.064  24.793  0.00  0.00    +0.419 C 
ATOM     30  F   UNL     1      -2.077   6.825  24.596  0.00  0.00    -0.166 F 
ATOM     31  F   UNL     1      -1.314   6.379  25.359  0.00  0.00    -0.166 F 
ATOM     32  F   UNL     1      -2.337   5.750  24.227  0.00  0.00    -0.166 F 
ENDBRANCH  26  29
ENDBRANCH   4  23
BRANCH   7   8
ATOM      8  C   UNL     1      -0.765   0.893  25.395  0.00  0.00    +0.048 C 
ATOM      9  C   UNL     1      -1.321   0.374  25.712  0.00  0.00    +0.035 C 
ATOM     10  C   UNL     1      -1.205  -0.366  25.367  0.00  0.00    +0.119 C 
ATOM     21  C   UNL     1      -0.576  -0.304  24.836  0.00  0.00    -0.009 C 
ATOM     22  C   UNL     1      -0.304   0.473  24.853  0.00  0.00    -0.025 C 
BRANCH  10  11
ATOM     11  N   UNL     1      -1.640  -1.049  25.525  0.00  0.00    -0.184 NA
ATOM     12  C   UNL     1      -2.250  -1.277  25.017  0.00  0.00    +0.339 C 
ATOM     13  O   UNL     1      -2.425  -0.822  24.352  0.00  0.00    -0.249 OA
ATOM     14  N   UNL     1      -2.684  -1.960  25.176  0.00  0.00    -0.189 NA
BRANCH  14  15
ATOM     15  C   UNL     1      -3.294  -2.188  24.668  0.00  0.00    +0.097 C 
ATOM     16  C   UNL     1      -3.295  -2.945  24.341  0.00  0.00    +0.022 C 
ATOM     17  C   UNL     1      -3.905  -3.174  23.833  0.00  0.00    +0.002 C 
ATOM     18  C   UNL     1      -4.512  -2.644  23.654  0.00  0.00    +0.000 C 
ATOM     19  C   UNL     1      -4.510  -1.887  23.982  0.00  0.00    +0.002 C 
ATOM     20  C   UNL     1      -3.901  -1.659  24.490  0.00  0.00    +0.022 C 
ENDBRANCH  14  15
ENDBRANCH  10  11
ENDBRANCH   7   8
TORSDOF 5
ENDMDL
