MODEL 1
REMARK VINA RESULT:     -11.5      0.000      0.000
REMARK  Name = 
REMARK  4 active torsions:
REMARK  status: ('A' for Active; 'I' for Inactive)
REMARK    1  A    between atoms: O_2  and  C_3
REMARK    2  A    between atoms: C_6  and  C_9
REMARK    3  A    between atoms: C_14  and  C_16
REMARK    4  A    between atoms: C_19  and  C_21
REMARK                            x       y       z     vdW  Elec       q    Type
REMARK                         _______ _______ _______ _____ _____    ______ ____
ROOT
ATOM      9  C   UNL     1      -3.668  -0.017  25.026  0.00  0.00    +0.249 C 
ATOM     10  O   UNL     1      -4.329   0.414  25.266  0.00  0.00    -0.270 OA
ATOM     11  N   UNL     1      -2.925   0.342  25.008  0.00  0.00    -0.276 N 
ATOM     12  C   UNL     1      -2.218  -0.018  24.782  0.00  0.00    +0.094 C 
ATOM     13  C   UNL     1      -1.615   0.542  24.847  0.00  0.00    +0.033 C 
ATOM     14  C   UNL     1      -1.950   1.247  25.113  0.00  0.00    +0.100 C 
ATOM     15  C   UNL     1      -2.760   1.124  25.213  0.00  0.00    +0.103 C 
ENDROOT
BRANCH   9   6
ATOM      3  C   UNL     1      -3.911  -2.389  24.362  0.00  0.00    +0.139 A 
ATOM      4  C   UNL     1      -3.621  -2.198  25.111  0.00  0.00    +0.037 A 
ATOM      5  C   UNL     1      -3.540  -1.407  25.332  0.00  0.00    +0.008 A 
ATOM      6  C   UNL     1      -3.749  -0.808  24.805  0.00  0.00    +0.054 A 
ATOM      7  C   UNL     1      -4.039  -0.999  24.057  0.00  0.00    +0.008 A 
ATOM      8  C   UNL     1      -4.120  -1.789  23.836  0.00  0.00    +0.037 A 
BRANCH   3   2
ATOM      1  C   UNL     1      -3.322  -3.638  23.994  0.00  0.00    +0.252 C 
ATOM      2  O   UNL     1      -3.993  -3.180  24.142  0.00  0.00    -0.471 OA
ENDBRANCH   3   2
ENDBRANCH   9   6
BRANCH  14  16
ATOM     16  C   UNL     1      -1.547   1.953  25.255  0.00  0.00    +0.228 A 
ATOM     17  N   UNL     1      -0.827   2.028  25.651  0.00  0.00    -0.111 NA
ATOM     18  N   UNL     1      -0.627   2.828  25.667  0.00  0.00    -0.107 NA
ATOM     19  C   UNL     1      -1.224   3.248  25.281  0.00  0.00    +0.250 A 
ATOM     20  O   UNL     1      -1.793   2.706  25.027  0.00  0.00    -0.419 OA
BRANCH  19  21
ATOM     21  C   UNL     1      -1.248   4.065  25.169  0.00  0.00    +0.055 A 
ATOM     22  C   UNL     1      -1.912   4.494  25.405  0.00  0.00    +0.005 A 
ATOM     23  C   UNL     1      -1.937   5.311  25.293  0.00  0.00    +0.000 A 
ATOM     24  C   UNL     1      -1.297   5.699  24.946  0.00  0.00    +0.000 A 
ATOM     25  C   UNL     1      -0.633   5.270  24.710  0.00  0.00    +0.000 A 
ATOM     26  C   UNL     1      -0.608   4.453  24.822  0.00  0.00    +0.005 A 
ENDBRANCH  19  21
ENDBRANCH  14  16
TORSDOF 4
ENDMDL
MODEL 2
REMARK VINA RESULT:     -11.2      1.092      5.987
REMARK  Name = 
REMARK  4 active torsions:
REMARK  status: ('A' for Active; 'I' for Inactive)
REMARK    1  A    between atoms: O_2  and  C_3
REMARK    2  A    between atoms: C_6  and  C_9
REMARK    3  A    between atoms: C_14  and  C_16
REMARK    4  A    between atoms: C_19  and  C_21
REMARK                            x       y       z     vdW  Elec       q    Type
REMARK                         _______ _______ _______ _____ _____    ______ ____
ROOT
ATOM      9  C   UNL     1      -1.538   2.447  25.377  0.00  0.00    +0.249 C 
ATOM     10  O   UNL     1      -1.019   1.980  25.816  0.00  0.00    -0.270 OA
ATOM     11  N   UNL     1      -2.221   2.115  25.055  0.00  0.00    -0.276 N 
ATOM     12  C   UNL     1      -2.787   2.513  24.606  0.00  0.00    +0.094 C 
ATOM     13  C   UNL     1      -3.374   1.971  24.399  0.00  0.00    +0.033 C 
ATOM     14  C   UNL     1      -3.170   1.239  24.720  0.00  0.00    +0.100 C 
ATOM     15  C   UNL     1      -2.456   1.329  25.126  0.00  0.00    +0.103 C 
ENDROOT
BRANCH   9   6
ATOM      3  C   UNL     1      -1.044   4.848  25.027  0.00  0.00    +0.139 A 
ATOM      4  C   UNL     1      -1.641   4.622  25.549  0.00  0.00    +0.037 A 
ATOM      5  C   UNL     1      -1.806   3.821  25.666  0.00  0.00    +0.008 A 
ATOM      6  C   UNL     1      -1.373   3.248  25.260  0.00  0.00    +0.054 A 
ATOM      7  C   UNL     1      -0.776   3.474  24.738  0.00  0.00    +0.008 A 
ATOM      8  C   UNL     1      -0.611   4.274  24.622  0.00  0.00    +0.037 A 
BRANCH   3   2
ATOM      1  C   UNL     1      -1.498   6.184  24.802  0.00  0.00    +0.252 C 
ATOM      2  O   UNL     1      -0.880   5.647  24.910  0.00  0.00    -0.471 OA
ENDBRANCH   3   2
ENDBRANCH   9   6
BRANCH  14  16
ATOM     16  C   UNL     1      -3.602   0.540  24.649  0.00  0.00    +0.228 A 
ATOM     17  N   UNL     1      -4.424   0.480  24.617  0.00  0.00    -0.111 NA
ATOM     18  N   UNL     1      -4.619  -0.318  24.545  0.00  0.00    -0.107 NA
ATOM     19  C   UNL     1      -3.917  -0.752  24.532  0.00  0.00    +0.250 A 
ATOM     20  O   UNL     1      -3.288  -0.221  24.596  0.00  0.00    -0.419 OA
BRANCH  19  21
ATOM     21  C   UNL     1      -3.854  -1.572  24.466  0.00  0.00    +0.055 A 
ATOM     22  C   UNL     1      -3.393  -1.995  25.004  0.00  0.00    +0.005 A 
ATOM     23  C   UNL     1      -3.330  -2.815  24.938  0.00  0.00    +0.000 A 
ATOM     24  C   UNL     1      -3.728  -3.212  24.334  0.00  0.00    +0.000 A 
ATOM     25  C   UNL     1      -4.189  -2.789  23.797  0.00  0.00    +0.000 A 
ATOM     26  C   UNL     1      -4.252  -1.969  23.862  0.00  0.00    +0.005 A 
ENDBRANCH  19  21
ENDBRANCH  14  16
TORSDOF 4
ENDMDL
MODEL 3
REMARK VINA RESULT:      -9.6      3.075      4.502
REMARK  Name = 
REMARK  4 active torsions:
REMARK  status: ('A' for Active; 'I' for Inactive)
REMARK    1  A    between atoms: O_2  and  C_3
REMARK    2  A    between atoms: C_6  and  C_9
REMARK    3  A    between atoms: C_14  and  C_16
REMARK    4  A    between atoms: C_19  and  C_21
REMARK                            x       y       z     vdW  Elec       q    Type
REMARK                         _______ _______ _______ _____ _____    ______ ____
ROOT
ATOM      9  C   UNL     1      -0.521   0.749  24.289  0.00  0.00    +0.249 C 
ATOM     10  O   UNL     1      -0.568   0.515  25.078  0.00  0.00    -0.270 OA
ATOM     11  N   UNL     1      -1.141   1.172  23.946  0.00  0.00    -0.276 N 
ATOM     12  C   UNL     1      -1.171   1.441  23.167  0.00  0.00    +0.094 C 
ATOM     13  C   UNL     1      -1.888   1.836  23.061  0.00  0.00    +0.033 C 
ATOM     14  C   UNL     1      -2.301   1.809  23.775  0.00  0.00    +0.100 C 
ATOM     15  C   UNL     1      -1.839   1.399  24.322  0.00  0.00    +0.103 C 
ENDROOT
BRANCH   9   6
ATOM      3  C   UNL     1       1.481   0.182  22.948  0.00  0.00    +0.139 A 
ATOM      4  C   UNL     1       0.844  -0.341  22.980  0.00  0.00    +0.037 A 
ATOM      5  C   UNL     1       0.176  -0.152  23.427  0.00  0.00    +0.008 A 
ATOM      6  C   UNL     1       0.147   0.560  23.841  0.00  0.00    +0.054 A 
ATOM      7  C   UNL     1       0.783   1.084  23.809  0.00  0.00    +0.008 A 
ATOM      8  C   UNL     1       1.450   0.895  23.363  0.00  0.00    +0.037 A 
BRANCH   3   2
ATOM      1  C   UNL     1       2.875   0.343  22.677  0.00  0.00    +0.252 C 
ATOM      2  O   UNL     1       2.148  -0.007  22.501  0.00  0.00    -0.471 OA
ENDBRANCH   3   2
ENDBRANCH   9   6
BRANCH  14  16
ATOM     16  C   UNL     1      -3.045   2.136  23.918  0.00  0.00    +0.228 A 
ATOM     17  N   UNL     1      -3.396   2.747  23.489  0.00  0.00    -0.111 NA
ATOM     18  N   UNL     1      -4.136   2.898  23.820  0.00  0.00    -0.107 NA
ATOM     19  C   UNL     1      -4.243   2.380  24.454  0.00  0.00    +0.250 A 
ATOM     20  O   UNL     1      -3.568   1.909  24.514  0.00  0.00    -0.419 OA
BRANCH  19  21
ATOM     21  C   UNL     1      -4.907   2.340  24.942  0.00  0.00    +0.055 A 
ATOM     22  C   UNL     1      -5.009   2.893  25.546  0.00  0.00    +0.005 A 
ATOM     23  C   UNL     1      -5.673   2.853  26.034  0.00  0.00    +0.000 A 
ATOM     24  C   UNL     1      -6.236   2.261  25.917  0.00  0.00    +0.000 A 
ATOM     25  C   UNL     1      -6.134   1.709  25.312  0.00  0.00    +0.000 A 
ATOM     26  C   UNL     1      -5.470   1.748  24.825  0.00  0.00    +0.005 A 
ENDBRANCH  19  21
ENDBRANCH  14  16
TORSDOF 4
ENDMDL
