MODEL 1
REMARK VINA RESULT:     -10.2      0.000      0.000
REMARK  Name = 
REMARK  7 active torsions:
REMARK  status: ('A' for Active; 'I' for Inactive)
REMARK    1  A    between atoms: C_3  and  N_16
REMARK    2  A    between atoms: C_6  and  C_7
REMARK    3  A    between atoms: C_7  and  N_8
REMARK    4  A    between atoms: C_9  and  C_11
REMARK    5  A    between atoms: N_16  and  C_17
REMARK    6  A    between atoms: C_17  and  C_18
REMARK    7  A    between atoms: C_22  and  C_24
REMARK                            x       y       z     vdW  Elec       q    Type
REMARK                         _______ _______ _______ _____ _____    ______ ____
ROOT
ATOM      1  O   UNL     1      -3.911   1.397  25.678  0.00  0.00    -0.219 OA
ATOM      2  C   UNL     1      -3.762   1.551  24.881  0.00  0.00    +0.199 C 
ATOM      3  C   UNL     1      -3.818   1.007  24.264  0.00  0.00    +0.135 C 
ATOM      4  C   UNL     1      -3.622   1.396  23.564  0.00  0.00    +0.162 C 
ATOM      5  O   UNL     1      -3.444   2.179  23.748  0.00  0.00    -0.350 OA
ATOM      6  C   UNL     1      -3.531   2.275  24.562  0.00  0.00    +0.169 C 
ENDROOT
BRANCH   6   7
ATOM      7  C   UNL     1      -3.408   2.974  24.984  0.00  0.00    +0.147 C 
BRANCH   7   8
ATOM      8  N   UNL     1      -2.739   3.433  24.835  0.00  0.00    -0.203 NA
ATOM      9  C   UNL     1      -2.547   4.058  25.340  0.00  0.00    +0.241 C 
ATOM     10  O   UNL     1      -3.024   4.222  25.993  0.00  0.00    -0.273 OA
BRANCH   9  11
ATOM     11  C   UNL     1      -1.878   4.517  25.191  0.00  0.00    +0.078 C 
ATOM     12  C   UNL     1      -1.108   4.236  25.095  0.00  0.00    +0.009 C 
ATOM     13  C   UNL     1      -0.616   4.883  24.957  0.00  0.00    +0.001 C 
ATOM     14  C   UNL     1      -1.081   5.564  24.968  0.00  0.00    +0.001 C 
ATOM     15  C   UNL     1      -1.861   5.338  25.112  0.00  0.00    +0.009 C 
ENDBRANCH   9  11
ENDBRANCH   7   8
ENDBRANCH   6   7
BRANCH   3  16
ATOM     16  N   UNL     1      -4.033   0.214  24.334  0.00  0.00    -0.209 NA
BRANCH  16  17
ATOM     17  C   UNL     1      -3.797  -0.330  23.761  0.00  0.00    +0.115 C 
BRANCH  17  18
ATOM     18  C   UNL     1      -3.706  -1.126  23.960  0.00  0.00    -0.004 A 
ATOM     19  C   UNL     1      -4.350  -1.640  23.908  0.00  0.00    -0.003 A 
ATOM     20  C   UNL     1      -4.259  -2.436  24.106  0.00  0.00    +0.000 A 
ATOM     21  C   UNL     1      -3.525  -2.717  24.357  0.00  0.00    +0.010 A 
ATOM     22  C   UNL     1      -2.882  -2.203  24.408  0.00  0.00    +0.068 A 
ATOM     23  C   UNL     1      -2.972  -1.408  24.210  0.00  0.00    +0.007 A 
BRANCH  22  24
ATOM     24  C   UNL     1      -2.148  -2.485  24.659  0.00  0.00    +0.100 C 
ATOM     25  N   UNL     1      -1.414  -2.768  24.909  0.00  0.00    -0.191 NA
ENDBRANCH  22  24
ENDBRANCH  17  18
ENDBRANCH  16  17
ENDBRANCH   3  16
TORSDOF 7
ENDMDL
MODEL 2
REMARK VINA RESULT:      -9.7      2.049      6.025
REMARK  Name = 
REMARK  7 active torsions:
REMARK  status: ('A' for Active; 'I' for Inactive)
REMARK    1  A    between atoms: C_3  and  N_16
REMARK    2  A    between atoms: C_6  and  C_7
REMARK    3  A    between atoms: C_7  and  N_8
REMARK    4  A    between atoms: C_9  and  C_11
REMARK    5  A    between atoms: N_16  and  C_17
REMARK    6  A    between atoms: C_17  and  C_18
REMARK    7  A    between atoms: C_22  and  C_24
REMARK                            x       y       z     vdW  Elec       q    Type
REMARK                         _______ _______ _______ _____ _____    ______ ____
ROOT
ATOM      1  O   UNL     1      -0.823   0.784  25.855  0.00  0.00    -0.219 OA
ATOM      2  C   UNL     1      -0.714   0.773  25.037  0.00  0.00    +0.199 C 
ATOM      3  C   UNL     1      -0.573   1.429  24.558  0.00  0.00    +0.135 C 
ATOM      4  C   UNL     1      -0.499   1.165  23.780  0.00  0.00    +0.162 C 
ATOM      5  O   UNL     1      -0.594   0.347  23.779  0.00  0.00    -0.350 OA
ATOM      6  C   UNL     1      -0.727   0.104  24.555  0.00  0.00    +0.169 C 
ENDROOT
BRANCH   6   7
ATOM      7  C   UNL     1      -0.850  -0.672  24.807  0.00  0.00    +0.147 C 
BRANCH   7   8
ATOM      8  N   UNL     1      -1.585  -1.030  24.694  0.00  0.00    -0.203 NA
ATOM      9  C   UNL     1      -1.688  -1.828  24.877  0.00  0.00    +0.241 C 
ATOM     10  O   UNL     1      -1.056  -2.268  25.172  0.00  0.00    -0.273 OA
BRANCH   9  11
ATOM     11  C   UNL     1      -2.423  -2.186  24.765  0.00  0.00    +0.078 C 
ATOM     12  C   UNL     1      -3.105  -2.043  25.207  0.00  0.00    +0.009 C 
ATOM     13  C   UNL     1      -3.708  -2.517  24.906  0.00  0.00    +0.001 C 
ATOM     14  C   UNL     1      -3.399  -2.954  24.278  0.00  0.00    +0.001 C 
ATOM     15  C   UNL     1      -2.606  -2.749  24.191  0.00  0.00    +0.009 C 
ENDBRANCH   9  11
ENDBRANCH   7   8
ENDBRANCH   6   7
BRANCH   3  16
ATOM     16  N   UNL     1      -0.517   2.213  24.812  0.00  0.00    -0.209 NA
BRANCH  16  17
ATOM     17  C   UNL     1      -0.793   2.823  24.331  0.00  0.00    +0.115 C 
BRANCH  17  18
ATOM     18  C   UNL     1      -1.033   3.537  24.668  0.00  0.00    -0.004 A 
ATOM     19  C   UNL     1      -0.569   4.213  24.575  0.00  0.00    -0.003 A 
ATOM     20  C   UNL     1      -0.809   4.927  24.912  0.00  0.00    +0.000 A 
ATOM     21  C   UNL     1      -1.512   4.965  25.341  0.00  0.00    +0.010 A 
ATOM     22  C   UNL     1      -1.976   4.289  25.434  0.00  0.00    +0.068 A 
ATOM     23  C   UNL     1      -1.737   3.575  25.097  0.00  0.00    +0.007 A 
BRANCH  22  24
ATOM     24  C   UNL     1      -2.680   4.328  25.863  0.00  0.00    +0.100 C 
ATOM     25  N   UNL     1      -3.383   4.366  26.292  0.00  0.00    -0.191 NA
ENDBRANCH  22  24
ENDBRANCH  17  18
ENDBRANCH  16  17
ENDBRANCH   3  16
TORSDOF 7
ENDMDL
MODEL 3
REMARK VINA RESULT:      -9.5      1.231      5.517
REMARK  Name = 
REMARK  7 active torsions:
REMARK  status: ('A' for Active; 'I' for Inactive)
REMARK    1  A    between atoms: C_3  and  N_16
REMARK    2  A    between atoms: C_6  and  C_7
REMARK    3  A    between atoms: C_7  and  N_8
REMARK    4  A    between atoms: C_9  and  C_11
REMARK    5  A    between atoms: N_16  and  C_17
REMARK    6  A    between atoms: C_17  and  C_18
REMARK    7  A    between atoms: C_22  and  C_24
REMARK                            x       y       z     vdW  Elec       q    Type
REMARK                         _______ _______ _______ _____ _____    ______ ____
ROOT
ATOM      1  O   UNL     1      -3.270   1.456  23.596  0.00  0.00    -0.219 OA
ATOM      2  C   UNL     1      -3.750   1.534  24.262  0.00  0.00    +0.199 C 
ATOM      3  C   UNL     1      -3.789   2.193  24.757  0.00  0.00    +0.135 C 
ATOM      4  C   UNL     1      -4.338   2.033  25.351  0.00  0.00    +0.162 C 
ATOM      5  O   UNL     1      -4.638   1.276  25.224  0.00  0.00    -0.350 OA
ATOM      6  C   UNL     1      -4.275   0.968  24.551  0.00  0.00    +0.169 C 
ENDROOT
BRANCH   6   7
ATOM      7  C   UNL     1      -4.413   0.223  24.224  0.00  0.00    +0.147 C 
BRANCH   7   8
ATOM      8  N   UNL     1      -4.029  -0.440  24.530  0.00  0.00    -0.203 NA
ATOM      9  C   UNL     1      -4.223  -1.193  24.255  0.00  0.00    +0.241 C 
ATOM     10  O   UNL     1      -4.802  -1.283  23.674  0.00  0.00    -0.273 OA
BRANCH   9  11
ATOM     11  C   UNL     1      -3.839  -1.856  24.561  0.00  0.00    +0.078 C 
ATOM     12  C   UNL     1      -3.511  -1.921  25.316  0.00  0.00    +0.009 C 
ATOM     13  C   UNL     1      -3.185  -2.675  25.387  0.00  0.00    +0.001 C 
ATOM     14  C   UNL     1      -3.311  -3.076  24.678  0.00  0.00    +0.001 C 
ATOM     15  C   UNL     1      -3.715  -2.570  24.167  0.00  0.00    +0.009 C 
ENDBRANCH   9  11
ENDBRANCH   7   8
ENDBRANCH   6   7
BRANCH   3  16
ATOM     16  N   UNL     1      -3.355   2.889  24.673  0.00  0.00    -0.209 NA
BRANCH  16  17
ATOM     17  C   UNL     1      -3.074   3.284  25.340  0.00  0.00    +0.115 C 
BRANCH  17  18
ATOM     18  C   UNL     1      -2.336   3.653  25.322  0.00  0.00    -0.004 A 
ATOM     19  C   UNL     1      -2.277   4.446  25.101  0.00  0.00    -0.003 A 
ATOM     20  C   UNL     1      -1.539   4.815  25.082  0.00  0.00    +0.000 A 
ATOM     21  C   UNL     1      -0.861   4.391  25.284  0.00  0.00    +0.010 A 
ATOM     22  C   UNL     1      -0.921   3.599  25.505  0.00  0.00    +0.068 A 
ATOM     23  C   UNL     1      -1.658   3.230  25.523  0.00  0.00    +0.007 A 
BRANCH  22  24
ATOM     24  C   UNL     1      -0.241   3.175  25.707  0.00  0.00    +0.100 C 
ATOM     25  N   UNL     1       0.438   2.752  25.908  0.00  0.00    -0.191 NA
ENDBRANCH  22  24
ENDBRANCH  17  18
ENDBRANCH  16  17
ENDBRANCH   3  16
TORSDOF 7
ENDMDL
MODEL 4
REMARK VINA RESULT:      -9.3      1.945      2.499
REMARK  Name = 
REMARK  7 active torsions:
REMARK  status: ('A' for Active; 'I' for Inactive)
REMARK    1  A    between atoms: C_3  and  N_16
REMARK    2  A    between atoms: C_6  and  C_7
REMARK    3  A    between atoms: C_7  and  N_8
REMARK    4  A    between atoms: C_9  and  C_11
REMARK    5  A    between atoms: N_16  and  C_17
REMARK    6  A    between atoms: C_17  and  C_18
REMARK    7  A    between atoms: C_22  and  C_24
REMARK                            x       y       z     vdW  Elec       q    Type
REMARK                         _______ _______ _______ _____ _____    ______ ____
ROOT
ATOM      1  O   UNL     1      -0.722   0.850  23.677  0.00  0.00    -0.219 OA
ATOM      2  C   UNL     1      -0.760   0.871  24.501  0.00  0.00    +0.199 C 
ATOM      3  C   UNL     1      -0.969   0.242  24.992  0.00  0.00    +0.135 C 
ATOM      4  C   UNL     1      -0.934   0.506  25.773  0.00  0.00    +0.162 C 
ATOM      5  O   UNL     1      -0.704   1.298  25.764  0.00  0.00    -0.350 OA
ATOM      6  C   UNL     1      -0.597   1.523  24.978  0.00  0.00    +0.169 C 
ENDROOT
BRANCH   6   7
ATOM      7  C   UNL     1      -0.366   2.271  24.715  0.00  0.00    +0.147 C 
BRANCH   7   8
ATOM      8  N   UNL     1      -0.792   2.939  24.945  0.00  0.00    -0.203 NA
ATOM      9  C   UNL     1      -0.596   3.679  24.638  0.00  0.00    +0.241 C 
ATOM     10  O   UNL     1       0.027   3.751  24.102  0.00  0.00    -0.273 OA
BRANCH   9  11
ATOM     11  C   UNL     1      -1.022   4.347  24.868  0.00  0.00    +0.078 C 
ATOM     12  C   UNL     1      -0.791   5.132  24.758  0.00  0.00    +0.009 C 
ATOM     13  C   UNL     1      -1.380   5.617  25.070  0.00  0.00    +0.001 C 
ATOM     14  C   UNL     1      -1.975   5.133  25.373  0.00  0.00    +0.001 C 
ATOM     15  C   UNL     1      -1.754   4.348  25.248  0.00  0.00    +0.009 C 
ENDBRANCH   9  11
ENDBRANCH   7   8
ENDBRANCH   6   7
BRANCH   3  16
ATOM     16  N   UNL     1      -1.176  -0.518  24.746  0.00  0.00    -0.209 NA
BRANCH  16  17
ATOM     17  C   UNL     1      -1.679  -0.979  25.210  0.00  0.00    +0.115 C 
BRANCH  17  18
ATOM     18  C   UNL     1      -2.056  -1.636  24.882  0.00  0.00    -0.004 A 
ATOM     19  C   UNL     1      -1.646  -2.348  24.801  0.00  0.00    -0.003 A 
ATOM     20  C   UNL     1      -2.022  -3.005  24.473  0.00  0.00    +0.000 A 
ATOM     21  C   UNL     1      -2.808  -2.950  24.226  0.00  0.00    +0.010 A 
ATOM     22  C   UNL     1      -3.217  -2.238  24.308  0.00  0.00    +0.068 A 
ATOM     23  C   UNL     1      -2.841  -1.582  24.635  0.00  0.00    +0.007 A 
BRANCH  22  24
ATOM     24  C   UNL     1      -4.003  -2.184  24.061  0.00  0.00    +0.100 C 
ATOM     25  N   UNL     1      -4.788  -2.130  23.814  0.00  0.00    -0.191 NA
ENDBRANCH  22  24
ENDBRANCH  17  18
ENDBRANCH  16  17
ENDBRANCH   3  16
TORSDOF 7
ENDMDL
MODEL 5
REMARK VINA RESULT:      -8.7      4.281      5.103
REMARK  Name = 
REMARK  7 active torsions:
REMARK  status: ('A' for Active; 'I' for Inactive)
REMARK    1  A    between atoms: C_3  and  N_16
REMARK    2  A    between atoms: C_6  and  C_7
REMARK    3  A    between atoms: C_7  and  N_8
REMARK    4  A    between atoms: C_9  and  C_11
REMARK    5  A    between atoms: N_16  and  C_17
REMARK    6  A    between atoms: C_17  and  C_18
REMARK    7  A    between atoms: C_22  and  C_24
REMARK                            x       y       z     vdW  Elec       q    Type
REMARK                         _______ _______ _______ _____ _____    ______ ____
ROOT
ATOM      1  O   UNL     1      -0.151  -1.034  23.243  0.00  0.00    -0.219 OA
ATOM      2  C   UNL     1      -0.031  -0.293  23.586  0.00  0.00    +0.199 C 
ATOM      3  C   UNL     1      -0.510   0.061  24.157  0.00  0.00    +0.135 C 
ATOM      4  C   UNL     1      -0.186   0.796  24.342  0.00  0.00    +0.162 C 
ATOM      5  O   UNL     1       0.494   0.896  23.887  0.00  0.00    -0.350 OA
ATOM      6  C   UNL     1       0.590   0.224  23.420  0.00  0.00    +0.169 C 
ENDROOT
BRANCH   6   7
ATOM      7  C   UNL     1       1.200   0.091  22.880  0.00  0.00    +0.147 C 
BRANCH   7   8
ATOM      8  N   UNL     1       1.982   0.241  23.096  0.00  0.00    -0.203 NA
ATOM      9  C   UNL     1       2.585   0.178  22.536  0.00  0.00    +0.241 C 
ATOM     10  O   UNL     1       2.405  -0.036  21.760  0.00  0.00    -0.273 OA
BRANCH   9  11
ATOM     11  C   UNL     1       3.366   0.328  22.752  0.00  0.00    +0.078 C 
ATOM     12  C   UNL     1       3.883  -0.208  23.109  0.00  0.00    +0.009 C 
ATOM     13  C   UNL     1       4.604   0.174  23.226  0.00  0.00    +0.001 C 
ATOM     14  C   UNL     1       4.534   0.945  22.943  0.00  0.00    +0.001 C 
ATOM     15  C   UNL     1       3.770   1.041  22.650  0.00  0.00    +0.009 C 
ENDBRANCH   9  11
ENDBRANCH   7   8
ENDBRANCH   6   7
BRANCH   3  16
ATOM     16  N   UNL     1      -1.194  -0.264  24.484  0.00  0.00    -0.209 NA
BRANCH  16  17
ATOM     17  C   UNL     1      -1.683   0.198  24.961  0.00  0.00    +0.115 C 
BRANCH  17  18
ATOM     18  C   UNL     1      -2.447  -0.057  25.140  0.00  0.00    -0.004 A 
ATOM     19  C   UNL     1      -2.564  -0.797  25.485  0.00  0.00    -0.003 A 
ATOM     20  C   UNL     1      -3.329  -1.052  25.664  0.00  0.00    +0.000 A 
ATOM     21  C   UNL     1      -3.975  -0.568  25.497  0.00  0.00    +0.010 A 
ATOM     22  C   UNL     1      -3.857   0.172  25.151  0.00  0.00    +0.068 A 
ATOM     23  C   UNL     1      -3.094   0.428  24.973  0.00  0.00    +0.007 A 
BRANCH  22  24
ATOM     24  C   UNL     1      -4.504   0.657  24.984  0.00  0.00    +0.100 C 
ATOM     25  N   UNL     1      -5.151   1.141  24.817  0.00  0.00    -0.191 NA
ENDBRANCH  22  24
ENDBRANCH  17  18
ENDBRANCH  16  17
ENDBRANCH   3  16
TORSDOF 7
ENDMDL
MODEL 6
REMARK VINA RESULT:      -8.4      3.259      4.992
REMARK  Name = 
REMARK  7 active torsions:
REMARK  status: ('A' for Active; 'I' for Inactive)
REMARK    1  A    between atoms: C_3  and  N_16
REMARK    2  A    between atoms: C_6  and  C_7
REMARK    3  A    between atoms: C_7  and  N_8
REMARK    4  A    between atoms: C_9  and  C_11
REMARK    5  A    between atoms: N_16  and  C_17
REMARK    6  A    between atoms: C_17  and  C_18
REMARK    7  A    between atoms: C_22  and  C_24
REMARK                            x       y       z     vdW  Elec       q    Type
REMARK                         _______ _______ _______ _____ _____    ______ ____
ROOT
ATOM      1  O   UNL     1      -1.774   0.685  25.159  0.00  0.00    -0.219 OA
ATOM      2  C   UNL     1      -1.607   1.200  24.536  0.00  0.00    +0.199 C 
ATOM      3  C   UNL     1      -2.014   1.895  24.359  0.00  0.00    +0.135 C 
ATOM      4  C   UNL     1      -1.663   2.234  23.695  0.00  0.00    +0.162 C 
ATOM      5  O   UNL     1      -1.039   1.749  23.461  0.00  0.00    -0.350 OA
ATOM      6  C   UNL     1      -1.004   1.110  23.981  0.00  0.00    +0.169 C 
ENDROOT
BRANCH   6   7
ATOM      7  C   UNL     1      -0.461   0.489  23.951  0.00  0.00    +0.147 C 
BRANCH   7   8
ATOM      8  N   UNL     1       0.214   0.553  23.481  0.00  0.00    -0.203 NA
ATOM      9  C   UNL     1       0.699  -0.104  23.364  0.00  0.00    +0.241 C 
ATOM     10  O   UNL     1       0.510  -0.824  23.718  0.00  0.00    -0.273 OA
BRANCH   9  11
ATOM     11  C   UNL     1       1.374  -0.039  22.894  0.00  0.00    +0.078 C 
ATOM     12  C   UNL     1       1.444  -0.284  22.109  0.00  0.00    +0.009 C 
ATOM     13  C   UNL     1       2.210  -0.115  21.857  0.00  0.00    +0.001 C 
ATOM     14  C   UNL     1       2.615   0.235  22.485  0.00  0.00    +0.001 C 
ATOM     15  C   UNL     1       2.098   0.281  23.126  0.00  0.00    +0.009 C 
ENDBRANCH   9  11
ENDBRANCH   7   8
ENDBRANCH   6   7
BRANCH   3  16
ATOM     16  N   UNL     1      -2.660   2.198  24.774  0.00  0.00    -0.209 NA
BRANCH  16  17
ATOM     17  C   UNL     1      -3.238   2.633  24.378  0.00  0.00    +0.115 C 
BRANCH  17  18
ATOM     18  C   UNL     1      -3.931   2.853  24.769  0.00  0.00    -0.004 A 
ATOM     19  C   UNL     1      -3.950   3.545  25.217  0.00  0.00    -0.003 A 
ATOM     20  C   UNL     1      -4.642   3.764  25.608  0.00  0.00    +0.000 A 
ATOM     21  C   UNL     1      -5.315   3.291  25.552  0.00  0.00    +0.010 A 
ATOM     22  C   UNL     1      -5.296   2.598  25.104  0.00  0.00    +0.068 A 
ATOM     23  C   UNL     1      -4.604   2.379  24.713  0.00  0.00    +0.007 A 
BRANCH  22  24
ATOM     24  C   UNL     1      -5.970   2.124  25.047  0.00  0.00    +0.100 C 
ATOM     25  N   UNL     1      -6.643   1.651  24.991  0.00  0.00    -0.191 NA
ENDBRANCH  22  24
ENDBRANCH  17  18
ENDBRANCH  16  17
ENDBRANCH   3  16
TORSDOF 7
ENDMDL
MODEL 7
REMARK VINA RESULT:      -8.2      4.634      6.117
REMARK  Name = 
REMARK  7 active torsions:
REMARK  status: ('A' for Active; 'I' for Inactive)
REMARK    1  A    between atoms: C_3  and  N_16
REMARK    2  A    between atoms: C_6  and  C_7
REMARK    3  A    between atoms: C_7  and  N_8
REMARK    4  A    between atoms: C_9  and  C_11
REMARK    5  A    between atoms: N_16  and  C_17
REMARK    6  A    between atoms: C_17  and  C_18
REMARK    7  A    between atoms: C_22  and  C_24
REMARK                            x       y       z     vdW  Elec       q    Type
REMARK                         _______ _______ _______ _____ _____    ______ ____
ROOT
ATOM      1  O   UNL     1       0.483   1.536  24.150  0.00  0.00    -0.219 OA
ATOM      2  C   UNL     1       0.389   0.780  23.832  0.00  0.00    +0.199 C 
ATOM      3  C   UNL     1       0.955   0.359  23.406  0.00  0.00    +0.135 C 
ATOM      4  C   UNL     1       0.628  -0.367  23.195  0.00  0.00    +0.162 C 
ATOM      5  O   UNL     1      -0.141  -0.396  23.491  0.00  0.00    -0.350 OA
ATOM      6  C   UNL     1      -0.289   0.313  23.885  0.00  0.00    +0.169 C 
ENDROOT
BRANCH   6   7
ATOM      7  C   UNL     1      -0.992   0.519  24.265  0.00  0.00    +0.147 C 
BRANCH   7   8
ATOM      8  N   UNL     1      -1.604  -0.030  24.326  0.00  0.00    -0.203 NA
ATOM      9  C   UNL     1      -2.317   0.184  24.684  0.00  0.00    +0.241 C 
ATOM     10  O   UNL     1      -2.415   0.948  24.980  0.00  0.00    -0.273 OA
BRANCH   9  11
ATOM     11  C   UNL     1      -2.929  -0.365  24.745  0.00  0.00    +0.078 C 
ATOM     12  C   UNL     1      -3.568  -0.438  24.228  0.00  0.00    +0.009 C 
ATOM     13  C   UNL     1      -4.044  -1.055  24.496  0.00  0.00    +0.001 C 
ATOM     14  C   UNL     1      -3.700  -1.364  25.179  0.00  0.00    +0.001 C 
ATOM     15  C   UNL     1      -3.011  -0.938  25.333  0.00  0.00    +0.009 C 
ENDBRANCH   9  11
ENDBRANCH   7   8
ENDBRANCH   6   7
BRANCH   3  16
ATOM     16  N   UNL     1       1.717   0.620  23.222  0.00  0.00    -0.209 NA
BRANCH  16  17
ATOM     17  C   UNL     1       2.266   0.096  22.900  0.00  0.00    +0.115 C 
BRANCH  17  18
ATOM     18  C   UNL     1       3.069   0.286  22.901  0.00  0.00    -0.004 A 
ATOM     19  C   UNL     1       3.337   0.943  22.480  0.00  0.00    -0.003 A 
ATOM     20  C   UNL     1       4.140   1.134  22.482  0.00  0.00    +0.000 A 
ATOM     21  C   UNL     1       4.674   0.668  22.904  0.00  0.00    +0.010 A 
ATOM     22  C   UNL     1       4.405   0.011  23.325  0.00  0.00    +0.068 A 
ATOM     23  C   UNL     1       3.603  -0.180  23.323  0.00  0.00    +0.007 A 
BRANCH  22  24
ATOM     24  C   UNL     1       4.939  -0.455  23.747  0.00  0.00    +0.100 C 
ATOM     25  N   UNL     1       5.473  -0.921  24.169  0.00  0.00    -0.191 NA
ENDBRANCH  22  24
ENDBRANCH  17  18
ENDBRANCH  16  17
ENDBRANCH   3  16
TORSDOF 7
ENDMDL
MODEL 8
REMARK VINA RESULT:      -7.4      1.873      2.760
REMARK  Name = 
REMARK  7 active torsions:
REMARK  status: ('A' for Active; 'I' for Inactive)
REMARK    1  A    between atoms: C_3  and  N_16
REMARK    2  A    between atoms: C_6  and  C_7
REMARK    3  A    between atoms: C_7  and  N_8
REMARK    4  A    between atoms: C_9  and  C_11
REMARK    5  A    between atoms: N_16  and  C_17
REMARK    6  A    between atoms: C_17  and  C_18
REMARK    7  A    between atoms: C_22  and  C_24
REMARK                            x       y       z     vdW  Elec       q    Type
REMARK                         _______ _______ _______ _____ _____    ______ ____
ROOT
ATOM      1  O   UNL     1      -2.578   1.163  23.703  0.00  0.00    -0.219 OA
ATOM      2  C   UNL     1      -2.148   1.363  24.379  0.00  0.00    +0.199 C 
ATOM      3  C   UNL     1      -1.599   0.883  24.764  0.00  0.00    +0.135 C 
ATOM      4  C   UNL     1      -1.304   1.301  25.410  0.00  0.00    +0.162 C 
ATOM      5  O   UNL     1      -1.670   2.039  25.425  0.00  0.00    -0.350 OA
ATOM      6  C   UNL     1      -2.192   2.077  24.788  0.00  0.00    +0.169 C 
ENDROOT
BRANCH   6   7
ATOM      7  C   UNL     1      -2.674   2.719  24.593  0.00  0.00    +0.147 C 
BRANCH   7   8
ATOM      8  N   UNL     1      -3.418   2.796  24.940  0.00  0.00    -0.203 NA
ATOM      9  C   UNL     1      -3.878   3.464  24.787  0.00  0.00    +0.241 C 
ATOM     10  O   UNL     1      -3.592   4.054  24.286  0.00  0.00    -0.273 OA
BRANCH   9  11
ATOM     11  C   UNL     1      -4.622   3.542  25.134  0.00  0.00    +0.078 C 
ATOM     12  C   UNL     1      -4.945   4.237  25.439  0.00  0.00    +0.009 C 
ATOM     13  C   UNL     1      -5.696   4.062  25.731  0.00  0.00    +0.001 C 
ATOM     14  C   UNL     1      -5.838   3.259  25.606  0.00  0.00    +0.001 C 
ATOM     15  C   UNL     1      -5.174   2.938  25.237  0.00  0.00    +0.009 C 
ENDBRANCH   9  11
ENDBRANCH   7   8
ENDBRANCH   6   7
BRANCH   3  16
ATOM     16  N   UNL     1      -1.383   0.118  24.541  0.00  0.00    -0.209 NA
BRANCH  16  17
ATOM     17  C   UNL     1      -1.351  -0.483  25.105  0.00  0.00    +0.115 C 
BRANCH  17  18
ATOM     18  C   UNL     1      -1.466  -1.268  24.879  0.00  0.00    -0.004 A 
ATOM     19  C   UNL     1      -0.815  -1.752  24.726  0.00  0.00    -0.003 A 
ATOM     20  C   UNL     1      -0.929  -2.537  24.500  0.00  0.00    +0.000 A 
ATOM     21  C   UNL     1      -1.694  -2.838  24.427  0.00  0.00    +0.010 A 
ATOM     22  C   UNL     1      -2.344  -2.354  24.581  0.00  0.00    +0.068 A 
ATOM     23  C   UNL     1      -2.230  -1.569  24.807  0.00  0.00    +0.007 A 
BRANCH  22  24
ATOM     24  C   UNL     1      -3.109  -2.656  24.508  0.00  0.00    +0.100 C 
ATOM     25  N   UNL     1      -3.873  -2.958  24.435  0.00  0.00    -0.191 NA
ENDBRANCH  22  24
ENDBRANCH  17  18
ENDBRANCH  16  17
ENDBRANCH   3  16
TORSDOF 7
ENDMDL
MODEL 9
REMARK VINA RESULT:      -7.1     14.384     16.376
REMARK  Name = 
REMARK  7 active torsions:
REMARK  status: ('A' for Active; 'I' for Inactive)
REMARK    1  A    between atoms: C_3  and  N_16
REMARK    2  A    between atoms: C_6  and  C_7
REMARK    3  A    between atoms: C_7  and  N_8
REMARK    4  A    between atoms: C_9  and  C_11
REMARK    5  A    between atoms: N_16  and  C_17
REMARK    6  A    between atoms: C_17  and  C_18
REMARK    7  A    between atoms: C_22  and  C_24
REMARK                            x       y       z     vdW  Elec       q    Type
REMARK                         _______ _______ _______ _____ _____    ______ ____
ROOT
ATOM      1  O   UNL     1      -2.776 -10.558  14.283  0.00  0.00    -0.219 OA
ATOM      2  C   UNL     1      -3.557 -10.571  14.017  0.00  0.00    +0.199 C 
ATOM      3  C   UNL     1      -4.229 -10.646  14.489  0.00  0.00    +0.135 C 
ATOM      4  C   UNL     1      -4.889 -10.632  13.996  0.00  0.00    +0.162 C 
ATOM      5  O   UNL     1      -4.626 -10.549  13.219  0.00  0.00    -0.350 OA
ATOM      6  C   UNL     1      -3.803 -10.511  13.232  0.00  0.00    +0.169 C 
ENDROOT
BRANCH   6   7
ATOM      7  C   UNL     1      -3.311 -10.428  12.575  0.00  0.00    +0.147 C 
BRANCH   7   8
ATOM      8  N   UNL     1      -3.616 -10.138  11.865  0.00  0.00    -0.203 NA
ATOM      9  C   UNL     1      -3.144 -10.126  11.188  0.00  0.00    +0.241 C 
ATOM     10  O   UNL     1      -2.369 -10.405  11.220  0.00  0.00    -0.273 OA
BRANCH   9  11
ATOM     11  C   UNL     1      -3.449  -9.836  10.478  0.00  0.00    +0.078 C 
ATOM     12  C   UNL     1      -3.492  -9.042  10.257  0.00  0.00    +0.009 C 
ATOM     13  C   UNL     1      -3.834  -9.004   9.508  0.00  0.00    +0.001 C 
ATOM     14  C   UNL     1      -4.003  -9.775   9.265  0.00  0.00    +0.001 C 
ATOM     15  C   UNL     1      -3.765 -10.288   9.865  0.00  0.00    +0.009 C 
ENDBRANCH   9  11
ENDBRANCH   7   8
ENDBRANCH   6   7
BRANCH   3  16
ATOM     16  N   UNL     1      -4.238 -10.721  15.311  0.00  0.00    -0.209 NA
BRANCH  16  17
ATOM     17  C   UNL     1      -4.809 -10.324  15.755  0.00  0.00    +0.115 C 
BRANCH  17  18
ATOM     18  C   UNL     1      -4.865 -10.457  16.568  0.00  0.00    -0.004 A 
ATOM     19  C   UNL     1      -4.191 -10.649  17.001  0.00  0.00    -0.003 A 
ATOM     20  C   UNL     1      -4.247 -10.781  17.814  0.00  0.00    +0.000 A 
ATOM     21  C   UNL     1      -4.978 -10.721  18.192  0.00  0.00    +0.010 A 
ATOM     22  C   UNL     1      -5.652 -10.529  17.757  0.00  0.00    +0.068 A 
ATOM     23  C   UNL     1      -5.596 -10.397  16.945  0.00  0.00    +0.007 A 
BRANCH  22  24
ATOM     24  C   UNL     1      -6.383 -10.470  18.136  0.00  0.00    +0.100 C 
ATOM     25  N   UNL     1      -7.114 -10.410  18.514  0.00  0.00    -0.191 NA
ENDBRANCH  22  24
ENDBRANCH  17  18
ENDBRANCH  16  17
ENDBRANCH   3  16
TORSDOF 7
ENDMDL
MODEL 10
REMARK VINA RESULT:      -6.8     17.442     19.254
REMARK  Name = 
REMARK  7 active torsions:
REMARK  status: ('A' for Active; 'I' for Inactive)
REMARK    1  A    between atoms: C_3  and  N_16
REMARK    2  A    between atoms: C_6  and  C_7
REMARK    3  A    between atoms: C_7  and  N_8
REMARK    4  A    between atoms: C_9  and  C_11
REMARK    5  A    between atoms: N_16  and  C_17
REMARK    6  A    between atoms: C_17  and  C_18
REMARK    7  A    between atoms: C_22  and  C_24
REMARK                            x       y       z     vdW  Elec       q    Type
REMARK                         _______ _______ _______ _____ _____    ______ ____
ROOT
ATOM      1  O   UNL     1      13.106   6.909  19.370  0.00  0.00    -0.219 OA
ATOM      2  C   UNL     1      13.242   7.684  19.617  0.00  0.00    +0.199 C 
ATOM      3  C   UNL     1      13.909   7.955  20.019  0.00  0.00    +0.135 C 
ATOM      4  C   UNL     1      13.814   8.762  20.155  0.00  0.00    +0.162 C 
ATOM      5  O   UNL     1      13.089   8.991  19.838  0.00  0.00    -0.350 OA
ATOM      6  C   UNL     1      12.735   8.325  19.506  0.00  0.00    +0.169 C 
ENDROOT
BRANCH   6   7
ATOM      7  C   UNL     1      12.001   8.303  19.128  0.00  0.00    +0.147 C 
BRANCH   7   8
ATOM      8  N   UNL     1      11.943   8.502  18.329  0.00  0.00    -0.203 NA
ATOM      9  C   UNL     1      11.203   8.536  17.966  0.00  0.00    +0.241 C 
ATOM     10  O   UNL     1      10.522   8.370  18.401  0.00  0.00    -0.273 OA
BRANCH   9  11
ATOM     11  C   UNL     1      11.144   8.735  17.167  0.00  0.00    +0.078 C 
ATOM     12  C   UNL     1      10.448   8.770  16.725  0.00  0.00    +0.009 C 
ATOM     13  C   UNL     1      10.645   8.991  15.956  0.00  0.00    +0.001 C 
ATOM     14  C   UNL     1      11.463   9.094  15.922  0.00  0.00    +0.001 C 
ATOM     15  C   UNL     1      11.771   8.936  16.670  0.00  0.00    +0.009 C 
ENDBRANCH   9  11
ENDBRANCH   7   8
ENDBRANCH   6   7
BRANCH   3  16
ATOM     16  N   UNL     1      14.558   7.498  20.244  0.00  0.00    -0.209 NA
BRANCH  16  17
ATOM     17  C   UNL     1      15.293   7.854  20.362  0.00  0.00    +0.115 C 
BRANCH  17  18
ATOM     18  C   UNL     1      15.971   7.388  20.435  0.00  0.00    -0.004 A 
ATOM     19  C   UNL     1      16.398   7.391  21.141  0.00  0.00    -0.003 A 
ATOM     20  C   UNL     1      17.076   6.926  21.214  0.00  0.00    +0.000 A 
ATOM     21  C   UNL     1      17.325   6.458  20.582  0.00  0.00    +0.010 A 
ATOM     22  C   UNL     1      16.896   6.455  19.877  0.00  0.00    +0.068 A 
ATOM     23  C   UNL     1      16.220   6.920  19.804  0.00  0.00    +0.007 A 
BRANCH  22  24
ATOM     24  C   UNL     1      17.146   5.986  19.245  0.00  0.00    +0.100 C 
ATOM     25  N   UNL     1      17.395   5.518  18.614  0.00  0.00    -0.191 NA
ENDBRANCH  22  24
ENDBRANCH  17  18
ENDBRANCH  16  17
ENDBRANCH   3  16
TORSDOF 7
ENDMDL
