REMARK  Name = 
REMARK  8 active torsions:
REMARK  status: ('A' for Active; 'I' for Inactive)
REMARK    1  A    between atoms: O_2  and  C_3
REMARK    2  A    between atoms: C_6  and  C_9
REMARK    3  A    between atoms: C_11  and  C_12
REMARK    4  A    between atoms: C_12  and  C_13
REMARK    5  A    between atoms: C_18  and  C_19
REMARK    6  A    between atoms: C_19  and  C_20
REMARK    7  A    between atoms: N_22  and  C_24
REMARK    8  A    between atoms: C_24  and  C_25
REMARK                            x       y       z     vdW  Elec       q    Type
REMARK                         _______ _______ _______ _____ _____    ______ ____
ROOT
ATOM     12  C   UNL     1       0.715   0.412   0.000  0.00  0.00    +0.051 C 
ENDROOT
BRANCH  12  13
ATOM     13  C   UNL     1       1.429   0.825   0.000  0.00  0.00    +0.024 C 
ATOM     14  C   UNL     1       1.429   1.650   0.000  0.00  0.00    +0.089 C 
ATOM     15  N   UNL     1       2.143   2.062   0.000  0.00  0.00    -0.218 NA
ATOM     16  C   UNL     1       2.858   1.650   0.000  0.00  0.00    +0.089 C 
ATOM     17  C   UNL     1       2.858   0.825   0.000  0.00  0.00    +0.019 C 
ATOM     18  C   UNL     1       2.143   0.412   0.000  0.00  0.00    +0.012 C 
BRANCH  18  19
ATOM     19  C   UNL     1       2.143  -0.412   0.000  0.00  0.00    +0.085 C 
BRANCH  19  20
ATOM     20  C   UNL     1       2.858  -0.825   0.000  0.00  0.00    +0.226 C 
ATOM     21  O   UNL     1       2.858  -1.650   0.000  0.00  0.00    -0.275 OA
ATOM     22  N   UNL     1       3.572  -0.412   0.000  0.00  0.00    -0.266 N 
ATOM     23  C   UNL     1       3.572   0.412   0.000  0.00  0.00    +0.116 C 
BRANCH  22  24
ATOM     24  C   UNL     1       4.287  -0.825   0.000  0.00  0.00    +0.172 C 
BRANCH  24  25
ATOM     25  C   UNL     1       5.001  -0.412   0.000  0.00  0.00    -0.056 C 
ATOM     26  C   UNL     1       5.716   0.000   0.000  0.00  0.00    -0.012 C 
ENDBRANCH  24  25
ENDBRANCH  22  24
ENDBRANCH  19  20
ENDBRANCH  18  19
ENDBRANCH  12  13
BRANCH  12  11
ATOM      9  C   UNL     1      -0.893   1.817   0.000  0.00  0.00    +0.177 A 
ATOM     10  C   UNL     1      -0.086   1.645   0.000  0.00  0.00    +0.058 A 
ATOM     11  C   UNL     1       0.000   0.825   0.000  0.00  0.00    +0.101 A 
ATOM     27  N   UNL     1      -0.754   0.489   0.000  0.00  0.00    -0.081 NA
ATOM     28  O   UNL     1      -1.306   1.103   0.000  0.00  0.00    -0.354 OA
BRANCH   9   6
ATOM      3  C   UNL     1      -1.900   4.078   0.000  0.00  0.00    +0.139 A 
ATOM      4  C   UNL     1      -1.079   3.992   0.000  0.00  0.00    +0.037 A 
ATOM      5  C   UNL     1      -0.744   3.238   0.000  0.00  0.00    +0.006 A 
ATOM      6  C   UNL     1      -1.229   2.571   0.000  0.00  0.00    +0.037 A 
ATOM      7  C   UNL     1      -2.049   2.657   0.000  0.00  0.00    +0.006 A 
ATOM      8  C   UNL     1      -2.385   3.411   0.000  0.00  0.00    +0.037 A 
BRANCH   3   2
ATOM      1  C   UNL     1      -3.056   4.918   0.000  0.00  0.00    +0.252 C 
ATOM      2  O   UNL     1      -2.235   4.832   0.000  0.00  0.00    -0.471 OA
ENDBRANCH   3   2
ENDBRANCH   9   6
ENDBRANCH  12  11
TORSDOF 8
