MODEL 1
REMARK VINA RESULT:     -11.1      0.000      0.000
REMARK  Name = 
REMARK  6 active torsions:
REMARK  status: ('A' for Active; 'I' for Inactive)
REMARK    1  A    between atoms: C_2  and  C_4
REMARK    2  A    between atoms: C_4  and  N_5
REMARK    3  A    between atoms: C_9  and  C_10
REMARK    4  A    between atoms: C_12  and  C_15
REMARK    5  A    between atoms: C_18  and  O_19
REMARK    6  A    between atoms: O_19  and  C_20
REMARK                            x       y       z     vdW  Elec       q    Type
REMARK                         _______ _______ _______ _____ _____    ______ ____
ROOT
ATOM     10  C   UNL     1      -3.346   3.147  24.814  0.00  0.00    +0.251 A 
ATOM     11  N   UNL     1      -3.433   2.348  25.003  0.00  0.00    -0.190 NA
ATOM     12  C   UNL     1      -3.768   1.967  24.354  0.00  0.00    +0.205 A 
ATOM     13  N   UNL     1      -3.890   2.529  23.763  0.00  0.00    -0.056 NA
ATOM     14  O   UNL     1      -3.629   3.259  24.047  0.00  0.00    -0.336 OA
ENDROOT
BRANCH  12  15
ATOM     15  C   UNL     1      -3.951   1.164  24.304  0.00  0.00    +0.058 A 
ATOM     16  C   UNL     1      -4.531   0.841  24.795  0.00  0.00    +0.010 A 
ATOM     17  C   UNL     1      -4.715   0.039  24.745  0.00  0.00    +0.058 A 
ATOM     18  C   UNL     1      -4.319  -0.441  24.204  0.00  0.00    +0.225 A 
ATOM     26  N   UNL     1      -3.739  -0.120  23.713  0.00  0.00    -0.210 NA
ATOM     27  C   UNL     1      -3.556   0.683  23.763  0.00  0.00    +0.105 A 
BRANCH  18  19
ATOM     19  O   UNL     1      -4.503  -1.245  24.154  0.00  0.00    -0.464 OA
BRANCH  19  20
ATOM     20  C   UNL     1      -3.969  -1.808  24.434  0.00  0.00    +0.168 C 
ATOM     21  C   UNL     1      -3.777  -1.832  25.236  0.00  0.00    +0.044 C 
ATOM     22  C   UNL     1      -3.243  -2.395  25.516  0.00  0.00    +0.004 C 
ATOM     23  C   UNL     1      -2.901  -2.935  24.993  0.00  0.00    +0.000 C 
ATOM     24  C   UNL     1      -3.093  -2.911  24.191  0.00  0.00    +0.004 C 
ATOM     25  C   UNL     1      -3.627  -2.347  23.911  0.00  0.00    +0.044 C 
ENDBRANCH  19  20
ENDBRANCH  18  19
ENDBRANCH  12  15
BRANCH  10   9
ATOM      5  N   UNL     1      -2.243   3.969  25.333  0.00  0.00    -0.266 NA
ATOM      6  C   UNL     1      -2.176   4.565  25.899  0.00  0.00    +0.073 C 
ATOM      7  C   UNL     1      -2.925   4.696  26.221  0.00  0.00    +0.019 C 
ATOM      8  C   UNL     1      -3.454   4.180  25.853  0.00  0.00    +0.027 C 
ATOM      9  C   UNL     1      -3.033   3.731  25.304  0.00  0.00    +0.138 C 
BRANCH   5   4
ATOM      4  C   UNL     1      -1.628   3.664  24.876  0.00  0.00    +0.072 C 
BRANCH   4   2
ATOM      1  C   UNL     1      -0.581   4.625  24.727  0.00  0.00    +0.001 C 
ATOM      2  C   UNL     1      -0.851   3.901  25.017  0.00  0.00    +0.016 C 
ATOM      3  C   UNL     1      -0.344   3.414  25.450  0.00  0.00    +0.001 C 
ENDBRANCH   4   2
ENDBRANCH   5   4
ENDBRANCH  10   9
TORSDOF 6
ENDMDL
MODEL 2
REMARK VINA RESULT:     -10.5      1.868      2.600
REMARK  Name = 
REMARK  6 active torsions:
REMARK  status: ('A' for Active; 'I' for Inactive)
REMARK    1  A    between atoms: C_2  and  C_4
REMARK    2  A    between atoms: C_4  and  N_5
REMARK    3  A    between atoms: C_9  and  C_10
REMARK    4  A    between atoms: C_12  and  C_15
REMARK    5  A    between atoms: C_18  and  O_19
REMARK    6  A    between atoms: O_19  and  C_20
REMARK                            x       y       z     vdW  Elec       q    Type
REMARK                         _______ _______ _______ _____ _____    ______ ____
ROOT
ATOM     10  C   UNL     1      -0.882   2.761  25.463  0.00  0.00    +0.251 A 
ATOM     11  N   UNL     1      -1.227   2.100  25.109  0.00  0.00    -0.190 NA
ATOM     12  C   UNL     1      -0.872   1.426  25.423  0.00  0.00    +0.205 A 
ATOM     13  N   UNL     1      -0.306   1.670  25.972  0.00  0.00    -0.056 NA
ATOM     14  O   UNL     1      -0.312   2.494  25.997  0.00  0.00    -0.336 OA
ENDROOT
BRANCH  12  15
ATOM     15  C   UNL     1      -1.049   0.646  25.224  0.00  0.00    +0.058 A 
ATOM     16  C   UNL     1      -1.263   0.109  25.813  0.00  0.00    +0.010 A 
ATOM     17  C   UNL     1      -1.441  -0.672  25.616  0.00  0.00    +0.058 A 
ATOM     18  C   UNL     1      -1.405  -0.916  24.829  0.00  0.00    +0.225 A 
ATOM     26  N   UNL     1      -1.190  -0.381  24.239  0.00  0.00    -0.210 NA
ATOM     27  C   UNL     1      -1.013   0.401  24.437  0.00  0.00    +0.105 A 
BRANCH  18  19
ATOM     19  O   UNL     1      -1.582  -1.698  24.631  0.00  0.00    -0.464 OA
BRANCH  19  20
ATOM     20  C   UNL     1      -2.369  -1.941  24.579  0.00  0.00    +0.168 C 
ATOM     21  C   UNL     1      -2.854  -1.645  23.981  0.00  0.00    +0.044 C 
ATOM     22  C   UNL     1      -3.640  -1.888  23.928  0.00  0.00    +0.004 C 
ATOM     23  C   UNL     1      -3.941  -2.428  24.474  0.00  0.00    +0.000 C 
ATOM     24  C   UNL     1      -3.456  -2.725  25.072  0.00  0.00    +0.004 C 
ATOM     25  C   UNL     1      -2.670  -2.482  25.125  0.00  0.00    +0.044 C 
ENDBRANCH  19  20
ENDBRANCH  18  19
ENDBRANCH  12  15
BRANCH  10   9
ATOM      5  N   UNL     1      -1.795   3.914  25.472  0.00  0.00    -0.266 NA
ATOM      6  C   UNL     1      -1.742   4.701  25.231  0.00  0.00    +0.073 C 
ATOM      7  C   UNL     1      -0.986   4.822  24.921  0.00  0.00    +0.019 C 
ATOM      8  C   UNL     1      -0.573   4.110  24.970  0.00  0.00    +0.027 C 
ATOM      9  C   UNL     1      -1.072   3.548  25.311  0.00  0.00    +0.138 C 
BRANCH   5   4
ATOM      4  C   UNL     1      -2.453   3.555  25.814  0.00  0.00    +0.072 C 
BRANCH   4   2
ATOM      1  C   UNL     1      -3.728   3.957  25.309  0.00  0.00    +0.001 C 
ATOM      2  C   UNL     1      -3.155   3.979  25.902  0.00  0.00    +0.016 C 
ATOM      3  C   UNL     1      -3.284   4.425  26.585  0.00  0.00    +0.001 C 
ENDBRANCH   4   2
ENDBRANCH   5   4
ENDBRANCH  10   9
TORSDOF 6
ENDMDL
MODEL 3
REMARK VINA RESULT:     -10.2      1.954      5.859
REMARK  Name = 
REMARK  6 active torsions:
REMARK  status: ('A' for Active; 'I' for Inactive)
REMARK    1  A    between atoms: C_2  and  C_4
REMARK    2  A    between atoms: C_4  and  N_5
REMARK    3  A    between atoms: C_9  and  C_10
REMARK    4  A    between atoms: C_12  and  C_15
REMARK    5  A    between atoms: C_18  and  O_19
REMARK    6  A    between atoms: O_19  and  C_20
REMARK                            x       y       z     vdW  Elec       q    Type
REMARK                         _______ _______ _______ _____ _____    ______ ____
ROOT
ATOM     10  C   UNL     1      -1.306  -0.943  24.555  0.00  0.00    +0.251 A 
ATOM     11  N   UNL     1      -1.370  -0.213  24.932  0.00  0.00    -0.190 NA
ATOM     12  C   UNL     1      -0.786   0.284  24.630  0.00  0.00    +0.205 A 
ATOM     13  N   UNL     1      -0.359  -0.139  24.064  0.00  0.00    -0.056 NA
ATOM     14  O   UNL     1      -0.681  -0.898  24.018  0.00  0.00    -0.336 OA
ENDROOT
BRANCH  12  15
ATOM     15  C   UNL     1      -0.651   1.067  24.853  0.00  0.00    +0.058 A 
ATOM     16  C   UNL     1      -0.663   1.276  25.651  0.00  0.00    +0.010 A 
ATOM     17  C   UNL     1      -0.527   2.058  25.875  0.00  0.00    +0.058 A 
ATOM     18  C   UNL     1      -0.380   2.632  25.300  0.00  0.00    +0.225 A 
ATOM     26  N   UNL     1      -0.368   2.423  24.502  0.00  0.00    -0.210 NA
ATOM     27  C   UNL     1      -0.503   1.640  24.279  0.00  0.00    +0.105 A 
BRANCH  18  19
ATOM     19  O   UNL     1      -0.245   3.414  25.524  0.00  0.00    -0.464 OA
BRANCH  19  20
ATOM     20  C   UNL     1      -0.835   3.981  25.420  0.00  0.00    +0.168 C 
ATOM     21  C   UNL     1      -1.568   3.886  25.788  0.00  0.00    +0.044 C 
ATOM     22  C   UNL     1      -2.158   4.453  25.684  0.00  0.00    +0.004 C 
ATOM     23  C   UNL     1      -2.016   5.115  25.212  0.00  0.00    +0.000 C 
ATOM     24  C   UNL     1      -1.283   5.210  24.844  0.00  0.00    +0.004 C 
ATOM     25  C   UNL     1      -0.693   4.643  24.948  0.00  0.00    +0.044 C 
ENDBRANCH  19  20
ENDBRANCH  18  19
ENDBRANCH  12  15
BRANCH  10   9
ATOM      5  N   UNL     1      -2.588  -1.662  24.526  0.00  0.00    -0.266 NA
ATOM      6  C   UNL     1      -2.838  -2.416  24.746  0.00  0.00    +0.073 C 
ATOM      7  C   UNL     1      -2.187  -2.824  25.046  0.00  0.00    +0.019 C 
ATOM      8  C   UNL     1      -1.533  -2.322  25.011  0.00  0.00    +0.027 C 
ATOM      9  C   UNL     1      -1.781  -1.603  24.689  0.00  0.00    +0.138 C 
BRANCH   5   4
ATOM      4  C   UNL     1      -3.060  -1.071  24.200  0.00  0.00    +0.072 C 
BRANCH   4   2
ATOM      1  C   UNL     1      -4.236  -1.693  23.677  0.00  0.00    +0.001 C 
ATOM      2  C   UNL     1      -3.881  -1.155  24.192  0.00  0.00    +0.016 C 
ATOM      3  C   UNL     1      -4.347  -0.700  24.699  0.00  0.00    +0.001 C 
ENDBRANCH   4   2
ENDBRANCH   5   4
ENDBRANCH  10   9
TORSDOF 6
ENDMDL
MODEL 4
REMARK VINA RESULT:      -9.7      0.988      5.434
REMARK  Name = 
REMARK  6 active torsions:
REMARK  status: ('A' for Active; 'I' for Inactive)
REMARK    1  A    between atoms: C_2  and  C_4
REMARK    2  A    between atoms: C_4  and  N_5
REMARK    3  A    between atoms: C_9  and  C_10
REMARK    4  A    between atoms: C_12  and  C_15
REMARK    5  A    between atoms: C_18  and  O_19
REMARK    6  A    between atoms: O_19  and  C_20
REMARK                            x       y       z     vdW  Elec       q    Type
REMARK                         _______ _______ _______ _____ _____    ______ ____
ROOT
ATOM     10  C   UNL     1      -4.020  -0.626  24.595  0.00  0.00    +0.251 A 
ATOM     11  N   UNL     1      -3.692   0.058  24.271  0.00  0.00    -0.190 NA
ATOM     12  C   UNL     1      -3.921   0.698  24.738  0.00  0.00    +0.205 A 
ATOM     13  N   UNL     1      -4.392   0.410  25.352  0.00  0.00    -0.056 NA
ATOM     14  O   UNL     1      -4.453  -0.408  25.264  0.00  0.00    -0.336 OA
ENDROOT
BRANCH  12  15
ATOM     15  C   UNL     1      -3.717   1.488  24.614  0.00  0.00    +0.058 A 
ATOM     16  C   UNL     1      -3.323   1.708  23.923  0.00  0.00    +0.010 A 
ATOM     17  C   UNL     1      -3.118   2.497  23.799  0.00  0.00    +0.058 A 
ATOM     18  C   UNL     1      -3.307   3.066  24.365  0.00  0.00    +0.225 A 
ATOM     26  N   UNL     1      -3.701   2.847  25.055  0.00  0.00    -0.210 NA
ATOM     27  C   UNL     1      -3.906   2.057  25.180  0.00  0.00    +0.105 A 
BRANCH  18  19
ATOM     19  O   UNL     1      -3.102   3.856  24.240  0.00  0.00    -0.464 OA
BRANCH  19  20
ATOM     20  C   UNL     1      -2.400   4.154  24.553  0.00  0.00    +0.168 C 
ATOM     21  C   UNL     1      -1.677   3.953  24.210  0.00  0.00    +0.044 C 
ATOM     22  C   UNL     1      -0.974   4.251  24.523  0.00  0.00    +0.004 C 
ATOM     23  C   UNL     1      -0.995   4.751  25.180  0.00  0.00    +0.000 C 
ATOM     24  C   UNL     1      -1.718   4.952  25.523  0.00  0.00    +0.004 C 
ATOM     25  C   UNL     1      -2.421   4.654  25.210  0.00  0.00    +0.044 C 
ENDBRANCH  19  20
ENDBRANCH  18  19
ENDBRANCH  12  15
BRANCH  10   9
ATOM      5  N   UNL     1      -3.276  -1.880  24.413  0.00  0.00    -0.266 NA
ATOM      6  C   UNL     1      -3.424  -2.595  24.029  0.00  0.00    +0.073 C 
ATOM      7  C   UNL     1      -4.172  -2.548  23.682  0.00  0.00    +0.019 C 
ATOM      8  C   UNL     1      -4.486  -1.805  23.852  0.00  0.00    +0.027 C 
ATOM      9  C   UNL     1      -3.933  -1.392  24.304  0.00  0.00    +0.138 C 
BRANCH   5   4
ATOM      4  C   UNL     1      -2.593  -1.688  24.832  0.00  0.00    +0.072 C 
BRANCH   4   2
ATOM      1  C   UNL     1      -1.314  -1.985  24.269  0.00  0.00    +0.001 C 
ATOM      2  C   UNL     1      -1.929  -2.175  24.785  0.00  0.00    +0.016 C 
ATOM      3  C   UNL     1      -1.880  -2.851  25.256  0.00  0.00    +0.001 C 
ENDBRANCH   4   2
ENDBRANCH   5   4
ENDBRANCH  10   9
TORSDOF 6
ENDMDL
MODEL 5
REMARK VINA RESULT:      -9.5      2.567      4.705
REMARK  Name = 
REMARK  6 active torsions:
REMARK  status: ('A' for Active; 'I' for Inactive)
REMARK    1  A    between atoms: C_2  and  C_4
REMARK    2  A    between atoms: C_4  and  N_5
REMARK    3  A    between atoms: C_9  and  C_10
REMARK    4  A    between atoms: C_12  and  C_15
REMARK    5  A    between atoms: C_18  and  O_19
REMARK    6  A    between atoms: O_19  and  C_20
REMARK                            x       y       z     vdW  Elec       q    Type
REMARK                         _______ _______ _______ _____ _____    ______ ____
ROOT
ATOM     10  C   UNL     1      -0.470   1.119  24.077  0.00  0.00    +0.251 A 
ATOM     11  N   UNL     1      -1.284   1.241  24.024  0.00  0.00    -0.190 NA
ATOM     12  C   UNL     1      -1.457   1.970  24.365  0.00  0.00    +0.205 A 
ATOM     13  N   UNL     1      -0.749   2.302  24.630  0.00  0.00    -0.056 NA
ATOM     14  O   UNL     1      -0.139   1.775  24.453  0.00  0.00    -0.336 OA
ENDROOT
BRANCH  12  15
ATOM     15  C   UNL     1      -2.205   2.311  24.431  0.00  0.00    +0.058 A 
ATOM     16  C   UNL     1      -2.730   2.277  23.795  0.00  0.00    +0.010 A 
ATOM     17  C   UNL     1      -3.479   2.618  23.860  0.00  0.00    +0.058 A 
ATOM     18  C   UNL     1      -3.702   2.992  24.560  0.00  0.00    +0.225 A 
ATOM     26  N   UNL     1      -3.178   3.027  25.196  0.00  0.00    -0.210 NA
ATOM     27  C   UNL     1      -2.429   2.686  25.131  0.00  0.00    +0.105 A 
BRANCH  18  19
ATOM     19  O   UNL     1      -4.451   3.333  24.625  0.00  0.00    -0.464 OA
BRANCH  19  20
ATOM     20  C   UNL     1      -5.058   2.926  25.007  0.00  0.00    +0.168 C 
ATOM     21  C   UNL     1      -5.443   2.304  24.624  0.00  0.00    +0.044 C 
ATOM     22  C   UNL     1      -6.050   1.896  25.007  0.00  0.00    +0.004 C 
ATOM     23  C   UNL     1      -6.272   2.111  25.772  0.00  0.00    +0.000 C 
ATOM     24  C   UNL     1      -5.887   2.733  26.155  0.00  0.00    +0.004 C 
ATOM     25  C   UNL     1      -5.280   3.140  25.772  0.00  0.00    +0.044 C 
ENDBRANCH  19  20
ENDBRANCH  18  19
ENDBRANCH  12  15
BRANCH  10   9
ATOM      5  N   UNL     1      -0.145  -0.315  24.077  0.00  0.00    -0.266 NA
ATOM      6  C   UNL     1       0.373  -0.795  23.652  0.00  0.00    +0.073 C 
ATOM      7  C   UNL     1       0.781  -0.318  23.116  0.00  0.00    +0.019 C 
ATOM      8  C   UNL     1       0.514   0.457  23.210  0.00  0.00    +0.027 C 
ATOM      9  C   UNL     1      -0.058   0.459  23.805  0.00  0.00    +0.138 C 
BRANCH   5   4
ATOM      4  C   UNL     1      -0.660  -0.564  24.671  0.00  0.00    +0.072 C 
BRANCH   4   2
ATOM      1  C   UNL     1      -1.307  -1.816  24.434  0.00  0.00    +0.001 C 
ATOM      2  C   UNL     1      -0.742  -1.368  24.836  0.00  0.00    +0.016 C 
ATOM      3  C   UNL     1      -0.259  -1.725  25.403  0.00  0.00    +0.001 C 
ENDBRANCH   4   2
ENDBRANCH   5   4
ENDBRANCH  10   9
TORSDOF 6
ENDMDL
MODEL 6
REMARK VINA RESULT:      -8.3     16.196     19.068
REMARK  Name = 
REMARK  6 active torsions:
REMARK  status: ('A' for Active; 'I' for Inactive)
REMARK    1  A    between atoms: C_2  and  C_4
REMARK    2  A    between atoms: C_4  and  N_5
REMARK    3  A    between atoms: C_9  and  C_10
REMARK    4  A    between atoms: C_12  and  C_15
REMARK    5  A    between atoms: C_18  and  O_19
REMARK    6  A    between atoms: O_19  and  C_20
REMARK                            x       y       z     vdW  Elec       q    Type
REMARK                         _______ _______ _______ _____ _____    ______ ____
ROOT
ATOM     10  C   UNL     1      15.309   7.034  19.093  0.00  0.00    +0.251 A 
ATOM     11  N   UNL     1      14.632   7.042  19.565  0.00  0.00    -0.190 NA
ATOM     12  C   UNL     1      14.020   7.383  19.130  0.00  0.00    +0.205 A 
ATOM     13  N   UNL     1      14.318   7.585  18.388  0.00  0.00    -0.056 NA
ATOM     14  O   UNL     1      15.114   7.370  18.365  0.00  0.00    -0.336 OA
ENDROOT
BRANCH  12  15
ATOM     15  C   UNL     1      13.246   7.500  19.390  0.00  0.00    +0.058 A 
ATOM     16  C   UNL     1      12.925   8.261  19.398  0.00  0.00    +0.010 A 
ATOM     17  C   UNL     1      12.152   8.379  19.658  0.00  0.00    +0.058 A 
ATOM     18  C   UNL     1      11.699   7.738  19.910  0.00  0.00    +0.225 A 
ATOM     26  N   UNL     1      12.019   6.978  19.903  0.00  0.00    -0.210 NA
ATOM     27  C   UNL     1      12.793   6.859  19.643  0.00  0.00    +0.105 A 
BRANCH  18  19
ATOM     19  O   UNL     1      10.924   7.857  20.170  0.00  0.00    -0.464 OA
BRANCH  19  20
ATOM     20  C   UNL     1      10.779   8.053  20.958  0.00  0.00    +0.168 C 
ATOM     21  C   UNL     1      10.780   8.844  21.194  0.00  0.00    +0.044 C 
ATOM     22  C   UNL     1      10.635   9.039  21.982  0.00  0.00    +0.004 C 
ATOM     23  C   UNL     1      10.489   8.444  22.534  0.00  0.00    +0.000 C 
ATOM     24  C   UNL     1      10.489   7.653  22.299  0.00  0.00    +0.004 C 
ATOM     25  C   UNL     1      10.634   7.457  21.511  0.00  0.00    +0.044 C 
ENDBRANCH  19  20
ENDBRANCH  18  19
ENDBRANCH  12  15
BRANCH  10   9
ATOM      5  N   UNL     1      16.546   7.059  19.886  0.00  0.00    -0.266 NA
ATOM      6  C   UNL     1      17.227   6.594  19.919  0.00  0.00    +0.073 C 
ATOM      7  C   UNL     1      17.150   5.990  19.362  0.00  0.00    +0.019 C 
ATOM      8  C   UNL     1      16.422   6.081  18.985  0.00  0.00    +0.027 C 
ATOM      9  C   UNL     1      16.048   6.742  19.309  0.00  0.00    +0.138 C 
BRANCH   5   4
ATOM      4  C   UNL     1      16.391   7.723  20.348  0.00  0.00    +0.072 C 
BRANCH   4   2
ATOM      1  C   UNL     1      17.405   8.637  20.769  0.00  0.00    +0.001 C 
ATOM      2  C   UNL     1      16.939   7.972  20.912  0.00  0.00    +0.016 C 
ATOM      3  C   UNL     1      17.020   7.555  21.620  0.00  0.00    +0.001 C 
ENDBRANCH   4   2
ENDBRANCH   5   4
ENDBRANCH  10   9
TORSDOF 6
ENDMDL
