REMARK  Name = 
REMARK  6 active torsions:
REMARK  status: ('A' for Active; 'I' for Inactive)
REMARK    1  A    between atoms: O_2  and  C_3
REMARK    2  A    between atoms: C_6  and  C_9
REMARK    3  A    between atoms: N_11  and  C_12
REMARK    4  A    between atoms: C_14  and  C_17
REMARK    5  A    between atoms: N_20  and  C_21
REMARK    6  A    between atoms: C_21  and  C_22
REMARK                            x       y       z     vdW  Elec       q    Type
REMARK                         _______ _______ _______ _____ _____    ______ ____
ROOT
ATOM     12  C   UNL     1       2.943  -3.335   0.000  0.00  0.00    +0.118 C 
ATOM     13  C   UNL     1       3.611  -3.820   0.000  0.00  0.00    +0.035 C 
ATOM     14  C   UNL     1       3.356  -4.605   0.000  0.00  0.00    +0.048 C 
ATOM     15  C   UNL     1       2.531  -4.605   0.000  0.00  0.00    -0.025 C 
ATOM     16  C   UNL     1       2.276  -3.820   0.000  0.00  0.00    -0.009 C 
ENDROOT
BRANCH  14  17
ATOM     17  C   UNL     1       3.841  -5.272   0.000  0.00  0.00    +0.010 A 
ATOM     18  C   UNL     1       4.666  -5.272   0.000  0.00  0.00    +0.054 A 
ATOM     19  C   UNL     1       5.151  -4.605   0.000  0.00  0.00    +0.051 C 
ATOM     20  N   UNL     1       4.920  -6.057   0.000  0.00  0.00    -0.251 N 
ATOM     28  N   UNL     1       4.253  -6.542   0.000  0.00  0.00    -0.174 NA
ATOM     29  C   UNL     1       3.586  -6.057   0.000  0.00  0.00    +0.076 A 
ATOM     30  C   UNL     1       2.801  -6.312   0.000  0.00  0.00    +0.054 C 
BRANCH  20  21
ATOM     21  C   UNL     1       5.705  -6.312   0.000  0.00  0.00    +0.153 C 
BRANCH  21  22
ATOM     22  C   UNL     1       5.877  -7.119   0.000  0.00  0.00    +0.002 A 
ATOM     23  C   UNL     1       6.661  -7.373   0.000  0.00  0.00    -0.002 A 
ATOM     24  C   UNL     1       6.833  -8.180   0.000  0.00  0.00    -0.000 A 
ATOM     25  C   UNL     1       6.220  -8.732   0.000  0.00  0.00    -0.000 A 
ATOM     26  C   UNL     1       5.435  -8.477   0.000  0.00  0.00    -0.000 A 
ATOM     27  C   UNL     1       5.264  -7.671   0.000  0.00  0.00    -0.002 A 
ENDBRANCH  21  22
ENDBRANCH  20  21
ENDBRANCH  14  17
BRANCH  12  11
ATOM      9  C   UNL     1       2.229  -2.098   0.000  0.00  0.00    +0.265 C 
ATOM     10  O   UNL     1       1.514  -2.510   0.000  0.00  0.00    -0.268 OA
ATOM     11  N   UNL     1       2.943  -2.510   0.000  0.00  0.00    -0.199 NA
BRANCH   9   6
ATOM      3  C   UNL     1       2.229   0.378   0.000  0.00  0.00    +0.139 A 
ATOM      4  C   UNL     1       2.943  -0.035   0.000  0.00  0.00    +0.037 A 
ATOM      5  C   UNL     1       2.943  -0.860   0.000  0.00  0.00    +0.008 A 
ATOM      6  C   UNL     1       2.229  -1.272   0.000  0.00  0.00    +0.055 A 
ATOM      7  C   UNL     1       1.514  -0.860   0.000  0.00  0.00    +0.008 A 
ATOM      8  C   UNL     1       1.514  -0.035   0.000  0.00  0.00    +0.037 A 
BRANCH   3   2
ATOM      1  C   UNL     1       1.514   1.615   0.000  0.00  0.00    +0.252 C 
ATOM      2  O   UNL     1       2.229   1.202   0.000  0.00  0.00    -0.471 OA
ENDBRANCH   3   2
ENDBRANCH   9   6
ENDBRANCH  12  11
TORSDOF 6
