MODEL 1
REMARK VINA RESULT:      -9.3      0.000      0.000
REMARK  Name = 
REMARK  5 active torsions:
REMARK  status: ('A' for Active; 'I' for Inactive)
REMARK    1  A    between atoms: C_1  and  N_2
REMARK    2  A    between atoms: C_1  and  C_23
REMARK    3  A    between atoms: C_6  and  C_7
REMARK    4  A    between atoms: C_9  and  C_12
REMARK    5  A    between atoms: C_15  and  N_18
REMARK                            x       y       z     vdW  Elec       q    Type
REMARK                         _______ _______ _______ _____ _____    ______ ____
ROOT
ATOM      7  C   UNL     1      -3.907   2.753  25.060  0.00  0.00    +0.251 A 
ATOM      8  N   UNL     1      -3.708   1.965  25.205  0.00  0.00    -0.190 NA
ATOM      9  C   UNL     1      -4.044   1.504  24.611  0.00  0.00    +0.205 A 
ATOM     10  N   UNL     1      -4.450   2.005  24.097  0.00  0.00    -0.056 NA
ATOM     11  O   UNL     1      -4.365   2.776  24.375  0.00  0.00    -0.336 OA
ENDROOT
BRANCH   9  12
ATOM     12  C   UNL     1      -3.984   0.683  24.541  0.00  0.00    +0.058 A 
ATOM     13  C   UNL     1      -4.329   0.196  25.110  0.00  0.00    +0.008 A 
ATOM     14  C   UNL     1      -4.270  -0.625  25.041  0.00  0.00    +0.038 A 
ATOM     15  C   UNL     1      -3.865  -0.956  24.403  0.00  0.00    +0.149 A 
ATOM     16  N   UNL     1      -3.520  -0.469  23.834  0.00  0.00    -0.226 NA
ATOM     17  C   UNL     1      -3.580   0.352  23.903  0.00  0.00    +0.104 A 
BRANCH  15  18
ATOM     18  N   UNL     1      -3.805  -1.777  24.334  0.00  0.00    -0.271 N 
ATOM     19  C   UNL     1      -3.293  -2.264  24.760  0.00  0.00    +0.104 A 
ATOM     20  C   UNL     1      -3.419  -3.042  24.516  0.00  0.00    +0.120 A 
ATOM     21  N   UNL     1      -4.008  -3.036  23.938  0.00  0.00    -0.222 NA
ATOM     22  C   UNL     1      -4.247  -2.254  23.826  0.00  0.00    +0.184 A 
ENDBRANCH  15  18
ENDBRANCH   9  12
BRANCH   7   6
ATOM      2  N   UNL     1      -3.009   3.861  25.414  0.00  0.00    -0.260 NA
ATOM      3  C   UNL     1      -3.006   4.448  25.993  0.00  0.00    +0.073 C 
ATOM      4  C   UNL     1      -3.682   4.352  26.456  0.00  0.00    +0.019 C 
ATOM      5  C   UNL     1      -4.102   3.705  26.163  0.00  0.00    +0.027 C 
ATOM      6  C   UNL     1      -3.685   3.401  25.518  0.00  0.00    +0.138 C 
BRANCH   2   1
ATOM      1  C   UNL     1      -2.434   3.752  24.832  0.00  0.00    +0.139 C 
BRANCH   1  23
ATOM     23  C   UNL     1      -1.698   4.119  24.904  0.00  0.00    +0.155 A 
ATOM     24  N   UNL     1      -0.997   3.756  25.141  0.00  0.00    -0.226 NA
ATOM     25  C   UNL     1      -0.400   4.325  25.136  0.00  0.00    +0.121 A 
ATOM     26  C   UNL     1      -0.733   5.041  24.895  0.00  0.00    +0.121 A 
ATOM     27  N   UNL     1      -1.536   4.914  24.752  0.00  0.00    -0.226 NA
ENDBRANCH   1  23
ENDBRANCH   2   1
ENDBRANCH   7   6
TORSDOF 5
ENDMDL
MODEL 2
REMARK VINA RESULT:      -8.6      2.019      6.042
REMARK  Name = 
REMARK  5 active torsions:
REMARK  status: ('A' for Active; 'I' for Inactive)
REMARK    1  A    between atoms: C_1  and  N_2
REMARK    2  A    between atoms: C_1  and  C_23
REMARK    3  A    between atoms: C_6  and  C_7
REMARK    4  A    between atoms: C_9  and  C_12
REMARK    5  A    between atoms: C_15  and  N_18
REMARK                            x       y       z     vdW  Elec       q    Type
REMARK                         _______ _______ _______ _____ _____    ______ ____
ROOT
ATOM      7  C   UNL     1      -1.177  -0.500  25.316  0.00  0.00    +0.251 A 
ATOM      8  N   UNL     1      -1.198   0.246  24.964  0.00  0.00    -0.190 NA
ATOM      9  C   UNL     1      -1.163   0.811  25.564  0.00  0.00    +0.205 A 
ATOM     10  N   UNL     1      -1.120   0.414  26.286  0.00  0.00    -0.056 NA
ATOM     11  O   UNL     1      -1.128  -0.395  26.132  0.00  0.00    -0.336 OA
ENDROOT
BRANCH   9  12
ATOM     12  C   UNL     1      -1.170   1.630  25.460  0.00  0.00    +0.058 A 
ATOM     13  C   UNL     1      -0.593   2.096  25.822  0.00  0.00    +0.008 A 
ATOM     14  C   UNL     1      -0.599   2.915  25.718  0.00  0.00    +0.038 A 
ATOM     15  C   UNL     1      -1.183   3.267  25.253  0.00  0.00    +0.149 A 
ATOM     16  N   UNL     1      -1.760   2.801  24.892  0.00  0.00    -0.226 NA
ATOM     17  C   UNL     1      -1.753   1.982  24.995  0.00  0.00    +0.104 A 
BRANCH  15  18
ATOM     18  N   UNL     1      -1.190   4.085  25.149  0.00  0.00    -0.271 N 
ATOM     19  C   UNL     1      -1.805   4.596  25.356  0.00  0.00    +0.104 A 
ATOM     20  C   UNL     1      -1.578   5.363  25.155  0.00  0.00    +0.120 A 
ATOM     21  N   UNL     1      -0.823   5.327  24.824  0.00  0.00    -0.222 NA
ATOM     22  C   UNL     1      -0.583   4.537  24.820  0.00  0.00    +0.184 A 
ENDBRANCH  15  18
ENDBRANCH   9  12
BRANCH   7   6
ATOM      2  N   UNL     1      -1.874  -1.676  24.777  0.00  0.00    -0.260 NA
ATOM      3  C   UNL     1      -1.645  -2.353  24.365  0.00  0.00    +0.073 C 
ATOM      4  C   UNL     1      -0.828  -2.319  24.253  0.00  0.00    +0.019 C 
ATOM      5  C   UNL     1      -0.553  -1.620  24.596  0.00  0.00    +0.027 C 
ATOM      6  C   UNL     1      -1.200  -1.223  24.919  0.00  0.00    +0.138 C 
BRANCH   2   1
ATOM      1  C   UNL     1      -2.643  -1.486  25.006  0.00  0.00    +0.139 C 
BRANCH   1  23
ATOM     23  C   UNL     1      -3.286  -1.810  24.602  0.00  0.00    +0.155 A 
ATOM     24  N   UNL     1      -3.583  -2.573  24.695  0.00  0.00    -0.226 NA
ATOM     25  C   UNL     1      -4.225  -2.662  24.185  0.00  0.00    +0.121 A 
ATOM     26  C   UNL     1      -4.326  -1.953  23.776  0.00  0.00    +0.121 A 
ATOM     27  N   UNL     1      -3.745  -1.425  24.033  0.00  0.00    -0.226 NA
ENDBRANCH   1  23
ENDBRANCH   2   1
ENDBRANCH   7   6
TORSDOF 5
ENDMDL
MODEL 3
REMARK VINA RESULT:      -8.5      3.213      4.440
REMARK  Name = 
REMARK  5 active torsions:
REMARK  status: ('A' for Active; 'I' for Inactive)
REMARK    1  A    between atoms: C_1  and  N_2
REMARK    2  A    between atoms: C_1  and  C_23
REMARK    3  A    between atoms: C_6  and  C_7
REMARK    4  A    between atoms: C_9  and  C_12
REMARK    5  A    between atoms: C_15  and  N_18
REMARK                            x       y       z     vdW  Elec       q    Type
REMARK                         _______ _______ _______ _____ _____    ______ ____
ROOT
ATOM      7  C   UNL     1      -2.550   0.299  24.927  0.00  0.00    +0.251 A 
ATOM      8  N   UNL     1      -2.016   0.318  24.298  0.00  0.00    -0.190 NA
ATOM      9  C   UNL     1      -1.259   0.194  24.602  0.00  0.00    +0.205 A 
ATOM     10  N   UNL     1      -1.326   0.097  25.419  0.00  0.00    -0.056 NA
ATOM     11  O   UNL     1      -2.122   0.162  25.619  0.00  0.00    -0.336 OA
ENDROOT
BRANCH   9  12
ATOM     12  C   UNL     1      -0.559   0.170  24.166  0.00  0.00    +0.058 A 
ATOM     13  C   UNL     1      -0.190   0.872  23.942  0.00  0.00    +0.008 A 
ATOM     14  C   UNL     1       0.511   0.849  23.505  0.00  0.00    +0.038 A 
ATOM     15  C   UNL     1       0.841   0.123  23.295  0.00  0.00    +0.149 A 
ATOM     16  N   UNL     1       0.471  -0.580  23.519  0.00  0.00    -0.226 NA
ATOM     17  C   UNL     1      -0.229  -0.556  23.955  0.00  0.00    +0.104 A 
BRANCH  15  18
ATOM     18  N   UNL     1       1.541   0.099  22.858  0.00  0.00    -0.271 N 
ATOM     19  C   UNL     1       2.273   0.396  23.099  0.00  0.00    +0.104 A 
ATOM     20  C   UNL     1       2.816   0.255  22.495  0.00  0.00    +0.120 A 
ATOM     21  N   UNL     1       2.421  -0.129  21.880  0.00  0.00    -0.222 NA
ATOM     22  C   UNL     1       1.632  -0.225  22.106  0.00  0.00    +0.184 A 
ENDBRANCH  15  18
ENDBRANCH   9  12
BRANCH   7   6
ATOM      2  N   UNL     1      -3.771   1.116  24.906  0.00  0.00    -0.260 NA
ATOM      3  C   UNL     1      -4.577   0.960  24.829  0.00  0.00    +0.073 C 
ATOM      4  C   UNL     1      -4.671   0.144  24.748  0.00  0.00    +0.019 C 
ATOM      5  C   UNL     1      -3.923  -0.203  24.775  0.00  0.00    +0.027 C 
ATOM      6  C   UNL     1      -3.367   0.398  24.873  0.00  0.00    +0.138 C 
BRANCH   2   1
ATOM      1  C   UNL     1      -3.428   1.860  25.000  0.00  0.00    +0.139 C 
BRANCH   1  23
ATOM     23  C   UNL     1      -3.902   2.537  24.987  0.00  0.00    +0.155 A 
ATOM     24  N   UNL     1      -4.059   3.006  24.327  0.00  0.00    -0.226 NA
ATOM     25  C   UNL     1      -4.555   3.622  24.564  0.00  0.00    +0.121 A 
ATOM     26  C   UNL     1      -4.704   3.533  25.370  0.00  0.00    +0.121 A 
ATOM     27  N   UNL     1      -4.300   2.862  25.632  0.00  0.00    -0.226 NA
ENDBRANCH   1  23
ENDBRANCH   2   1
ENDBRANCH   7   6
TORSDOF 5
ENDMDL
MODEL 4
REMARK VINA RESULT:      -8.3      2.608      4.692
REMARK  Name = 
REMARK  5 active torsions:
REMARK  status: ('A' for Active; 'I' for Inactive)
REMARK    1  A    between atoms: C_1  and  N_2
REMARK    2  A    between atoms: C_1  and  C_23
REMARK    3  A    between atoms: C_6  and  C_7
REMARK    4  A    between atoms: C_9  and  C_12
REMARK    5  A    between atoms: C_15  and  N_18
REMARK                            x       y       z     vdW  Elec       q    Type
REMARK                         _______ _______ _______ _____ _____    ______ ____
ROOT
ATOM      7  C   UNL     1      -2.148  -0.530  24.593  0.00  0.00    +0.251 A 
ATOM      8  N   UNL     1      -2.432   0.164  24.937  0.00  0.00    -0.190 NA
ATOM      9  C   UNL     1      -3.182   0.313  24.627  0.00  0.00    +0.205 A 
ATOM     10  N   UNL     1      -3.361  -0.288  24.092  0.00  0.00    -0.056 NA
ATOM     11  O   UNL     1      -2.722  -0.809  24.071  0.00  0.00    -0.336 OA
ENDROOT
BRANCH   9  12
ATOM     12  C   UNL     1      -3.668   0.952  24.819  0.00  0.00    +0.058 A 
ATOM     13  C   UNL     1      -4.464   0.827  24.992  0.00  0.00    +0.008 A 
ATOM     14  C   UNL     1      -4.950   1.466  25.184  0.00  0.00    +0.038 A 
ATOM     15  C   UNL     1      -4.639   2.230  25.202  0.00  0.00    +0.149 A 
ATOM     16  N   UNL     1      -3.842   2.355  25.028  0.00  0.00    -0.226 NA
ATOM     17  C   UNL     1      -3.357   1.716  24.836  0.00  0.00    +0.104 A 
BRANCH  15  18
ATOM     18  N   UNL     1      -5.125   2.869  25.394  0.00  0.00    -0.271 N 
ATOM     19  C   UNL     1      -4.954   3.665  25.260  0.00  0.00    +0.104 A 
ATOM     20  C   UNL     1      -5.590   4.112  25.536  0.00  0.00    +0.120 A 
ATOM     21  N   UNL     1      -6.154   3.592  25.841  0.00  0.00    -0.222 NA
ATOM     22  C   UNL     1      -5.866   2.824  25.753  0.00  0.00    +0.184 A 
ENDBRANCH  15  18
ENDBRANCH   9  12
BRANCH   7   6
ATOM      2  N   UNL     1      -0.708  -0.711  24.362  0.00  0.00    -0.260 NA
ATOM      3  C   UNL     1      -0.120  -1.190  24.686  0.00  0.00    +0.073 C 
ATOM      4  C   UNL     1      -0.467  -1.658  25.271  0.00  0.00    +0.019 C 
ATOM      5  C   UNL     1      -1.269  -1.468  25.307  0.00  0.00    +0.027 C 
ATOM      6  C   UNL     1      -1.418  -0.882  24.745  0.00  0.00    +0.138 C 
BRANCH   2   1
ATOM      1  C   UNL     1      -0.604  -0.157  23.760  0.00  0.00    +0.139 C 
BRANCH   1  23
ATOM     23  C   UNL     1       0.157   0.044  23.511  0.00  0.00    +0.155 A 
ATOM     24  N   UNL     1       0.615  -0.371  22.965  0.00  0.00    -0.226 NA
ATOM     25  C   UNL     1       1.334   0.024  22.882  0.00  0.00    +0.121 A 
ATOM     26  C   UNL     1       1.321   0.684  23.376  0.00  0.00    +0.121 A 
ATOM     27  N   UNL     1       0.593   0.697  23.766  0.00  0.00    -0.226 NA
ENDBRANCH   1  23
ENDBRANCH   2   1
ENDBRANCH   7   6
TORSDOF 5
ENDMDL
MODEL 5
REMARK VINA RESULT:      -8.3      1.866      2.515
REMARK  Name = 
REMARK  5 active torsions:
REMARK  status: ('A' for Active; 'I' for Inactive)
REMARK    1  A    between atoms: C_1  and  N_2
REMARK    2  A    between atoms: C_1  and  C_23
REMARK    3  A    between atoms: C_6  and  C_7
REMARK    4  A    between atoms: C_9  and  C_12
REMARK    5  A    between atoms: C_15  and  N_18
REMARK                            x       y       z     vdW  Elec       q    Type
REMARK                         _______ _______ _______ _____ _____    ______ ____
ROOT
ATOM      7  C   UNL     1      -0.539   1.496  25.204  0.00  0.00    +0.251 A 
ATOM      8  N   UNL     1      -1.170   0.978  25.327  0.00  0.00    -0.190 NA
ATOM      9  C   UNL     1      -1.202   0.459  24.687  0.00  0.00    +0.205 A 
ATOM     10  N   UNL     1      -0.592   0.656  24.169  0.00  0.00    -0.056 NA
ATOM     11  O   UNL     1      -0.183   1.296  24.488  0.00  0.00    -0.336 OA
ENDROOT
BRANCH   9  12
ATOM     12  C   UNL     1      -1.749  -0.150  24.584  0.00  0.00    +0.058 A 
ATOM     13  C   UNL     1      -2.545   0.027  24.459  0.00  0.00    +0.008 A 
ATOM     14  C   UNL     1      -3.091  -0.583  24.356  0.00  0.00    +0.038 A 
ATOM     15  C   UNL     1      -2.842  -1.369  24.377  0.00  0.00    +0.149 A 
ATOM     16  N   UNL     1      -2.046  -1.546  24.502  0.00  0.00    -0.226 NA
ATOM     17  C   UNL     1      -1.499  -0.936  24.605  0.00  0.00    +0.104 A 
BRANCH  15  18
ATOM     18  N   UNL     1      -3.389  -1.978  24.274  0.00  0.00    -0.271 N 
ATOM     19  C   UNL     1      -4.084  -1.936  23.832  0.00  0.00    +0.104 A 
ATOM     20  C   UNL     1      -4.461  -2.668  23.879  0.00  0.00    +0.120 A 
ATOM     21  N   UNL     1      -3.999  -3.163  24.351  0.00  0.00    -0.222 NA
ATOM     22  C   UNL     1      -3.336  -2.736  24.595  0.00  0.00    +0.184 A 
ENDBRANCH  15  18
ENDBRANCH   9  12
BRANCH   7   6
ATOM      2  N   UNL     1      -0.490   2.905  25.620  0.00  0.00    -0.260 NA
ATOM      3  C   UNL     1      -0.148   3.317  26.247  0.00  0.00    +0.073 C 
ATOM      4  C   UNL     1       0.247   2.772  26.724  0.00  0.00    +0.019 C 
ATOM      5  C   UNL     1       0.148   2.023  26.392  0.00  0.00    +0.027 C 
ATOM      6  C   UNL     1      -0.307   2.106  25.709  0.00  0.00    +0.138 C 
BRANCH   2   1
ATOM      1  C   UNL     1      -0.937   3.234  25.009  0.00  0.00    +0.139 C 
BRANCH   1  23
ATOM     23  C   UNL     1      -1.194   4.017  25.063  0.00  0.00    +0.155 A 
ATOM     24  N   UNL     1      -1.916   4.270  25.370  0.00  0.00    -0.226 NA
ATOM     25  C   UNL     1      -1.943   5.093  25.315  0.00  0.00    +0.121 A 
ATOM     26  C   UNL     1      -1.237   5.349  24.974  0.00  0.00    +0.121 A 
ATOM     27  N   UNL     1      -0.773   4.684  24.817  0.00  0.00    -0.226 NA
ENDBRANCH   1  23
ENDBRANCH   2   1
ENDBRANCH   7   6
TORSDOF 5
ENDMDL
MODEL 6
REMARK VINA RESULT:      -8.1      2.085      2.948
REMARK  Name = 
REMARK  5 active torsions:
REMARK  status: ('A' for Active; 'I' for Inactive)
REMARK    1  A    between atoms: C_1  and  N_2
REMARK    2  A    between atoms: C_1  and  C_23
REMARK    3  A    between atoms: C_6  and  C_7
REMARK    4  A    between atoms: C_9  and  C_12
REMARK    5  A    between atoms: C_15  and  N_18
REMARK                            x       y       z     vdW  Elec       q    Type
REMARK                         _______ _______ _______ _____ _____    ______ ____
ROOT
ATOM      7  C   UNL     1      -0.965   2.994  25.490  0.00  0.00    +0.251 A 
ATOM      8  N   UNL     1      -1.281   2.297  25.180  0.00  0.00    -0.190 NA
ATOM      9  C   UNL     1      -0.831   1.666  25.463  0.00  0.00    +0.205 A 
ATOM     10  N   UNL     1      -0.239   1.972  25.948  0.00  0.00    -0.056 NA
ATOM     11  O   UNL     1      -0.322   2.792  25.964  0.00  0.00    -0.336 OA
ENDROOT
BRANCH   9  12
ATOM     12  C   UNL     1      -0.953   0.868  25.291  0.00  0.00    +0.058 A 
ATOM     13  C   UNL     1      -1.275   0.368  25.863  0.00  0.00    +0.008 A 
ATOM     14  C   UNL     1      -1.397  -0.430  25.691  0.00  0.00    +0.038 A 
ATOM     15  C   UNL     1      -1.198  -0.727  24.948  0.00  0.00    +0.149 A 
ATOM     16  N   UNL     1      -0.876  -0.227  24.376  0.00  0.00    -0.226 NA
ATOM     17  C   UNL     1      -0.754   0.571  24.548  0.00  0.00    +0.104 A 
BRANCH  15  18
ATOM     18  N   UNL     1      -1.320  -1.525  24.776  0.00  0.00    -0.271 N 
ATOM     19  C   UNL     1      -2.021  -1.859  24.497  0.00  0.00    +0.104 A 
ATOM     20  C   UNL     1      -1.897  -2.669  24.402  0.00  0.00    +0.120 A 
ATOM     21  N   UNL     1      -1.119  -2.836  24.622  0.00  0.00    -0.222 NA
ATOM     22  C   UNL     1      -0.763  -2.128  24.854  0.00  0.00    +0.184 A 
ENDBRANCH  15  18
ENDBRANCH   9  12
BRANCH   7   6
ATOM      2  N   UNL     1      -2.013   4.024  25.486  0.00  0.00    -0.260 NA
ATOM      3  C   UNL     1      -2.050   4.819  25.269  0.00  0.00    +0.073 C 
ATOM      4  C   UNL     1      -1.303   5.044  24.999  0.00  0.00    +0.019 C 
ATOM      5  C   UNL     1      -0.806   4.387  25.049  0.00  0.00    +0.027 C 
ATOM      6  C   UNL     1      -1.245   3.757  25.350  0.00  0.00    +0.138 C 
BRANCH   2   1
ATOM      1  C   UNL     1      -2.636   3.574  25.786  0.00  0.00    +0.139 C 
BRANCH   1  23
ATOM     23  C   UNL     1      -3.411   3.732  25.548  0.00  0.00    +0.155 A 
ATOM     24  N   UNL     1      -3.735   3.564  24.809  0.00  0.00    -0.226 NA
ATOM     25  C   UNL     1      -4.522   3.814  24.812  0.00  0.00    +0.121 A 
ATOM     26  C   UNL     1      -4.684   4.137  25.553  0.00  0.00    +0.121 A 
ATOM     27  N   UNL     1      -3.997   4.087  26.009  0.00  0.00    -0.226 NA
ENDBRANCH   1  23
ENDBRANCH   2   1
ENDBRANCH   7   6
TORSDOF 5
ENDMDL
MODEL 7
REMARK VINA RESULT:      -8.0      1.301      5.392
REMARK  Name = 
REMARK  5 active torsions:
REMARK  status: ('A' for Active; 'I' for Inactive)
REMARK    1  A    between atoms: C_1  and  N_2
REMARK    2  A    between atoms: C_1  and  C_23
REMARK    3  A    between atoms: C_6  and  C_7
REMARK    4  A    between atoms: C_9  and  C_12
REMARK    5  A    between atoms: C_15  and  N_18
REMARK                            x       y       z     vdW  Elec       q    Type
REMARK                         _______ _______ _______ _____ _____    ______ ____
ROOT
ATOM      7  C   UNL     1      -3.952   0.101  24.659  0.00  0.00    +0.251 A 
ATOM      8  N   UNL     1      -3.353   0.658  24.546  0.00  0.00    -0.190 NA
ATOM      9  C   UNL     1      -3.583   1.359  24.915  0.00  0.00    +0.205 A 
ATOM     10  N   UNL     1      -4.324   1.235  25.256  0.00  0.00    -0.056 NA
ATOM     11  O   UNL     1      -4.551   0.459  25.098  0.00  0.00    -0.336 OA
ENDROOT
BRANCH   9  12
ATOM     12  C   UNL     1      -3.149   2.060  24.938  0.00  0.00    +0.058 A 
ATOM     13  C   UNL     1      -3.457   2.747  24.602  0.00  0.00    +0.008 A 
ATOM     14  C   UNL     1      -3.022   3.448  24.625  0.00  0.00    +0.038 A 
ATOM     15  C   UNL     1      -2.280   3.462  24.985  0.00  0.00    +0.149 A 
ATOM     16  N   UNL     1      -1.972   2.775  25.322  0.00  0.00    -0.226 NA
ATOM     17  C   UNL     1      -2.407   2.074  25.298  0.00  0.00    +0.104 A 
BRANCH  15  18
ATOM     18  N   UNL     1      -1.846   4.163  25.008  0.00  0.00    -0.271 N 
ATOM     19  C   UNL     1      -1.067   4.260  24.754  0.00  0.00    +0.104 A 
ATOM     20  C   UNL     1      -0.853   5.047  24.879  0.00  0.00    +0.120 A 
ATOM     21  N   UNL     1      -1.501   5.437  25.210  0.00  0.00    -0.222 NA
ATOM     22  C   UNL     1      -2.114   4.890  25.290  0.00  0.00    +0.184 A 
ENDBRANCH  15  18
ENDBRANCH   9  12
BRANCH   7   6
ATOM      2  N   UNL     1      -3.393  -1.254  24.565  0.00  0.00    -0.260 NA
ATOM      3  C   UNL     1      -3.603  -1.947  24.170  0.00  0.00    +0.073 C 
ATOM      4  C   UNL     1      -4.292  -1.796  23.742  0.00  0.00    +0.019 C 
ATOM      5  C   UNL     1      -4.507  -1.010  23.873  0.00  0.00    +0.027 C 
ATOM      6  C   UNL     1      -3.950  -0.675  24.382  0.00  0.00    +0.138 C 
BRANCH   2   1
ATOM      1  C   UNL     1      -2.738  -1.158  25.058  0.00  0.00    +0.139 C 
BRANCH   1  23
ATOM     23  C   UNL     1      -2.053  -1.599  24.926  0.00  0.00    +0.155 A 
ATOM     24  N   UNL     1      -1.377  -1.339  24.532  0.00  0.00    -0.226 NA
ATOM     25  C   UNL     1      -0.831  -1.957  24.527  0.00  0.00    +0.121 A 
ATOM     26  C   UNL     1      -1.169  -2.600  24.918  0.00  0.00    +0.121 A 
ATOM     27  N   UNL     1      -1.925  -2.379  25.165  0.00  0.00    -0.226 NA
ENDBRANCH   1  23
ENDBRANCH   2   1
ENDBRANCH   7   6
TORSDOF 5
ENDMDL
MODEL 8
REMARK VINA RESULT:      -6.8     18.082     19.880
REMARK  Name = 
REMARK  5 active torsions:
REMARK  status: ('A' for Active; 'I' for Inactive)
REMARK    1  A    between atoms: C_1  and  N_2
REMARK    2  A    between atoms: C_1  and  C_23
REMARK    3  A    between atoms: C_6  and  C_7
REMARK    4  A    between atoms: C_9  and  C_12
REMARK    5  A    between atoms: C_15  and  N_18
REMARK                            x       y       z     vdW  Elec       q    Type
REMARK                         _______ _______ _______ _____ _____    ______ ____
ROOT
ATOM      7  C   UNL     1      14.905   6.803  19.509  0.00  0.00    +0.251 A 
ATOM      8  N   UNL     1      14.584   7.142  18.828  0.00  0.00    -0.190 NA
ATOM      9  C   UNL     1      13.771   7.224  18.943  0.00  0.00    +0.205 A 
ATOM     10  N   UNL     1      13.590   6.936  19.694  0.00  0.00    -0.056 NA
ATOM     11  O   UNL     1      14.290   6.676  20.043  0.00  0.00    -0.336 OA
ENDROOT
BRANCH   9  12
ATOM     12  C   UNL     1      13.234   7.539  18.401  0.00  0.00    +0.058 A 
ATOM     13  C   UNL     1      12.429   7.552  18.579  0.00  0.00    +0.008 A 
ATOM     14  C   UNL     1      11.892   7.867  18.038  0.00  0.00    +0.038 A 
ATOM     15  C   UNL     1      12.160   8.169  17.319  0.00  0.00    +0.149 A 
ATOM     16  N   UNL     1      12.966   8.157  17.141  0.00  0.00    -0.226 NA
ATOM     17  C   UNL     1      13.503   7.842  17.682  0.00  0.00    +0.104 A 
BRANCH  15  18
ATOM     18  N   UNL     1      11.623   8.484  16.777  0.00  0.00    -0.271 N 
ATOM     19  C   UNL     1      10.801   8.472  16.846  0.00  0.00    +0.104 A 
ATOM     20  C   UNL     1      10.484   8.847  16.183  0.00  0.00    +0.120 A 
ATOM     21  N   UNL     1      11.110   9.091  15.704  0.00  0.00    -0.222 NA
ATOM     22  C   UNL     1      11.814   8.867  16.071  0.00  0.00    +0.184 A 
ENDBRANCH  15  18
ENDBRANCH   9  12
BRANCH   7   6
ATOM      2  N   UNL     1      16.187   6.951  20.210  0.00  0.00    -0.260 NA
ATOM      3  C   UNL     1      16.937   6.615  20.135  0.00  0.00    +0.073 C 
ATOM      4  C   UNL     1      16.912   6.078  19.508  0.00  0.00    +0.019 C 
ATOM      5  C   UNL     1      16.148   6.083  19.197  0.00  0.00    +0.027 C 
ATOM      6  C   UNL     1      15.700   6.623  19.632  0.00  0.00    +0.138 C 
BRANCH   2   1
ATOM      1  C   UNL     1      15.964   7.517  20.767  0.00  0.00    +0.139 C 
BRANCH   1  23
ATOM     23  C   UNL     1      16.511   8.079  21.026  0.00  0.00    +0.155 A 
ATOM     24  N   UNL     1      16.879   8.649  20.557  0.00  0.00    -0.226 NA
ATOM     25  C   UNL     1      17.380   9.092  21.040  0.00  0.00    +0.121 A 
ATOM     26  C   UNL     1      17.322   8.796  21.808  0.00  0.00    +0.121 A 
ATOM     27  N   UNL     1      16.784   8.169  21.800  0.00  0.00    -0.226 NA
ENDBRANCH   1  23
ENDBRANCH   2   1
ENDBRANCH   7   6
TORSDOF 5
ENDMDL
MODEL 9
REMARK VINA RESULT:      -6.1     15.084     18.169
REMARK  Name = 
REMARK  5 active torsions:
REMARK  status: ('A' for Active; 'I' for Inactive)
REMARK    1  A    between atoms: C_1  and  N_2
REMARK    2  A    between atoms: C_1  and  C_23
REMARK    3  A    between atoms: C_6  and  C_7
REMARK    4  A    between atoms: C_9  and  C_12
REMARK    5  A    between atoms: C_15  and  N_18
REMARK                            x       y       z     vdW  Elec       q    Type
REMARK                         _______ _______ _______ _____ _____    ______ ____
ROOT
ATOM      7  C   UNL     1      12.123   8.023  20.752  0.00  0.00    +0.251 A 
ATOM      8  N   UNL     1      12.075   8.094  19.931  0.00  0.00    -0.190 NA
ATOM      9  C   UNL     1      12.829   8.271  19.646  0.00  0.00    +0.205 A 
ATOM     10  N   UNL     1      13.342   8.309  20.290  0.00  0.00    -0.056 NA
ATOM     11  O   UNL     1      12.906   8.155  20.972  0.00  0.00    -0.336 OA
ENDROOT
BRANCH   9  12
ATOM     12  C   UNL     1      13.033   8.389  18.855  0.00  0.00    +0.058 A 
ATOM     13  C   UNL     1      13.664   7.972  18.526  0.00  0.00    +0.008 A 
ATOM     14  C   UNL     1      13.868   8.090  17.735  0.00  0.00    +0.038 A 
ATOM     15  C   UNL     1      13.442   8.625  17.274  0.00  0.00    +0.149 A 
ATOM     16  N   UNL     1      12.811   9.043  17.604  0.00  0.00    -0.226 NA
ATOM     17  C   UNL     1      12.607   8.925  18.395  0.00  0.00    +0.104 A 
BRANCH  15  18
ATOM     18  N   UNL     1      13.646   8.744  16.483  0.00  0.00    -0.271 N 
ATOM     19  C   UNL     1      14.346   9.084  16.209  0.00  0.00    +0.104 A 
ATOM     20  C   UNL     1      14.319   9.093  15.384  0.00  0.00    +0.120 A 
ATOM     21  N   UNL     1      13.602   8.758  15.149  0.00  0.00    -0.222 NA
ATOM     22  C   UNL     1      13.186   8.542  15.829  0.00  0.00    +0.184 A 
ENDBRANCH  15  18
ENDBRANCH   9  12
BRANCH   7   6
ATOM      2  N   UNL     1      11.274   7.098  21.515  0.00  0.00    -0.260 NA
ATOM      3  C   UNL     1      10.624   7.180  22.016  0.00  0.00    +0.073 C 
ATOM      4  C   UNL     1      10.445   7.984  22.071  0.00  0.00    +0.019 C 
ATOM      5  C   UNL     1      10.985   8.398  21.604  0.00  0.00    +0.027 C 
ATOM      6  C   UNL     1      11.497   7.849  21.260  0.00  0.00    +0.138 C 
BRANCH   2   1
ATOM      1  C   UNL     1      11.637   6.388  21.305  0.00  0.00    +0.139 C 
BRANCH   1  23
ATOM     23  C   UNL     1      11.258   5.670  21.457  0.00  0.00    +0.155 A 
ATOM     24  N   UNL     1      11.018   5.395  22.196  0.00  0.00    -0.226 NA
ATOM     25  C   UNL     1      10.664   4.657  22.092  0.00  0.00    +0.121 A 
ATOM     26  C   UNL     1      10.686   4.475  21.287  0.00  0.00    +0.121 A 
ATOM     27  N   UNL     1      11.054   5.101  20.894  0.00  0.00    -0.226 NA
ENDBRANCH   1  23
ENDBRANCH   2   1
ENDBRANCH   7   6
TORSDOF 5
ENDMDL
MODEL 10
REMARK VINA RESULT:      -5.7     15.742     18.776
REMARK  Name = 
REMARK  5 active torsions:
REMARK  status: ('A' for Active; 'I' for Inactive)
REMARK    1  A    between atoms: C_1  and  N_2
REMARK    2  A    between atoms: C_1  and  C_23
REMARK    3  A    between atoms: C_6  and  C_7
REMARK    4  A    between atoms: C_9  and  C_12
REMARK    5  A    between atoms: C_15  and  N_18
REMARK                            x       y       z     vdW  Elec       q    Type
REMARK                         _______ _______ _______ _____ _____    ______ ____
ROOT
ATOM      7  C   UNL     1      12.681   8.520  19.780  0.00  0.00    +0.251 A 
ATOM      8  N   UNL     1      13.115   7.860  19.540  0.00  0.00    -0.190 NA
ATOM      9  C   UNL     1      13.915   8.026  19.651  0.00  0.00    +0.205 A 
ATOM     10  N   UNL     1      13.977   8.788  19.959  0.00  0.00    -0.056 NA
ATOM     11  O   UNL     1      13.215   9.093  20.038  0.00  0.00    -0.336 OA
ENDROOT
BRANCH   9  12
ATOM     12  C   UNL     1      14.543   7.518  19.483  0.00  0.00    +0.058 A 
ATOM     13  C   UNL     1      15.053   7.687  18.857  0.00  0.00    +0.008 A 
ATOM     14  C   UNL     1      15.682   7.179  18.688  0.00  0.00    +0.038 A 
ATOM     15  C   UNL     1      15.800   6.503  19.146  0.00  0.00    +0.149 A 
ATOM     16  N   UNL     1      15.290   6.335  19.772  0.00  0.00    -0.226 NA
ATOM     17  C   UNL     1      14.661   6.842  19.941  0.00  0.00    +0.104 A 
BRANCH  15  18
ATOM     18  N   UNL     1      16.428   5.996  18.978  0.00  0.00    -0.271 N 
ATOM     19  C   UNL     1      16.814   5.505  19.519  0.00  0.00    +0.104 A 
ATOM     20  C   UNL     1      17.405   5.096  19.115  0.00  0.00    +0.120 A 
ATOM     21  N   UNL     1      17.386   5.333  18.325  0.00  0.00    -0.222 NA
ATOM     22  C   UNL     1      16.781   5.889  18.241  0.00  0.00    +0.184 A 
ENDBRANCH  15  18
ENDBRANCH   9  12
BRANCH   7   6
ATOM      2  N   UNL     1      11.343   8.375  20.366  0.00  0.00    -0.260 NA
ATOM      3  C   UNL     1      10.574   8.544  20.118  0.00  0.00    +0.073 C 
ATOM      4  C   UNL     1      10.618   8.867  19.360  0.00  0.00    +0.019 C 
ATOM      5  C   UNL     1      11.413   8.898  19.141  0.00  0.00    +0.027 C 
ATOM      6  C   UNL     1      11.860   8.593  19.764  0.00  0.00    +0.138 C 
BRANCH   2   1
ATOM      1  C   UNL     1      11.555   8.045  21.092  0.00  0.00    +0.139 C 
BRANCH   1  23
ATOM     23  C   UNL     1      11.002   8.000  21.703  0.00  0.00    +0.155 A 
ATOM     24  N   UNL     1      10.917   8.539  22.321  0.00  0.00    -0.226 NA
ATOM     25  C   UNL     1      10.300   8.280  22.803  0.00  0.00    +0.121 A 
ATOM     26  C   UNL     1      10.002   7.581  22.483  0.00  0.00    +0.121 A 
ATOM     27  N   UNL     1      10.436   7.407  21.802  0.00  0.00    -0.226 NA
ENDBRANCH   1  23
ENDBRANCH   2   1
ENDBRANCH   7   6
TORSDOF 5
ENDMDL
