MODEL 1
REMARK VINA RESULT:      -9.9      0.000      0.000
REMARK  Name = 
REMARK  7 active torsions:
REMARK  status: ('A' for Active; 'I' for Inactive)
REMARK    1  A    between atoms: C_2  and  C_3
REMARK    2  A    between atoms: C_3  and  C_4
REMARK    3  A    between atoms: C_6  and  C_7
REMARK    4  A    between atoms: C_7  and  C_8
REMARK    5  A    between atoms: C_8  and  N_12
REMARK    6  A    between atoms: N_12  and  C_13
REMARK    7  A    between atoms: C_13  and  C_14
REMARK                            x       y       z     vdW  Elec       q    Type
REMARK                         _______ _______ _______ _____ _____    ______ ____
ROOT
ATOM      8  C   UNL     1      -4.504   1.696  24.671  0.00  0.00    +0.120 C 
ATOM      9  C   UNL     1      -5.225   1.436  24.978  0.00  0.00    +0.161 C 
ATOM     10  O   UNL     1      -5.575   2.151  24.760  0.00  0.00    -0.351 OA
ATOM     11  C   UNL     1      -4.855   2.411  24.455  0.00  0.00    +0.161 C 
ENDROOT
BRANCH   8   7
ATOM      7  C   UNL     1      -3.784   1.956  24.365  0.00  0.00    +0.070 C 
BRANCH   7   6
ATOM      4  C   UNL     1      -2.390   3.403  25.089  0.00  0.00    +0.157 A 
ATOM      5  C   UNL     1      -2.624   2.845  24.528  0.00  0.00    +0.054 A 
ATOM      6  C   UNL     1      -3.349   2.533  24.765  0.00  0.00    +0.102 A 
ATOM     21  N   UNL     1      -3.565   2.898  25.472  0.00  0.00    -0.082 NA
ATOM     22  O   UNL     1      -2.972   3.436  25.672  0.00  0.00    -0.358 OA
BRANCH   4   3
ATOM      3  C   UNL     1      -1.698   3.850  25.069  0.00  0.00    +0.103 C 
BRANCH   3   2
ATOM      1  O   UNL     1      -1.052   5.124  25.101  0.00  0.00    -0.220 OA
ATOM      2  C   UNL     1      -1.726   4.661  25.214  0.00  0.00    +0.190 C 
ENDBRANCH   3   2
ENDBRANCH   4   3
ENDBRANCH   7   6
ENDBRANCH   8   7
BRANCH   8  12
ATOM     12  N   UNL     1      -4.154   0.981  24.888  0.00  0.00    -0.211 NA
BRANCH  12  13
ATOM     13  C   UNL     1      -4.432   0.273  24.569  0.00  0.00    +0.117 C 
BRANCH  13  14
ATOM     14  C   UNL     1      -4.070  -0.440  24.772  0.00  0.00    +0.023 A 
ATOM     15  C   UNL     1      -3.785  -0.554  25.538  0.00  0.00    -0.001 A 
ATOM     16  C   UNL     1      -3.423  -1.267  25.742  0.00  0.00    -0.000 A 
ATOM     17  C   UNL     1      -3.346  -1.866  25.179  0.00  0.00    +0.002 A 
ATOM     18  C   UNL     1      -3.632  -1.752  24.413  0.00  0.00    +0.029 A 
ATOM     19  C   UNL     1      -3.994  -1.039  24.210  0.00  0.00    +0.137 A 
ATOM     20  F   UNL     1      -4.279  -0.925  23.444  0.00  0.00    -0.204 F 
ENDBRANCH  13  14
ENDBRANCH  12  13
ENDBRANCH   8  12
TORSDOF 7
ENDMDL
MODEL 2
REMARK VINA RESULT:      -9.1      1.956      4.352
REMARK  Name = 
REMARK  7 active torsions:
REMARK  status: ('A' for Active; 'I' for Inactive)
REMARK    1  A    between atoms: C_2  and  C_3
REMARK    2  A    between atoms: C_3  and  C_4
REMARK    3  A    between atoms: C_6  and  C_7
REMARK    4  A    between atoms: C_7  and  C_8
REMARK    5  A    between atoms: C_8  and  N_12
REMARK    6  A    between atoms: N_12  and  C_13
REMARK    7  A    between atoms: C_13  and  C_14
REMARK                            x       y       z     vdW  Elec       q    Type
REMARK                         _______ _______ _______ _____ _____    ______ ____
ROOT
ATOM      8  C   UNL     1      -4.256   2.909  25.141  0.00  0.00    +0.120 C 
ATOM      9  C   UNL     1      -4.365   3.405  25.792  0.00  0.00    +0.161 C 
ATOM     10  O   UNL     1      -5.182   3.352  25.696  0.00  0.00    -0.351 OA
ATOM     11  C   UNL     1      -5.074   2.856  25.046  0.00  0.00    +0.161 C 
ENDROOT
BRANCH   8   7
ATOM      7  C   UNL     1      -4.148   2.413  24.491  0.00  0.00    +0.070 C 
BRANCH   7   6
ATOM      4  C   UNL     1      -4.059   0.281  24.409  0.00  0.00    +0.157 A 
ATOM      5  C   UNL     1      -3.824   1.023  24.136  0.00  0.00    +0.054 A 
ATOM      6  C   UNL     1      -4.219   1.595  24.579  0.00  0.00    +0.102 A 
ATOM     21  N   UNL     1      -4.699   1.208  25.127  0.00  0.00    -0.082 NA
ATOM     22  O   UNL     1      -4.600   0.395  25.022  0.00  0.00    -0.358 OA
BRANCH   4   3
ATOM      3  C   UNL     1      -3.800  -0.447  24.121  0.00  0.00    +0.103 C 
BRANCH   3   2
ATOM      1  O   UNL     1      -4.065  -1.812  23.796  0.00  0.00    -0.220 OA
ATOM      2  C   UNL     1      -4.302  -1.100  24.138  0.00  0.00    +0.190 C 
ENDBRANCH   3   2
ENDBRANCH   4   3
ENDBRANCH   7   6
ENDBRANCH   8   7
BRANCH   8  12
ATOM     12  N   UNL     1      -3.438   2.962  25.237  0.00  0.00    -0.211 NA
BRANCH  12  13
ATOM     13  C   UNL     1      -3.084   3.700  25.348  0.00  0.00    +0.117 C 
BRANCH  13  14
ATOM     14  C   UNL     1      -2.262   3.764  25.361  0.00  0.00    +0.023 A 
ATOM     15  C   UNL     1      -1.807   3.157  25.688  0.00  0.00    -0.001 A 
ATOM     16  C   UNL     1      -0.984   3.220  25.702  0.00  0.00    -0.000 A 
ATOM     17  C   UNL     1      -0.617   3.889  25.389  0.00  0.00    +0.002 A 
ATOM     18  C   UNL     1      -1.072   4.496  25.063  0.00  0.00    +0.029 A 
ATOM     19  C   UNL     1      -1.894   4.432  25.049  0.00  0.00    +0.137 A 
ATOM     20  F   UNL     1      -2.349   5.038  24.723  0.00  0.00    -0.204 F 
ENDBRANCH  13  14
ENDBRANCH  12  13
ENDBRANCH   8  12
TORSDOF 7
ENDMDL
MODEL 3
REMARK VINA RESULT:      -9.0      1.672      2.244
REMARK  Name = 
REMARK  7 active torsions:
REMARK  status: ('A' for Active; 'I' for Inactive)
REMARK    1  A    between atoms: C_2  and  C_3
REMARK    2  A    between atoms: C_3  and  C_4
REMARK    3  A    between atoms: C_6  and  C_7
REMARK    4  A    between atoms: C_7  and  C_8
REMARK    5  A    between atoms: C_8  and  N_12
REMARK    6  A    between atoms: N_12  and  C_13
REMARK    7  A    between atoms: C_13  and  C_14
REMARK                            x       y       z     vdW  Elec       q    Type
REMARK                         _______ _______ _______ _____ _____    ______ ____
ROOT
ATOM      8  C   UNL     1      -3.285   1.032  23.880  0.00  0.00    +0.120 C 
ATOM      9  C   UNL     1      -2.501   0.834  23.714  0.00  0.00    +0.161 C 
ATOM     10  O   UNL     1      -2.412   1.538  23.293  0.00  0.00    -0.351 OA
ATOM     11  C   UNL     1      -3.195   1.736  23.458  0.00  0.00    +0.161 C 
ENDROOT
BRANCH   8   7
ATOM      7  C   UNL     1      -4.068   1.231  24.045  0.00  0.00    +0.070 C 
BRANCH   7   6
ATOM      4  C   UNL     1      -4.894   2.719  25.333  0.00  0.00    +0.157 A 
ATOM      5  C   UNL     1      -4.980   2.149  24.744  0.00  0.00    +0.054 A 
ATOM      6  C   UNL     1      -4.237   1.822  24.595  0.00  0.00    +0.102 A 
ATOM     21  N   UNL     1      -3.692   2.190  25.093  0.00  0.00    -0.082 NA
ATOM     22  O   UNL     1      -4.098   2.745  25.549  0.00  0.00    -0.358 OA
BRANCH   4   3
ATOM      3  C   UNL     1      -5.498   3.182  25.652  0.00  0.00    +0.103 C 
BRANCH   3   2
ATOM      1  O   UNL     1      -6.148   4.449  25.766  0.00  0.00    -0.220 OA
ATOM      2  C   UNL     1      -5.497   3.999  25.534  0.00  0.00    +0.190 C 
ENDBRANCH   3   2
ENDBRANCH   4   3
ENDBRANCH   7   6
ENDBRANCH   8   7
BRANCH   8  12
ATOM     12  N   UNL     1      -3.373   0.329  24.302  0.00  0.00    -0.211 NA
BRANCH  12  13
ATOM     13  C   UNL     1      -3.441  -0.388  23.898  0.00  0.00    +0.117 C 
BRANCH  13  14
ATOM     14  C   UNL     1      -3.483  -1.096  24.319  0.00  0.00    +0.023 A 
ATOM     15  C   UNL     1      -3.157  -1.144  25.076  0.00  0.00    -0.001 A 
ATOM     16  C   UNL     1      -3.198  -1.851  25.499  0.00  0.00    -0.000 A 
ATOM     17  C   UNL     1      -3.564  -2.510  25.164  0.00  0.00    +0.002 A 
ATOM     18  C   UNL     1      -3.890  -2.462  24.407  0.00  0.00    +0.029 A 
ATOM     19  C   UNL     1      -3.848  -1.754  23.985  0.00  0.00    +0.137 A 
ATOM     20  F   UNL     1      -4.174  -1.706  23.229  0.00  0.00    -0.204 F 
ENDBRANCH  13  14
ENDBRANCH  12  13
ENDBRANCH   8  12
TORSDOF 7
ENDMDL
MODEL 4
REMARK VINA RESULT:      -8.5      2.355      4.388
REMARK  Name = 
REMARK  7 active torsions:
REMARK  status: ('A' for Active; 'I' for Inactive)
REMARK    1  A    between atoms: C_2  and  C_3
REMARK    2  A    between atoms: C_3  and  C_4
REMARK    3  A    between atoms: C_6  and  C_7
REMARK    4  A    between atoms: C_7  and  C_8
REMARK    5  A    between atoms: C_8  and  N_12
REMARK    6  A    between atoms: N_12  and  C_13
REMARK    7  A    between atoms: C_13  and  C_14
REMARK                            x       y       z     vdW  Elec       q    Type
REMARK                         _______ _______ _______ _____ _____    ______ ____
ROOT
ATOM      8  C   UNL     1      -2.647   1.312  24.154  0.00  0.00    +0.120 C 
ATOM      9  C   UNL     1      -2.816   1.755  23.478  0.00  0.00    +0.161 C 
ATOM     10  O   UNL     1      -2.059   1.602  23.188  0.00  0.00    -0.351 OA
ATOM     11  C   UNL     1      -1.890   1.159  23.863  0.00  0.00    +0.161 C 
ENDROOT
BRANCH   8   7
ATOM      7  C   UNL     1      -2.478   0.869  24.828  0.00  0.00    +0.070 C 
BRANCH   7   6
ATOM      4  C   UNL     1      -2.748  -1.249  24.870  0.00  0.00    +0.157 A 
ATOM      5  C   UNL     1      -3.024  -0.484  25.012  0.00  0.00    +0.054 A 
ATOM      6  C   UNL     1      -2.435   0.046  24.782  0.00  0.00    +0.102 A 
ATOM     21  N   UNL     1      -1.796  -0.390  24.497  0.00  0.00    -0.082 NA
ATOM     22  O   UNL     1      -1.989  -1.190  24.551  0.00  0.00    -0.358 OA
BRANCH   4   3
ATOM      3  C   UNL     1      -3.159  -1.948  25.019  0.00  0.00    +0.103 C 
BRANCH   3   2
ATOM      1  O   UNL     1      -3.728  -3.170  24.547  0.00  0.00    -0.220 OA
ATOM      2  C   UNL     1      -3.387  -2.435  24.394  0.00  0.00    +0.190 C 
ENDBRANCH   3   2
ENDBRANCH   4   3
ENDBRANCH   7   6
ENDBRANCH   8   7
BRANCH   8  12
ATOM     12  N   UNL     1      -3.404   1.466  24.443  0.00  0.00    -0.211 NA
BRANCH  12  13
ATOM     13  C   UNL     1      -3.655   2.245  24.544  0.00  0.00    +0.117 C 
BRANCH  13  14
ATOM     14  C   UNL     1      -4.393   2.399  24.881  0.00  0.00    +0.023 A 
ATOM     15  C   UNL     1      -5.038   1.920  24.696  0.00  0.00    -0.001 A 
ATOM     16  C   UNL     1      -5.776   2.073  25.032  0.00  0.00    -0.000 A 
ATOM     17  C   UNL     1      -5.868   2.706  25.553  0.00  0.00    +0.002 A 
ATOM     18  C   UNL     1      -5.222   3.185  25.739  0.00  0.00    +0.029 A 
ATOM     19  C   UNL     1      -4.485   3.031  25.402  0.00  0.00    +0.137 A 
ATOM     20  F   UNL     1      -3.839   3.510  25.588  0.00  0.00    -0.204 F 
ENDBRANCH  13  14
ENDBRANCH  12  13
ENDBRANCH   8  12
TORSDOF 7
ENDMDL
MODEL 5
REMARK VINA RESULT:      -8.5      1.904      2.490
REMARK  Name = 
REMARK  7 active torsions:
REMARK  status: ('A' for Active; 'I' for Inactive)
REMARK    1  A    between atoms: C_2  and  C_3
REMARK    2  A    between atoms: C_3  and  C_4
REMARK    3  A    between atoms: C_6  and  C_7
REMARK    4  A    between atoms: C_7  and  C_8
REMARK    5  A    between atoms: C_8  and  N_12
REMARK    6  A    between atoms: N_12  and  C_13
REMARK    7  A    between atoms: C_13  and  C_14
REMARK                            x       y       z     vdW  Elec       q    Type
REMARK                         _______ _______ _______ _____ _____    ______ ____
ROOT
ATOM      8  C   UNL     1      -1.296   0.576  24.725  0.00  0.00    +0.120 C 
ATOM      9  C   UNL     1      -0.886   0.045  24.243  0.00  0.00    +0.161 C 
ATOM     10  O   UNL     1      -0.175   0.414  24.442  0.00  0.00    -0.351 OA
ATOM     11  C   UNL     1      -0.585   0.944  24.923  0.00  0.00    +0.161 C 
ENDROOT
BRANCH   8   7
ATOM      7  C   UNL     1      -1.705   1.106  25.206  0.00  0.00    +0.070 C 
BRANCH   7   6
ATOM      4  C   UNL     1      -1.825   3.231  25.049  0.00  0.00    +0.157 A 
ATOM      5  C   UNL     1      -1.748   2.545  25.501  0.00  0.00    +0.054 A 
ATOM      6  C   UNL     1      -1.765   1.899  24.988  0.00  0.00    +0.102 A 
ATOM     21  N   UNL     1      -1.853   2.185  24.220  0.00  0.00    -0.082 NA
ATOM     22  O   UNL     1      -1.890   3.008  24.257  0.00  0.00    -0.358 OA
BRANCH   4   3
ATOM      3  C   UNL     1      -1.835   4.004  25.337  0.00  0.00    +0.103 C 
BRANCH   3   2
ATOM      1  O   UNL     1      -1.379   5.355  25.262  0.00  0.00    -0.220 OA
ATOM      2  C   UNL     1      -1.314   4.565  25.033  0.00  0.00    +0.190 C 
ENDBRANCH   3   2
ENDBRANCH   4   3
ENDBRANCH   7   6
ENDBRANCH   8   7
BRANCH   8  12
ATOM     12  N   UNL     1      -2.006   0.206  24.526  0.00  0.00    -0.211 NA
BRANCH  12  13
ATOM     13  C   UNL     1      -2.157  -0.563  24.785  0.00  0.00    +0.117 C 
BRANCH  13  14
ATOM     14  C   UNL     1      -2.855  -0.943  24.561  0.00  0.00    +0.023 A 
ATOM     15  C   UNL     1      -3.438  -0.526  24.152  0.00  0.00    -0.001 A 
ATOM     16  C   UNL     1      -4.136  -0.905  23.928  0.00  0.00    -0.000 A 
ATOM     17  C   UNL     1      -4.250  -1.701  24.114  0.00  0.00    +0.002 A 
ATOM     18  C   UNL     1      -3.667  -2.117  24.523  0.00  0.00    +0.029 A 
ATOM     19  C   UNL     1      -2.970  -1.737  24.747  0.00  0.00    +0.137 A 
ATOM     20  F   UNL     1      -2.387  -2.154  25.156  0.00  0.00    -0.204 F 
ENDBRANCH  13  14
ENDBRANCH  12  13
ENDBRANCH   8  12
TORSDOF 7
ENDMDL
MODEL 6
REMARK VINA RESULT:      -8.5      2.454      4.971
REMARK  Name = 
REMARK  7 active torsions:
REMARK  status: ('A' for Active; 'I' for Inactive)
REMARK    1  A    between atoms: C_2  and  C_3
REMARK    2  A    between atoms: C_3  and  C_4
REMARK    3  A    between atoms: C_6  and  C_7
REMARK    4  A    between atoms: C_7  and  C_8
REMARK    5  A    between atoms: C_8  and  N_12
REMARK    6  A    between atoms: N_12  and  C_13
REMARK    7  A    between atoms: C_13  and  C_14
REMARK                            x       y       z     vdW  Elec       q    Type
REMARK                         _______ _______ _______ _____ _____    ______ ____
ROOT
ATOM      8  C   UNL     1      -1.204   1.278  24.845  0.00  0.00    +0.120 C 
ATOM      9  C   UNL     1      -0.545   1.383  25.331  0.00  0.00    +0.161 C 
ATOM     10  O   UNL     1      -0.243   0.658  25.078  0.00  0.00    -0.351 OA
ATOM     11  C   UNL     1      -0.901   0.553  24.592  0.00  0.00    +0.161 C 
ENDROOT
BRANCH   8   7
ATOM      7  C   UNL     1      -1.862   1.172  24.359  0.00  0.00    +0.070 C 
BRANCH   7   6
ATOM      4  C   UNL     1      -3.433  -0.270  24.457  0.00  0.00    +0.157 A 
ATOM      5  C   UNL     1      -2.967   0.261  24.030  0.00  0.00    +0.054 A 
ATOM      6  C   UNL     1      -2.432   0.608  24.552  0.00  0.00    +0.102 A 
ATOM     21  N   UNL     1      -2.566   0.293  25.302  0.00  0.00    -0.082 NA
ATOM     22  O   UNL     1      -3.184  -0.250  25.243  0.00  0.00    -0.358 OA
BRANCH   4   3
ATOM      3  C   UNL     1      -4.039  -0.738  24.152  0.00  0.00    +0.103 C 
BRANCH   3   2
ATOM      1  O   UNL     1      -4.528  -2.029  23.784  0.00  0.00    -0.220 OA
ATOM      2  C   UNL     1      -3.988  -1.560  24.195  0.00  0.00    +0.190 C 
ENDBRANCH   3   2
ENDBRANCH   4   3
ENDBRANCH   7   6
ENDBRANCH   8   7
BRANCH   8  12
ATOM     12  N   UNL     1      -1.506   2.003  25.098  0.00  0.00    -0.211 NA
BRANCH  12  13
ATOM     13  C   UNL     1      -1.053   2.688  25.019  0.00  0.00    +0.117 C 
BRANCH  13  14
ATOM     14  C   UNL     1      -1.385   3.423  25.192  0.00  0.00    +0.023 A 
ATOM     15  C   UNL     1      -2.042   3.472  25.688  0.00  0.00    -0.001 A 
ATOM     16  C   UNL     1      -2.375   4.207  25.862  0.00  0.00    -0.000 A 
ATOM     17  C   UNL     1      -2.050   4.893  25.538  0.00  0.00    +0.002 A 
ATOM     18  C   UNL     1      -1.393   4.844  25.041  0.00  0.00    +0.029 A 
ATOM     19  C   UNL     1      -1.061   4.108  24.869  0.00  0.00    +0.137 A 
ATOM     20  F   UNL     1      -0.404   4.060  24.372  0.00  0.00    -0.204 F 
ENDBRANCH  13  14
ENDBRANCH  12  13
ENDBRANCH   8  12
TORSDOF 7
ENDMDL
