MODEL 1
REMARK VINA RESULT:     -13.0      0.000      0.000
REMARK  Name = 
REMARK  4 active torsions:
REMARK  status: ('A' for Active; 'I' for Inactive)
REMARK    1  A    between atoms: C_4  and  C_5
REMARK    2  A    between atoms: C_5  and  N_6
REMARK    3  A    between atoms: C_10  and  C_11
REMARK    4  A    between atoms: C_13  and  C_16
REMARK                            x       y       z     vdW  Elec       q    Type
REMARK                         _______ _______ _______ _____ _____    ______ ____
ROOT
ATOM      6  N   UNL     1      -4.671   1.058  24.951  0.00  0.00    -0.263 NA
ATOM      7  C   UNL     1      -5.345   0.806  25.356  0.00  0.00    +0.073 C 
ATOM      8  C   UNL     1      -5.734   1.473  25.644  0.00  0.00    +0.019 C 
ATOM      9  C   UNL     1      -5.301   2.139  25.418  0.00  0.00    +0.027 C 
ATOM     10  C   UNL     1      -4.645   1.882  24.991  0.00  0.00    +0.138 C 
ENDROOT
BRANCH  10  11
ATOM     11  C   UNL     1      -4.062   2.364  24.659  0.00  0.00    +0.251 A 
ATOM     12  N   UNL     1      -3.445   2.727  25.067  0.00  0.00    -0.188 NA
ATOM     13  C   UNL     1      -2.996   3.155  24.523  0.00  0.00    +0.221 A 
ATOM     14  N   UNL     1      -3.336   3.056  23.778  0.00  0.00    -0.054 NA
ATOM     15  O   UNL     1      -3.995   2.567  23.863  0.00  0.00    -0.336 OA
BRANCH  13  16
ATOM     16  C   UNL     1      -2.325   3.603  24.693  0.00  0.00    +0.120 A 
ATOM     17  N   UNL     1      -1.575   3.301  24.528  0.00  0.00    -0.238 NA
ATOM     18  C   UNL     1      -0.903   3.750  24.698  0.00  0.00    +0.128 A 
ATOM     19  C   UNL     1      -0.982   4.499  25.033  0.00  0.00    +0.159 A 
ATOM     20  F   UNL     1      -0.309   4.948  25.203  0.00  0.00    -0.203 F 
ATOM     21  C   UNL     1      -1.732   4.801  25.198  0.00  0.00    +0.033 A 
ATOM     22  C   UNL     1      -2.402   4.353  25.028  0.00  0.00    +0.025 A 
ENDBRANCH  13  16
ENDBRANCH  10  11
BRANCH   6   5
ATOM      5  C   UNL     1      -4.121   0.572  24.575  0.00  0.00    +0.101 C 
BRANCH   5   4
ATOM      1  C   UNL     1      -3.222  -1.433  26.474  0.00  0.00    +0.130 C 
ATOM      2  N   UNL     1      -3.498  -1.073  25.786  0.00  0.00    -0.324 N 
ATOM      3  C   UNL     1      -3.641  -0.267  25.683  0.00  0.00    +0.073 A 
ATOM      4  C   UNL     1      -3.911  -0.152  24.913  0.00  0.00    +0.012 A 
ATOM     23  C   UNL     1      -3.936  -0.886  24.539  0.00  0.00    +0.015 A 
ATOM     24  C   UNL     1      -3.681  -1.456  25.078  0.00  0.00    +0.060 A 
ATOM     25  C   UNL     1      -3.648  -2.249  24.855  0.00  0.00    +0.017 A 
ATOM     26  C   UNL     1      -3.870  -2.474  24.093  0.00  0.00    +0.001 A 
ATOM     27  C   UNL     1      -4.125  -1.904  23.554  0.00  0.00    +0.000 A 
ATOM     28  C   UNL     1      -4.159  -1.110  23.776  0.00  0.00    +0.001 A 
ENDBRANCH   5   4
ENDBRANCH   6   5
TORSDOF 4
ENDMDL
MODEL 2
REMARK VINA RESULT:     -12.8      2.021      4.940
REMARK  Name = 
REMARK  4 active torsions:
REMARK  status: ('A' for Active; 'I' for Inactive)
REMARK    1  A    between atoms: C_4  and  C_5
REMARK    2  A    between atoms: C_5  and  N_6
REMARK    3  A    between atoms: C_10  and  C_11
REMARK    4  A    between atoms: C_13  and  C_16
REMARK                            x       y       z     vdW  Elec       q    Type
REMARK                         _______ _______ _______ _____ _____    ______ ____
ROOT
ATOM      6  N   UNL     1      -3.407   2.580  24.557  0.00  0.00    -0.263 NA
ATOM      7  C   UNL     1      -3.466   3.270  24.107  0.00  0.00    +0.073 C 
ATOM      8  C   UNL     1      -4.100   3.181  23.587  0.00  0.00    +0.019 C 
ATOM      9  C   UNL     1      -4.433   2.437  23.714  0.00  0.00    +0.027 C 
ATOM     10  C   UNL     1      -4.005   2.066  24.313  0.00  0.00    +0.138 C 
ENDROOT
BRANCH  10  11
ATOM     11  C   UNL     1      -4.148   1.312  24.617  0.00  0.00    +0.251 A 
ATOM     12  N   UNL     1      -3.882   0.601  24.294  0.00  0.00    -0.188 NA
ATOM     13  C   UNL     1      -4.151  -0.014  24.773  0.00  0.00    +0.221 A 
ATOM     14  N   UNL     1      -4.584   0.317  25.393  0.00  0.00    -0.054 NA
ATOM     15  O   UNL     1      -4.582   1.136  25.296  0.00  0.00    -0.336 OA
BRANCH  13  16
ATOM     16  C   UNL     1      -4.012  -0.818  24.654  0.00  0.00    +0.120 A 
ATOM     17  N   UNL     1      -4.341  -1.201  24.002  0.00  0.00    -0.238 NA
ATOM     18  C   UNL     1      -4.202  -2.006  23.882  0.00  0.00    +0.128 A 
ATOM     19  C   UNL     1      -3.735  -2.427  24.416  0.00  0.00    +0.159 A 
ATOM     20  F   UNL     1      -3.596  -3.232  24.297  0.00  0.00    -0.203 F 
ATOM     21  C   UNL     1      -3.406  -2.044  25.069  0.00  0.00    +0.033 A 
ATOM     22  C   UNL     1      -3.545  -1.240  25.187  0.00  0.00    +0.025 A 
ENDBRANCH  13  16
ENDBRANCH  10  11
BRANCH   6   5
ATOM      5  C   UNL     1      -2.848   2.432  25.146  0.00  0.00    +0.101 C 
BRANCH   5   4
ATOM      1  C   UNL     1      -1.167   4.799  25.186  0.00  0.00    +0.130 C 
ATOM      2  N   UNL     1      -1.422   4.017  25.247  0.00  0.00    -0.324 N 
ATOM      3  C   UNL     1      -2.187   3.744  25.101  0.00  0.00    +0.073 A 
ATOM      4  C   UNL     1      -2.195   2.929  25.228  0.00  0.00    +0.012 A 
ATOM     23  C   UNL     1      -1.436   2.699  25.453  0.00  0.00    +0.015 A 
ATOM     24  C   UNL     1      -0.958   3.371  25.465  0.00  0.00    +0.060 A 
ATOM     25  C   UNL     1      -0.162   3.308  25.672  0.00  0.00    +0.017 A 
ATOM     26  C   UNL     1       0.156   2.573  25.868  0.00  0.00    +0.001 A 
ATOM     27  C   UNL     1      -0.322   1.900  25.856  0.00  0.00    +0.000 A 
ATOM     28  C   UNL     1      -1.117   1.963  25.649  0.00  0.00    +0.001 A 
ENDBRANCH   5   4
ENDBRANCH   6   5
TORSDOF 4
ENDMDL
MODEL 3
REMARK VINA RESULT:     -12.6      2.075      2.950
REMARK  Name = 
REMARK  4 active torsions:
REMARK  status: ('A' for Active; 'I' for Inactive)
REMARK    1  A    between atoms: C_4  and  C_5
REMARK    2  A    between atoms: C_5  and  N_6
REMARK    3  A    between atoms: C_10  and  C_11
REMARK    4  A    between atoms: C_13  and  C_16
REMARK                            x       y       z     vdW  Elec       q    Type
REMARK                         _______ _______ _______ _____ _____    ______ ____
ROOT
ATOM      6  N   UNL     1      -0.853   0.111  24.415  0.00  0.00    -0.263 NA
ATOM      7  C   UNL     1      -0.496  -0.424  23.898  0.00  0.00    +0.073 C 
ATOM      8  C   UNL     1       0.214  -0.093  23.639  0.00  0.00    +0.019 C 
ATOM      9  C   UNL     1       0.297   0.646  23.996  0.00  0.00    +0.027 C 
ATOM     10  C   UNL     1      -0.362   0.772  24.475  0.00  0.00    +0.138 C 
ENDROOT
BRANCH  10  11
ATOM     11  C   UNL     1      -0.507   1.442  24.935  0.00  0.00    +0.251 A 
ATOM     12  N   UNL     1      -0.760   2.176  24.656  0.00  0.00    -0.188 NA
ATOM     13  C   UNL     1      -0.835   2.683  25.302  0.00  0.00    +0.221 A 
ATOM     14  N   UNL     1      -0.627   2.263  25.981  0.00  0.00    -0.054 NA
ATOM     15  O   UNL     1      -0.425   1.496  25.754  0.00  0.00    -0.336 OA
BRANCH  13  16
ATOM     16  C   UNL     1      -1.074   3.472  25.274  0.00  0.00    +0.120 A 
ATOM     17  N   UNL     1      -0.570   4.045  24.961  0.00  0.00    -0.238 NA
ATOM     18  C   UNL     1      -0.809   4.835  24.933  0.00  0.00    +0.128 A 
ATOM     19  C   UNL     1      -1.552   5.050  25.219  0.00  0.00    +0.159 A 
ATOM     20  F   UNL     1      -1.791   5.840  25.192  0.00  0.00    -0.203 F 
ATOM     21  C   UNL     1      -2.056   4.477  25.533  0.00  0.00    +0.033 A 
ATOM     22  C   UNL     1      -1.817   3.689  25.560  0.00  0.00    +0.025 A 
ENDBRANCH  13  16
ENDBRANCH  10  11
BRANCH   6   5
ATOM      5  C   UNL     1      -1.573   0.003  24.803  0.00  0.00    +0.101 C 
BRANCH   5   4
ATOM      1  C   UNL     1      -2.246  -2.811  24.556  0.00  0.00    +0.130 C 
ATOM      2  N   UNL     1      -2.308  -1.989  24.581  0.00  0.00    -0.324 N 
ATOM      3  C   UNL     1      -1.689  -1.460  24.717  0.00  0.00    +0.073 A 
ATOM      4  C   UNL     1      -1.999  -0.695  24.695  0.00  0.00    +0.012 A 
ATOM     23  C   UNL     1      -2.807  -0.752  24.546  0.00  0.00    +0.015 A 
ATOM     24  C   UNL     1      -2.998  -1.552  24.475  0.00  0.00    +0.060 A 
ATOM     25  C   UNL     1      -3.778  -1.777  24.324  0.00  0.00    +0.017 A 
ATOM     26  C   UNL     1      -4.365  -1.205  24.243  0.00  0.00    +0.001 A 
ATOM     27  C   UNL     1      -4.174  -0.405  24.313  0.00  0.00    +0.000 A 
ATOM     28  C   UNL     1      -3.395  -0.178  24.464  0.00  0.00    +0.001 A 
ENDBRANCH   5   4
ENDBRANCH   6   5
TORSDOF 4
ENDMDL
MODEL 4
REMARK VINA RESULT:     -12.3      2.455      5.391
REMARK  Name = 
REMARK  4 active torsions:
REMARK  status: ('A' for Active; 'I' for Inactive)
REMARK    1  A    between atoms: C_4  and  C_5
REMARK    2  A    between atoms: C_5  and  N_6
REMARK    3  A    between atoms: C_10  and  C_11
REMARK    4  A    between atoms: C_13  and  C_16
REMARK                            x       y       z     vdW  Elec       q    Type
REMARK                         _______ _______ _______ _____ _____    ______ ____
ROOT
ATOM      6  N   UNL     1      -0.951   1.741  24.907  0.00  0.00    -0.263 NA
ATOM      7  C   UNL     1      -0.403   2.240  24.545  0.00  0.00    +0.073 C 
ATOM      8  C   UNL     1       0.205   1.774  24.241  0.00  0.00    +0.019 C 
ATOM      9  C   UNL     1       0.034   0.986  24.415  0.00  0.00    +0.027 C 
ATOM     10  C   UNL     1      -0.680   0.966  24.826  0.00  0.00    +0.138 C 
ENDROOT
BRANCH  10  11
ATOM     11  C   UNL     1      -1.059   0.289  25.109  0.00  0.00    +0.251 A 
ATOM     12  N   UNL     1      -1.564  -0.199  24.677  0.00  0.00    -0.188 NA
ATOM     13  C   UNL     1      -1.817  -0.808  25.173  0.00  0.00    +0.221 A 
ATOM     14  N   UNL     1      -1.469  -0.695  25.913  0.00  0.00    -0.054 NA
ATOM     15  O   UNL     1      -1.001  -0.017  25.873  0.00  0.00    -0.336 OA
BRANCH  13  16
ATOM     16  C   UNL     1      -2.328  -1.421  24.967  0.00  0.00    +0.120 A 
ATOM     17  N   UNL     1      -2.034  -2.097  24.596  0.00  0.00    -0.238 NA
ATOM     18  C   UNL     1      -2.545  -2.711  24.390  0.00  0.00    +0.128 A 
ATOM     19  C   UNL     1      -3.351  -2.648  24.554  0.00  0.00    +0.159 A 
ATOM     20  F   UNL     1      -3.863  -3.263  24.347  0.00  0.00    -0.203 F 
ATOM     21  C   UNL     1      -3.646  -1.973  24.925  0.00  0.00    +0.033 A 
ATOM     22  C   UNL     1      -3.135  -1.360  25.131  0.00  0.00    +0.025 A 
ENDBRANCH  13  16
ENDBRANCH  10  11
BRANCH   6   5
ATOM      5  C   UNL     1      -1.646   1.977  25.283  0.00  0.00    +0.101 C 
BRANCH   5   4
ATOM      1  C   UNL     1      -1.663   4.881  25.266  0.00  0.00    +0.130 C 
ATOM      2  N   UNL     1      -1.908   4.095  25.219  0.00  0.00    -0.324 N 
ATOM      3  C   UNL     1      -1.430   3.430  25.321  0.00  0.00    +0.073 A 
ATOM      4  C   UNL     1      -1.901   2.760  25.227  0.00  0.00    +0.012 A 
ATOM     23  C   UNL     1      -2.670   3.009  25.066  0.00  0.00    +0.015 A 
ATOM     24  C   UNL     1      -2.675   3.834  25.061  0.00  0.00    +0.060 A 
ATOM     25  C   UNL     1      -3.377   4.241  24.913  0.00  0.00    +0.017 A 
ATOM     26  C   UNL     1      -4.074   3.825  24.771  0.00  0.00    +0.001 A 
ATOM     27  C   UNL     1      -4.069   3.000  24.776  0.00  0.00    +0.000 A 
ATOM     28  C   UNL     1      -3.367   2.592  24.923  0.00  0.00    +0.001 A 
ENDBRANCH   5   4
ENDBRANCH   6   5
TORSDOF 4
ENDMDL
MODEL 5
REMARK VINA RESULT:     -12.2      1.937      2.858
REMARK  Name = 
REMARK  4 active torsions:
REMARK  status: ('A' for Active; 'I' for Inactive)
REMARK    1  A    between atoms: C_4  and  C_5
REMARK    2  A    between atoms: C_5  and  N_6
REMARK    3  A    between atoms: C_10  and  C_11
REMARK    4  A    between atoms: C_13  and  C_16
REMARK                            x       y       z     vdW  Elec       q    Type
REMARK                         _______ _______ _______ _____ _____    ______ ____
ROOT
ATOM      6  N   UNL     1      -1.794   0.485  24.451  0.00  0.00    -0.263 NA
ATOM      7  C   UNL     1      -1.005   0.246  24.504  0.00  0.00    +0.073 C 
ATOM      8  C   UNL     1      -0.530   0.890  24.306  0.00  0.00    +0.019 C 
ATOM      9  C   UNL     1      -1.023   1.527  24.129  0.00  0.00    +0.027 C 
ATOM     10  C   UNL     1      -1.803   1.277  24.220  0.00  0.00    +0.138 C 
ENDROOT
BRANCH  10  11
ATOM     11  C   UNL     1      -2.478   1.737  24.099  0.00  0.00    +0.251 A 
ATOM     12  N   UNL     1      -2.958   2.057  24.689  0.00  0.00    -0.188 NA
ATOM     13  C   UNL     1      -3.567   2.476  24.324  0.00  0.00    +0.221 A 
ATOM     14  N   UNL     1      -3.464   2.415  23.507  0.00  0.00    -0.054 NA
ATOM     15  O   UNL     1      -2.791   1.959  23.369  0.00  0.00    -0.336 OA
BRANCH  13  16
ATOM     16  C   UNL     1      -4.173   2.884  24.706  0.00  0.00    +0.120 A 
ATOM     17  N   UNL     1      -4.057   3.665  24.946  0.00  0.00    -0.238 NA
ATOM     18  C   UNL     1      -4.663   4.074  25.329  0.00  0.00    +0.128 A 
ATOM     19  C   UNL     1      -5.385   3.701  25.472  0.00  0.00    +0.159 A 
ATOM     20  F   UNL     1      -5.992   4.110  25.855  0.00  0.00    -0.203 F 
ATOM     21  C   UNL     1      -5.501   2.920  25.232  0.00  0.00    +0.033 A 
ATOM     22  C   UNL     1      -4.895   2.512  24.850  0.00  0.00    +0.025 A 
ENDBRANCH  13  16
ENDBRANCH  10  11
BRANCH   6   5
ATOM      5  C   UNL     1      -2.454   0.015  24.603  0.00  0.00    +0.101 C 
BRANCH   5   4
ATOM      1  C   UNL     1      -1.349  -2.653  24.911  0.00  0.00    +0.130 C 
ATOM      2  N   UNL     1      -1.872  -2.034  24.760  0.00  0.00    -0.324 N 
ATOM      3  C   UNL     1      -1.699  -1.228  24.818  0.00  0.00    +0.073 A 
ATOM      4  C   UNL     1      -2.380  -0.807  24.619  0.00  0.00    +0.012 A 
ATOM     23  C   UNL     1      -2.973  -1.351  24.438  0.00  0.00    +0.015 A 
ATOM     24  C   UNL     1      -2.659  -2.109  24.526  0.00  0.00    +0.060 A 
ATOM     25  C   UNL     1      -3.131  -2.769  24.380  0.00  0.00    +0.017 A 
ATOM     26  C   UNL     1      -3.916  -2.673  24.148  0.00  0.00    +0.001 A 
ATOM     27  C   UNL     1      -4.230  -1.915  24.060  0.00  0.00    +0.000 A 
ATOM     28  C   UNL     1      -3.759  -1.253  24.206  0.00  0.00    +0.001 A 
ENDBRANCH   5   4
ENDBRANCH   6   5
TORSDOF 4
ENDMDL
MODEL 6
REMARK VINA RESULT:     -11.9      2.357      4.246
REMARK  Name = 
REMARK  4 active torsions:
REMARK  status: ('A' for Active; 'I' for Inactive)
REMARK    1  A    between atoms: C_4  and  C_5
REMARK    2  A    between atoms: C_5  and  N_6
REMARK    3  A    between atoms: C_10  and  C_11
REMARK    4  A    between atoms: C_13  and  C_16
REMARK                            x       y       z     vdW  Elec       q    Type
REMARK                         _______ _______ _______ _____ _____    ______ ____
ROOT
ATOM      6  N   UNL     1      -2.507   3.258  24.838  0.00  0.00    -0.263 NA
ATOM      7  C   UNL     1      -2.526   4.012  25.175  0.00  0.00    +0.073 C 
ATOM      8  C   UNL     1      -1.758   4.207  25.405  0.00  0.00    +0.019 C 
ATOM      9  C   UNL     1      -1.265   3.575  25.211  0.00  0.00    +0.027 C 
ATOM     10  C   UNL     1      -1.728   2.989  24.861  0.00  0.00    +0.138 C 
ENDROOT
BRANCH  10  11
ATOM     11  C   UNL     1      -1.459   2.261  24.581  0.00  0.00    +0.251 A 
ATOM     12  N   UNL     1      -1.368   1.574  25.028  0.00  0.00    -0.188 NA
ATOM     13  C   UNL     1      -1.087   0.979  24.530  0.00  0.00    +0.221 A 
ATOM     14  N   UNL     1      -1.006   1.299  23.773  0.00  0.00    -0.054 NA
ATOM     15  O   UNL     1      -1.236   2.090  23.805  0.00  0.00    -0.336 OA
BRANCH  13  16
ATOM     16  C   UNL     1      -0.918   0.203  24.748  0.00  0.00    +0.120 A 
ATOM     17  N   UNL     1      -0.364  -0.235  24.322  0.00  0.00    -0.238 NA
ATOM     18  C   UNL     1      -0.194  -1.013  24.540  0.00  0.00    +0.128 A 
ATOM     19  C   UNL     1      -0.580  -1.352  25.185  0.00  0.00    +0.159 A 
ATOM     20  F   UNL     1      -0.410  -2.130  25.404  0.00  0.00    -0.203 F 
ATOM     21  C   UNL     1      -1.134  -0.915  25.612  0.00  0.00    +0.033 A 
ATOM     22  C   UNL     1      -1.303  -0.138  25.394  0.00  0.00    +0.025 A 
ENDBRANCH  13  16
ENDBRANCH  10  11
BRANCH   6   5
ATOM      5  C   UNL     1      -3.155   2.848  24.533  0.00  0.00    +0.101 C 
BRANCH   5   4
ATOM      1  C   UNL     1      -5.476   4.228  25.601  0.00  0.00    +0.130 C 
ATOM      2  N   UNL     1      -4.980   3.636  25.311  0.00  0.00    -0.324 N 
ATOM      3  C   UNL     1      -4.198   3.735  25.068  0.00  0.00    +0.073 A 
ATOM      4  C   UNL     1      -3.913   3.002  24.820  0.00  0.00    +0.012 A 
ATOM     23  C   UNL     1      -4.519   2.450  24.910  0.00  0.00    +0.015 A 
ATOM     24  C   UNL     1      -5.178   2.842  25.213  0.00  0.00    +0.060 A 
ATOM     25  C   UNL     1      -5.874   2.424  25.361  0.00  0.00    +0.017 A 
ATOM     26  C   UNL     1      -5.911   1.615  25.206  0.00  0.00    +0.001 A 
ATOM     27  C   UNL     1      -5.251   1.223  24.902  0.00  0.00    +0.000 A 
ATOM     28  C   UNL     1      -4.555   1.640  24.754  0.00  0.00    +0.001 A 
ENDBRANCH   5   4
ENDBRANCH   6   5
TORSDOF 4
ENDMDL
