MODEL 1
REMARK VINA RESULT:     -10.0      0.000      0.000
REMARK  Name = 
REMARK  5 active torsions:
REMARK  status: ('A' for Active; 'I' for Inactive)
REMARK    1  A    between atoms: C_4  and  C_13
REMARK    2  A    between atoms: C_6  and  C_8
REMARK    3  A    between atoms: C_20  and  C_21
REMARK    4  A    between atoms: C_21  and  N_22
REMARK    5  A    between atoms: N_25  and  C_26
REMARK                            x       y       z     vdW  Elec       q    Type
REMARK                         _______ _______ _______ _____ _____    ______ ____
ROOT
ATOM     13  C   UNL     1      -2.053   0.513  24.147  0.00  0.00    +0.056 C 
ATOM     14  C   UNL     1      -1.847   0.914  23.513  0.00  0.00    +0.078 C 
ATOM     15  N   UNL     1      -1.336   0.615  24.087  0.00  0.00    -0.272 NA
ATOM     16  C   UNL     1      -1.926   0.129  24.804  0.00  0.00    +0.072 C 
ATOM     17  C   UNL     1      -1.980  -0.211  25.360  0.00  0.00    +0.018 C 
ATOM     18  C   UNL     1      -1.545   0.223  24.707  0.00  0.00    +0.010 C 
ATOM     19  C   UNL     1      -0.671   0.258  24.782  0.00  0.00    +0.018 C 
ATOM     20  C   UNL     1      -0.428   0.648  24.173  0.00  0.00    +0.079 C 
ENDROOT
BRANCH  13   4
ATOM      1  C   UNL     1      -4.290  -1.264  24.051  0.00  0.00    +0.074 C 
ATOM      2  C   UNL     1      -3.977  -0.518  24.211  0.00  0.00    +0.139 A 
ATOM      3  N   UNL     1      -3.172  -0.376  24.099  0.00  0.00    -0.235 NA
ATOM      4  C   UNL     1      -2.859   0.371  24.259  0.00  0.00    +0.063 A 
ATOM      5  C   UNL     1      -3.350   0.975  24.531  0.00  0.00    +0.037 A 
ATOM      6  C   UNL     1      -4.154   0.832  24.643  0.00  0.00    +0.118 A 
ATOM      7  N   UNL     1      -4.468   0.087  24.484  0.00  0.00    -0.228 NA
BRANCH   6   8
ATOM      8  C   UNL     1      -4.647   1.436  24.916  0.00  0.00    +0.163 A 
ATOM      9  C   UNL     1      -4.830   2.132  24.511  0.00  0.00    +0.042 A 
ATOM     10  C   UNL     1      -5.338   2.576  24.985  0.00  0.00    +0.044 A 
ATOM     11  C   UNL     1      -5.469   2.155  25.683  0.00  0.00    +0.180 A 
ATOM     12  O   UNL     1      -5.042   1.451  25.640  0.00  0.00    -0.449 OA
ENDBRANCH   6   8
ENDBRANCH  13   4
BRANCH  20  21
ATOM     21  C   UNL     1       0.255   0.931  23.807  0.00  0.00    +0.133 C 
BRANCH  21  22
ATOM     22  N   UNL     1       0.751   0.412  23.402  0.00  0.00    -0.185 NA
ATOM     23  C   UNL     1       1.559   0.569  23.350  0.00  0.00    +0.344 C 
ATOM     24  O   UNL     1       1.871   1.246  23.703  0.00  0.00    -0.249 OA
ATOM     25  N   UNL     1       2.056   0.049  22.946  0.00  0.00    -0.161 NA
BRANCH  25  26
ATOM     26  C   UNL     1       2.864   0.207  22.894  0.00  0.00    +0.075 A 
ATOM     27  C   UNL     1       3.133   0.835  22.431  0.00  0.00    +0.017 A 
ATOM     28  C   UNL     1       3.941   0.993  22.380  0.00  0.00    +0.001 A 
ATOM     29  C   UNL     1       4.481   0.523  22.790  0.00  0.00    +0.000 A 
ATOM     30  C   UNL     1       4.212  -0.105  23.253  0.00  0.00    +0.001 A 
ATOM     31  C   UNL     1       3.404  -0.263  23.305  0.00  0.00    +0.017 A 
ENDBRANCH  25  26
ENDBRANCH  21  22
ENDBRANCH  20  21
TORSDOF 5
ENDMDL
MODEL 2
REMARK VINA RESULT:      -9.9      3.469      4.838
REMARK  Name = 
REMARK  5 active torsions:
REMARK  status: ('A' for Active; 'I' for Inactive)
REMARK    1  A    between atoms: C_4  and  C_13
REMARK    2  A    between atoms: C_6  and  C_8
REMARK    3  A    between atoms: C_20  and  C_21
REMARK    4  A    between atoms: C_21  and  N_22
REMARK    5  A    between atoms: N_25  and  C_26
REMARK                            x       y       z     vdW  Elec       q    Type
REMARK                         _______ _______ _______ _____ _____    ______ ____
ROOT
ATOM     13  C   UNL     1      -3.729   0.291  24.428  0.00  0.00    +0.056 C 
ATOM     14  C   UNL     1      -3.329   0.769  23.963  0.00  0.00    +0.078 C 
ATOM     15  N   UNL     1      -3.871   0.994  24.544  0.00  0.00    -0.272 NA
ATOM     16  C   UNL     1      -4.231   0.116  24.988  0.00  0.00    +0.072 C 
ATOM     17  C   UNL     1      -4.614  -0.184  25.424  0.00  0.00    +0.018 C 
ATOM     18  C   UNL     1      -4.259   0.519  24.996  0.00  0.00    +0.010 C 
ATOM     19  C   UNL     1      -4.538   1.310  25.257  0.00  0.00    +0.018 C 
ATOM     20  C   UNL     1      -4.165   1.813  24.820  0.00  0.00    +0.079 C 
ENDROOT
BRANCH  13   4
ATOM      1  C   UNL     1      -4.672  -2.285  23.624  0.00  0.00    +0.074 C 
ATOM      2  C   UNL     1      -4.075  -1.808  23.933  0.00  0.00    +0.139 A 
ATOM      3  N   UNL     1      -4.201  -0.998  24.026  0.00  0.00    -0.235 NA
ATOM      4  C   UNL     1      -3.603  -0.520  24.335  0.00  0.00    +0.063 A 
ATOM      5  C   UNL     1      -2.880  -0.852  24.551  0.00  0.00    +0.037 A 
ATOM      6  C   UNL     1      -2.754  -1.662  24.458  0.00  0.00    +0.118 A 
ATOM      7  N   UNL     1      -3.351  -2.140  24.149  0.00  0.00    -0.228 NA
BRANCH   6   8
ATOM      8  C   UNL     1      -2.030  -1.994  24.673  0.00  0.00    +0.163 A 
ATOM      9  C   UNL     1      -1.618  -2.572  24.253  0.00  0.00    +0.042 A 
ATOM     10  C   UNL     1      -0.925  -2.743  24.666  0.00  0.00    +0.044 A 
ATOM     11  C   UNL     1      -0.909  -2.272  25.343  0.00  0.00    +0.180 A 
ATOM     12  O   UNL     1      -1.592  -1.809  25.348  0.00  0.00    -0.449 OA
ENDBRANCH   6   8
ENDBRANCH  13   4
BRANCH  20  21
ATOM     21  C   UNL     1      -4.079   2.621  24.681  0.00  0.00    +0.133 C 
BRANCH  21  22
ATOM     22  N   UNL     1      -3.690   3.095  25.232  0.00  0.00    -0.185 NA
ATOM     23  C   UNL     1      -3.063   3.576  24.996  0.00  0.00    +0.344 C 
ATOM     24  O   UNL     1      -2.825   3.582  24.206  0.00  0.00    -0.249 OA
ATOM     25  N   UNL     1      -2.675   4.050  25.547  0.00  0.00    -0.161 NA
BRANCH  25  26
ATOM     26  C   UNL     1      -2.048   4.531  25.310  0.00  0.00    +0.075 A 
ATOM     27  C   UNL     1      -2.168   5.339  25.195  0.00  0.00    +0.017 A 
ATOM     28  C   UNL     1      -1.540   5.820  24.957  0.00  0.00    +0.001 A 
ATOM     29  C   UNL     1      -0.793   5.492  24.834  0.00  0.00    +0.000 A 
ATOM     30  C   UNL     1      -0.673   4.684  24.949  0.00  0.00    +0.001 A 
ATOM     31  C   UNL     1      -1.301   4.204  25.187  0.00  0.00    +0.017 A 
ENDBRANCH  25  26
ENDBRANCH  21  22
ENDBRANCH  20  21
TORSDOF 5
ENDMDL
MODEL 3
REMARK VINA RESULT:      -9.5      0.964      2.088
REMARK  Name = 
REMARK  5 active torsions:
REMARK  status: ('A' for Active; 'I' for Inactive)
REMARK    1  A    between atoms: C_4  and  C_13
REMARK    2  A    between atoms: C_6  and  C_8
REMARK    3  A    between atoms: C_20  and  C_21
REMARK    4  A    between atoms: C_21  and  N_22
REMARK    5  A    between atoms: N_25  and  C_26
REMARK                            x       y       z     vdW  Elec       q    Type
REMARK                         _______ _______ _______ _____ _____    ______ ____
ROOT
ATOM     13  C   UNL     1      -1.755   0.551  24.272  0.00  0.00    +0.056 C 
ATOM     14  C   UNL     1      -1.187   0.261  24.718  0.00  0.00    +0.078 C 
ATOM     15  N   UNL     1      -1.091   0.774  24.078  0.00  0.00    -0.272 NA
ATOM     16  C   UNL     1      -2.047   0.973  23.695  0.00  0.00    +0.072 C 
ATOM     17  C   UNL     1      -2.435   1.272  23.263  0.00  0.00    +0.018 C 
ATOM     18  C   UNL     1      -1.654   1.053  23.646  0.00  0.00    +0.010 C 
ATOM     19  C   UNL     1      -0.936   1.410  23.288  0.00  0.00    +0.018 C 
ATOM     20  C   UNL     1      -0.349   1.148  23.701  0.00  0.00    +0.079 C 
ENDROOT
BRANCH  13   4
ATOM      1  C   UNL     1      -4.338   1.190  25.318  0.00  0.00    +0.074 C 
ATOM      2  C   UNL     1      -3.820   0.646  24.976  0.00  0.00    +0.139 A 
ATOM      3  N   UNL     1      -3.047   0.870  24.795  0.00  0.00    -0.235 NA
ATOM      4  C   UNL     1      -2.529   0.326  24.454  0.00  0.00    +0.063 A 
ATOM      5  C   UNL     1      -2.784  -0.441  24.293  0.00  0.00    +0.037 A 
ATOM      6  C   UNL     1      -3.556  -0.666  24.475  0.00  0.00    +0.118 A 
ATOM      7  N   UNL     1      -4.075  -0.122  24.816  0.00  0.00    -0.228 NA
BRANCH   6   8
ATOM      8  C   UNL     1      -3.812  -1.433  24.315  0.00  0.00    +0.163 A 
ATOM      9  C   UNL     1      -3.625  -2.108  24.752  0.00  0.00    +0.042 A 
ATOM     10  C   UNL     1      -3.997  -2.753  24.398  0.00  0.00    +0.044 A 
ATOM     11  C   UNL     1      -4.414  -2.478  23.742  0.00  0.00    +0.180 A 
ATOM     12  O   UNL     1      -4.300  -1.663  23.690  0.00  0.00    -0.449 OA
ENDBRANCH   6   8
ENDBRANCH  13   4
BRANCH  20  21
ATOM     21  C   UNL     1       0.472   1.183  23.767  0.00  0.00    +0.133 C 
BRANCH  21  22
ATOM     22  N   UNL     1       0.945   0.735  23.261  0.00  0.00    -0.185 NA
ATOM     23  C   UNL     1       1.767   0.777  23.320  0.00  0.00    +0.344 C 
ATOM     24  O   UNL     1       2.115   1.267  23.885  0.00  0.00    -0.249 OA
ATOM     25  N   UNL     1       2.240   0.328  22.815  0.00  0.00    -0.161 NA
BRANCH  25  26
ATOM     26  C   UNL     1       3.062   0.370  22.874  0.00  0.00    +0.075 A 
ATOM     27  C   UNL     1       3.465   1.023  22.570  0.00  0.00    +0.017 A 
ATOM     28  C   UNL     1       4.287   1.065  22.630  0.00  0.00    +0.001 A 
ATOM     29  C   UNL     1       4.706   0.454  22.993  0.00  0.00    +0.000 A 
ATOM     30  C   UNL     1       4.303  -0.198  23.297  0.00  0.00    +0.001 A 
ATOM     31  C   UNL     1       3.481  -0.240  23.238  0.00  0.00    +0.017 A 
ENDBRANCH  25  26
ENDBRANCH  21  22
ENDBRANCH  20  21
TORSDOF 5
ENDMDL
MODEL 4
REMARK VINA RESULT:      -9.1      3.568      5.561
REMARK  Name = 
REMARK  5 active torsions:
REMARK  status: ('A' for Active; 'I' for Inactive)
REMARK    1  A    between atoms: C_4  and  C_13
REMARK    2  A    between atoms: C_6  and  C_8
REMARK    3  A    between atoms: C_20  and  C_21
REMARK    4  A    between atoms: C_21  and  N_22
REMARK    5  A    between atoms: N_25  and  C_26
REMARK                            x       y       z     vdW  Elec       q    Type
REMARK                         _______ _______ _______ _____ _____    ______ ____
ROOT
ATOM     13  C   UNL     1      -3.646   2.683  25.266  0.00  0.00    +0.056 C 
ATOM     14  C   UNL     1      -3.436   2.022  25.618  0.00  0.00    +0.078 C 
ATOM     15  N   UNL     1      -4.011   2.101  25.031  0.00  0.00    -0.272 NA
ATOM     16  C   UNL     1      -4.051   3.116  24.771  0.00  0.00    +0.072 C 
ATOM     17  C   UNL     1      -4.304   3.601  24.415  0.00  0.00    +0.018 C 
ATOM     18  C   UNL     1      -4.211   2.753  24.691  0.00  0.00    +0.010 C 
ATOM     19  C   UNL     1      -4.732   2.162  24.304  0.00  0.00    +0.018 C 
ATOM     20  C   UNL     1      -4.556   1.492  24.624  0.00  0.00    +0.079 C 
ENDROOT
BRANCH  13   4
ATOM      1  C   UNL     1      -3.551   5.046  26.873  0.00  0.00    +0.074 C 
ATOM      2  C   UNL     1      -3.211   4.556  26.303  0.00  0.00    +0.139 A 
ATOM      3  N   UNL     1      -3.598   3.865  26.069  0.00  0.00    -0.235 NA
ATOM      4  C   UNL     1      -3.258   3.375  25.499  0.00  0.00    +0.063 A 
ATOM      5  C   UNL     1      -2.533   3.574  25.163  0.00  0.00    +0.037 A 
ATOM      6  C   UNL     1      -2.146   4.264  25.396  0.00  0.00    +0.118 A 
ATOM      7  N   UNL     1      -2.485   4.755  25.966  0.00  0.00    -0.228 NA
BRANCH   6   8
ATOM      8  C   UNL     1      -1.420   4.464  25.059  0.00  0.00    +0.163 A 
ATOM      9  C   UNL     1      -1.161   5.228  24.882  0.00  0.00    +0.042 A 
ATOM     10  C   UNL     1      -0.407   5.173  24.555  0.00  0.00    +0.044 A 
ATOM     11  C   UNL     1      -0.198   4.375  24.529  0.00  0.00    +0.180 A 
ATOM     12  O   UNL     1      -0.824   3.937  24.841  0.00  0.00    -0.449 OA
ENDBRANCH   6   8
ENDBRANCH  13   4
BRANCH  20  21
ATOM     21  C   UNL     1      -4.746   0.690  24.610  0.00  0.00    +0.133 C 
BRANCH  21  22
ATOM     22  N   UNL     1      -4.346   0.180  24.099  0.00  0.00    -0.185 NA
ATOM     23  C   UNL     1      -4.182  -0.593  24.332  0.00  0.00    +0.344 C 
ATOM     24  O   UNL     1      -4.418  -0.858  25.077  0.00  0.00    -0.249 OA
ATOM     25  N   UNL     1      -3.782  -1.103  23.821  0.00  0.00    -0.161 NA
BRANCH  25  26
ATOM     26  C   UNL     1      -3.618  -1.877  24.055  0.00  0.00    +0.075 A 
ATOM     27  C   UNL     1      -4.152  -2.482  23.882  0.00  0.00    +0.017 A 
ATOM     28  C   UNL     1      -3.989  -3.256  24.116  0.00  0.00    +0.001 A 
ATOM     29  C   UNL     1      -3.291  -3.426  24.523  0.00  0.00    +0.000 A 
ATOM     30  C   UNL     1      -2.758  -2.821  24.697  0.00  0.00    +0.001 A 
ATOM     31  C   UNL     1      -2.921  -2.047  24.463  0.00  0.00    +0.017 A 
ENDBRANCH  25  26
ENDBRANCH  21  22
ENDBRANCH  20  21
TORSDOF 5
ENDMDL
MODEL 5
REMARK VINA RESULT:      -8.7      1.456      2.123
REMARK  Name = 
REMARK  5 active torsions:
REMARK  status: ('A' for Active; 'I' for Inactive)
REMARK    1  A    between atoms: C_4  and  C_13
REMARK    2  A    between atoms: C_6  and  C_8
REMARK    3  A    between atoms: C_20  and  C_21
REMARK    4  A    between atoms: C_21  and  N_22
REMARK    5  A    between atoms: N_25  and  C_26
REMARK                            x       y       z     vdW  Elec       q    Type
REMARK                         _______ _______ _______ _____ _____    ______ ____
ROOT
ATOM     13  C   UNL     1      -2.208   2.089  24.242  0.00  0.00    +0.056 C 
ATOM     14  C   UNL     1      -1.730   1.990  24.848  0.00  0.00    +0.078 C 
ATOM     15  N   UNL     1      -1.620   1.691  24.086  0.00  0.00    -0.272 NA
ATOM     16  C   UNL     1      -2.440   2.003  23.511  0.00  0.00    +0.072 C 
ATOM     17  C   UNL     1      -2.761   2.020  22.942  0.00  0.00    +0.018 C 
ATOM     18  C   UNL     1      -2.094   1.793  23.498  0.00  0.00    +0.010 C 
ATOM     19  C   UNL     1      -1.452   1.305  23.151  0.00  0.00    +0.018 C 
ATOM     20  C   UNL     1      -0.957   1.184  23.719  0.00  0.00    +0.079 C 
ENDROOT
BRANCH  13   4
ATOM      1  C   UNL     1      -3.552   4.612  24.254  0.00  0.00    +0.074 C 
ATOM      2  C   UNL     1      -3.563   3.796  24.376  0.00  0.00    +0.139 A 
ATOM      3  N   UNL     1      -2.881   3.351  24.249  0.00  0.00    -0.235 NA
ATOM      4  C   UNL     1      -2.892   2.535  24.370  0.00  0.00    +0.063 A 
ATOM      5  C   UNL     1      -3.585   2.164  24.619  0.00  0.00    +0.037 A 
ATOM      6  C   UNL     1      -4.267   2.609  24.746  0.00  0.00    +0.118 A 
ATOM      7  N   UNL     1      -4.257   3.425  24.625  0.00  0.00    -0.228 NA
BRANCH   6   8
ATOM      8  C   UNL     1      -4.962   2.239  24.995  0.00  0.00    +0.163 A 
ATOM      9  C   UNL     1      -5.236   2.195  25.772  0.00  0.00    +0.042 A 
ATOM     10  C   UNL     1      -5.946   1.778  25.769  0.00  0.00    +0.044 A 
ATOM     11  C   UNL     1      -6.113   1.563  24.990  0.00  0.00    +0.180 A 
ATOM     12  O   UNL     1      -5.504   1.849  24.511  0.00  0.00    -0.449 OA
ENDBRANCH   6   8
ENDBRANCH  13   4
BRANCH  20  21
ATOM     21  C   UNL     1      -0.242   0.813  23.896  0.00  0.00    +0.133 C 
BRANCH  21  22
ATOM     22  N   UNL     1       0.221   0.501  23.289  0.00  0.00    -0.185 NA
ATOM     23  C   UNL     1       1.044   0.516  23.348  0.00  0.00    +0.344 C 
ATOM     24  O   UNL     1       1.403   0.843  24.014  0.00  0.00    -0.249 OA
ATOM     25  N   UNL     1       1.507   0.203  22.741  0.00  0.00    -0.161 NA
BRANCH  25  26
ATOM     26  C   UNL     1       2.330   0.218  22.801  0.00  0.00    +0.075 A 
ATOM     27  C   UNL     1       2.739  -0.459  23.032  0.00  0.00    +0.017 A 
ATOM     28  C   UNL     1       3.562  -0.444  23.092  0.00  0.00    +0.001 A 
ATOM     29  C   UNL     1       3.976   0.249  22.920  0.00  0.00    +0.000 A 
ATOM     30  C   UNL     1       3.567   0.926  22.689  0.00  0.00    +0.001 A 
ATOM     31  C   UNL     1       2.744   0.911  22.629  0.00  0.00    +0.017 A 
ENDBRANCH  25  26
ENDBRANCH  21  22
ENDBRANCH  20  21
TORSDOF 5
ENDMDL
MODEL 6
REMARK VINA RESULT:      -8.7      2.844      4.421
REMARK  Name = 
REMARK  5 active torsions:
REMARK  status: ('A' for Active; 'I' for Inactive)
REMARK    1  A    between atoms: C_4  and  C_13
REMARK    2  A    between atoms: C_6  and  C_8
REMARK    3  A    between atoms: C_20  and  C_21
REMARK    4  A    between atoms: C_21  and  N_22
REMARK    5  A    between atoms: N_25  and  C_26
REMARK                            x       y       z     vdW  Elec       q    Type
REMARK                         _______ _______ _______ _____ _____    ______ ____
ROOT
ATOM     13  C   UNL     1      -1.431   2.267  24.979  0.00  0.00    +0.056 C 
ATOM     14  C   UNL     1      -1.653   1.842  24.366  0.00  0.00    +0.078 C 
ATOM     15  N   UNL     1      -1.119   1.611  24.951  0.00  0.00    -0.272 NA
ATOM     16  C   UNL     1      -1.038   2.406  25.629  0.00  0.00    +0.072 C 
ATOM     17  C   UNL     1      -0.783   2.667  26.171  0.00  0.00    +0.018 C 
ATOM     18  C   UNL     1      -0.906   2.033  25.549  0.00  0.00    +0.010 C 
ATOM     19  C   UNL     1      -0.451   1.290  25.661  0.00  0.00    +0.018 C 
ATOM     20  C   UNL     1      -0.643   0.842  25.074  0.00  0.00    +0.079 C 
ENDROOT
BRANCH  13   4
ATOM      1  C   UNL     1      -1.123   5.109  24.993  0.00  0.00    +0.074 C 
ATOM      2  C   UNL     1      -1.604   4.442  25.062  0.00  0.00    +0.139 A 
ATOM      3  N   UNL     1      -1.277   3.688  24.986  0.00  0.00    -0.235 NA
ATOM      4  C   UNL     1      -1.758   3.021  25.055  0.00  0.00    +0.063 A 
ATOM      5  C   UNL     1      -2.565   3.108  25.200  0.00  0.00    +0.037 A 
ATOM      6  C   UNL     1      -2.892   3.861  25.276  0.00  0.00    +0.118 A 
ATOM      7  N   UNL     1      -2.412   4.528  25.207  0.00  0.00    -0.228 NA
BRANCH   6   8
ATOM      8  C   UNL     1      -3.699   3.949  25.421  0.00  0.00    +0.163 A 
ATOM      9  C   UNL     1      -4.279   4.108  24.856  0.00  0.00    +0.042 A 
ATOM     10  C   UNL     1      -5.006   4.151  25.241  0.00  0.00    +0.044 A 
ATOM     11  C   UNL     1      -4.878   4.017  26.045  0.00  0.00    +0.180 A 
ATOM     12  O   UNL     1      -4.070   3.892  26.156  0.00  0.00    -0.449 OA
ENDBRANCH   6   8
ENDBRANCH  13   4
BRANCH  20  21
ATOM     21  C   UNL     1      -0.503   0.099  24.744  0.00  0.00    +0.133 C 
BRANCH  21  22
ATOM     22  N   UNL     1      -0.751  -0.581  25.139  0.00  0.00    -0.185 NA
ATOM     23  C   UNL     1      -1.341  -1.056  24.813  0.00  0.00    +0.344 C 
ATOM     24  O   UNL     1      -1.683  -0.850  24.091  0.00  0.00    -0.249 OA
ATOM     25  N   UNL     1      -1.590  -1.736  25.209  0.00  0.00    -0.161 NA
BRANCH  25  26
ATOM     26  C   UNL     1      -2.181  -2.210  24.882  0.00  0.00    +0.075 A 
ATOM     27  C   UNL     1      -1.981  -2.813  24.355  0.00  0.00    +0.017 A 
ATOM     28  C   UNL     1      -2.571  -3.288  24.028  0.00  0.00    +0.001 A 
ATOM     29  C   UNL     1      -3.362  -3.160  24.228  0.00  0.00    +0.000 A 
ATOM     30  C   UNL     1      -3.561  -2.557  24.755  0.00  0.00    +0.001 A 
ATOM     31  C   UNL     1      -2.971  -2.083  25.082  0.00  0.00    +0.017 A 
ENDBRANCH  25  26
ENDBRANCH  21  22
ENDBRANCH  20  21
TORSDOF 5
ENDMDL
MODEL 7
REMARK VINA RESULT:      -8.5      2.787      4.392
REMARK  Name = 
REMARK  5 active torsions:
REMARK  status: ('A' for Active; 'I' for Inactive)
REMARK    1  A    between atoms: C_4  and  C_13
REMARK    2  A    between atoms: C_6  and  C_8
REMARK    3  A    between atoms: C_20  and  C_21
REMARK    4  A    between atoms: C_21  and  N_22
REMARK    5  A    between atoms: N_25  and  C_26
REMARK                            x       y       z     vdW  Elec       q    Type
REMARK                         _______ _______ _______ _____ _____    ______ ____
ROOT
ATOM     13  C   UNL     1      -0.841  -0.264  24.822  0.00  0.00    +0.056 C 
ATOM     14  C   UNL     1      -1.083   0.233  25.369  0.00  0.00    +0.078 C 
ATOM     15  N   UNL     1      -0.535   0.393  24.773  0.00  0.00    -0.272 NA
ATOM     16  C   UNL     1      -0.430  -0.482  24.206  0.00  0.00    +0.072 C 
ATOM     17  C   UNL     1      -0.158  -0.808  23.709  0.00  0.00    +0.018 C 
ATOM     18  C   UNL     1      -0.302  -0.100  24.240  0.00  0.00    +0.010 C 
ATOM     19  C   UNL     1       0.150   0.626  24.046  0.00  0.00    +0.018 C 
ATOM     20  C   UNL     1      -0.061   1.145  24.565  0.00  0.00    +0.079 C 
ENDROOT
BRANCH  13   4
ATOM      1  C   UNL     1      -0.565  -3.056  25.373  0.00  0.00    +0.074 C 
ATOM      2  C   UNL     1      -1.022  -2.421  25.111  0.00  0.00    +0.139 A 
ATOM      3  N   UNL     1      -0.703  -1.661  25.097  0.00  0.00    -0.235 NA
ATOM      4  C   UNL     1      -1.161  -1.026  24.835  0.00  0.00    +0.063 A 
ATOM      5  C   UNL     1      -1.937  -1.151  24.587  0.00  0.00    +0.037 A 
ATOM      6  C   UNL     1      -2.256  -1.912  24.600  0.00  0.00    +0.118 A 
ATOM      7  N   UNL     1      -1.799  -2.547  24.862  0.00  0.00    -0.228 NA
BRANCH   6   8
ATOM      8  C   UNL     1      -3.032  -2.038  24.352  0.00  0.00    +0.163 A 
ATOM      9  C   UNL     1      -3.409  -2.770  24.292  0.00  0.00    +0.042 A 
ATOM     10  C   UNL     1      -4.178  -2.640  24.024  0.00  0.00    +0.044 A 
ATOM     11  C   UNL     1      -4.277  -1.828  23.917  0.00  0.00    +0.180 A 
ATOM     12  O   UNL     1      -3.569  -1.456  24.120  0.00  0.00    -0.449 OA
ENDBRANCH   6   8
ENDBRANCH  13   4
BRANCH  20  21
ATOM     21  C   UNL     1       0.065   1.925  24.799  0.00  0.00    +0.133 C 
BRANCH  21  22
ATOM     22  N   UNL     1      -0.235   2.545  24.346  0.00  0.00    -0.185 NA
ATOM     23  C   UNL     1      -0.570   3.202  24.715  0.00  0.00    +0.344 C 
ATOM     24  O   UNL     1      -0.605   3.239  25.539  0.00  0.00    -0.249 OA
ATOM     25  N   UNL     1      -0.871   3.822  24.262  0.00  0.00    -0.161 NA
BRANCH  25  26
ATOM     26  C   UNL     1      -1.206   4.479  24.632  0.00  0.00    +0.075 A 
ATOM     27  C   UNL     1      -0.805   5.200  24.636  0.00  0.00    +0.017 A 
ATOM     28  C   UNL     1      -1.140   5.857  25.006  0.00  0.00    +0.001 A 
ATOM     29  C   UNL     1      -1.876   5.793  25.373  0.00  0.00    +0.000 A 
ATOM     30  C   UNL     1      -2.278   5.073  25.369  0.00  0.00    +0.001 A 
ATOM     31  C   UNL     1      -1.943   4.416  24.999  0.00  0.00    +0.017 A 
ENDBRANCH  25  26
ENDBRANCH  21  22
ENDBRANCH  20  21
TORSDOF 5
ENDMDL
