MODEL 1
REMARK VINA RESULT:     -11.8      0.000      0.000
REMARK  Name = 
REMARK  3 active torsions:
REMARK  status: ('A' for Active; 'I' for Inactive)
REMARK    1  A    between atoms: C_1  and  N_2
REMARK    2  A    between atoms: C_1  and  C_16
REMARK    3  A    between atoms: C_5  and  C_7
REMARK                            x       y       z     vdW  Elec       q    Type
REMARK                         _______ _______ _______ _____ _____    ______ ____
ROOT
ATOM      2  N   UNL     1      -4.225   2.202  24.523  0.00  0.00    -0.267 NA
ATOM      3  C   UNL     1      -4.939   2.049  24.908  0.00  0.00    +0.073 C 
ATOM      4  C   UNL     1      -5.006   1.232  25.005  0.00  0.00    +0.025 C 
ATOM      5  C   UNL     1      -4.333   0.880  24.679  0.00  0.00    +0.064 C 
ATOM      6  C   UNL     1      -3.851   1.480  24.382  0.00  0.00    +0.079 C 
ENDROOT
BRANCH   5   7
ATOM      7  C   UNL     1      -4.172   0.072  24.657  0.00  0.00    +0.089 A 
ATOM      8  N   UNL     1      -4.373  -0.446  24.047  0.00  0.00    -0.243 NA
ATOM      9  C   UNL     1      -4.106  -1.198  24.253  0.00  0.00    +0.087 A 
ATOM     10  C   UNL     1      -3.740  -1.146  24.990  0.00  0.00    +0.048 A 
ATOM     11  S   UNL     1      -3.780  -0.361  25.240  0.00  0.00    -0.071 S 
ATOM     12  C   UNL     1      -3.417  -1.821  25.339  0.00  0.00    +0.008 A 
ATOM     13  C   UNL     1      -3.460  -2.547  24.951  0.00  0.00    +0.001 A 
ATOM     14  C   UNL     1      -3.826  -2.599  24.213  0.00  0.00    +0.002 A 
ATOM     15  C   UNL     1      -4.149  -1.925  23.864  0.00  0.00    +0.020 A 
ENDBRANCH   5   7
BRANCH   2   1
ATOM      1  C   UNL     1      -3.936   2.946  24.315  0.00  0.00    +0.119 C 
BRANCH   1  16
ATOM     16  C   UNL     1      -3.384   3.324  24.797  0.00  0.00    +0.075 A 
ATOM     17  N   UNL     1      -2.579   3.258  24.632  0.00  0.00    -0.247 NA
ATOM     18  C   UNL     1      -2.027   3.637  25.115  0.00  0.00    +0.098 A 
ATOM     19  C   UNL     1      -2.280   4.079  25.763  0.00  0.00    +0.021 A 
ATOM     20  C   UNL     1      -3.085   4.145  25.928  0.00  0.00    +0.003 A 
ATOM     21  C   UNL     1      -3.638   3.767  25.446  0.00  0.00    +0.016 A 
ENDBRANCH   1  16
ENDBRANCH   2   1
TORSDOF 3
ENDMDL
MODEL 2
REMARK VINA RESULT:     -11.1      1.217      4.827
REMARK  Name = 
REMARK  3 active torsions:
REMARK  status: ('A' for Active; 'I' for Inactive)
REMARK    1  A    between atoms: C_1  and  N_2
REMARK    2  A    between atoms: C_1  and  C_16
REMARK    3  A    between atoms: C_5  and  C_7
REMARK                            x       y       z     vdW  Elec       q    Type
REMARK                         _______ _______ _______ _____ _____    ______ ____
ROOT
ATOM      2  N   UNL     1      -3.821   0.711  24.370  0.00  0.00    -0.267 NA
ATOM      3  C   UNL     1      -3.547   0.778  23.595  0.00  0.00    +0.073 C 
ATOM      4  C   UNL     1      -3.062   1.444  23.552  0.00  0.00    +0.025 C 
ATOM      5  C   UNL     1      -3.035   1.788  24.301  0.00  0.00    +0.064 C 
ATOM      6  C   UNL     1      -3.505   1.336  24.807  0.00  0.00    +0.079 C 
ENDROOT
BRANCH   5   7
ATOM      7  C   UNL     1      -2.614   2.467  24.509  0.00  0.00    +0.089 A 
ATOM      8  N   UNL     1      -2.935   3.165  24.809  0.00  0.00    -0.243 NA
ATOM      9  C   UNL     1      -2.317   3.695  24.937  0.00  0.00    +0.087 A 
ATOM     10  C   UNL     1      -1.613   3.325  24.717  0.00  0.00    +0.048 A 
ATOM     11  S   UNL     1      -1.796   2.566  24.452  0.00  0.00    -0.071 S 
ATOM     12  C   UNL     1      -0.896   3.728  24.786  0.00  0.00    +0.008 A 
ATOM     13  C   UNL     1      -0.883   4.499  25.075  0.00  0.00    +0.001 A 
ATOM     14  C   UNL     1      -1.586   4.869  25.296  0.00  0.00    +0.002 A 
ATOM     15  C   UNL     1      -2.303   4.468  25.227  0.00  0.00    +0.020 A 
ENDBRANCH   5   7
BRANCH   2   1
ATOM      1  C   UNL     1      -4.323   0.124  24.658  0.00  0.00    +0.119 C 
BRANCH   1  16
ATOM     16  C   UNL     1      -4.043  -0.646  24.759  0.00  0.00    +0.075 A 
ATOM     17  N   UNL     1      -3.662  -0.858  25.458  0.00  0.00    -0.247 NA
ATOM     18  C   UNL     1      -3.382  -1.628  25.558  0.00  0.00    +0.098 A 
ATOM     19  C   UNL     1      -3.484  -2.185  24.958  0.00  0.00    +0.021 A 
ATOM     20  C   UNL     1      -3.865  -1.972  24.259  0.00  0.00    +0.003 A 
ATOM     21  C   UNL     1      -4.145  -1.203  24.158  0.00  0.00    +0.016 A 
ENDBRANCH   1  16
ENDBRANCH   2   1
TORSDOF 3
ENDMDL
MODEL 3
REMARK VINA RESULT:     -10.7      1.617      2.282
REMARK  Name = 
REMARK  3 active torsions:
REMARK  status: ('A' for Active; 'I' for Inactive)
REMARK    1  A    between atoms: C_1  and  N_2
REMARK    2  A    between atoms: C_1  and  C_16
REMARK    3  A    between atoms: C_5  and  C_7
REMARK                            x       y       z     vdW  Elec       q    Type
REMARK                         _______ _______ _______ _____ _____    ______ ____
ROOT
ATOM      2  N   UNL     1      -1.049   1.799  25.315  0.00  0.00    -0.267 NA
ATOM      3  C   UNL     1      -0.625   1.559  24.649  0.00  0.00    +0.073 C 
ATOM      4  C   UNL     1      -1.000   0.896  24.333  0.00  0.00    +0.025 C 
ATOM      5  C   UNL     1      -1.656   0.725  24.804  0.00  0.00    +0.064 C 
ATOM      6  C   UNL     1      -1.686   1.283  25.411  0.00  0.00    +0.079 C 
ENDROOT
BRANCH   5   7
ATOM      7  C   UNL     1      -2.188   0.105  24.688  0.00  0.00    +0.089 A 
ATOM      8  N   UNL     1      -2.919   0.158  24.311  0.00  0.00    -0.243 NA
ATOM      9  C   UNL     1      -3.265  -0.590  24.319  0.00  0.00    +0.087 A 
ATOM     10  C   UNL     1      -2.748  -1.106  24.702  0.00  0.00    +0.048 A 
ATOM     11  S   UNL     1      -2.082  -0.677  24.931  0.00  0.00    -0.071 S 
ATOM     12  C   UNL     1      -2.950  -1.901  24.793  0.00  0.00    +0.008 A 
ATOM     13  C   UNL     1      -3.669  -2.180  24.502  0.00  0.00    +0.001 A 
ATOM     14  C   UNL     1      -4.187  -1.664  24.118  0.00  0.00    +0.002 A 
ATOM     15  C   UNL     1      -3.985  -0.869  24.027  0.00  0.00    +0.020 A 
ENDBRANCH   5   7
BRANCH   2   1
ATOM      1  C   UNL     1      -0.868   2.440  25.800  0.00  0.00    +0.119 C 
BRANCH   1  16
ATOM     16  C   UNL     1      -1.160   3.190  25.619  0.00  0.00    +0.075 A 
ATOM     17  N   UNL     1      -1.916   3.409  25.867  0.00  0.00    -0.247 NA
ATOM     18  C   UNL     1      -2.208   4.160  25.685  0.00  0.00    +0.098 A 
ATOM     19  C   UNL     1      -1.744   4.690  25.257  0.00  0.00    +0.021 A 
ATOM     20  C   UNL     1      -0.988   4.471  25.010  0.00  0.00    +0.003 A 
ATOM     21  C   UNL     1      -0.696   3.721  25.191  0.00  0.00    +0.016 A 
ENDBRANCH   1  16
ENDBRANCH   2   1
TORSDOF 3
ENDMDL
