MODEL 1
REMARK VINA RESULT:     -14.5      0.000      0.000
REMARK  Name = 
REMARK  5 active torsions:
REMARK  status: ('A' for Active; 'I' for Inactive)
REMARK    1  A    between atoms: O_2  and  C_3
REMARK    2  A    between atoms: C_6  and  C_9
REMARK    3  A    between atoms: C_18  and  C_20
REMARK    4  A    between atoms: C_28  and  C_29
REMARK    5  A    between atoms: C_29  and  C_30
REMARK                            x       y       z     vdW  Elec       q    Type
REMARK                         _______ _______ _______ _____ _____    ______ ____
ROOT
ATOM      9  C   UNL     1      -0.269   1.198  23.778  0.00  0.00    +0.271 C 
ATOM     10  O   UNL     1      -0.355   1.991  23.990  0.00  0.00    -0.268 OA
ATOM     11  N   UNL     1      -0.914   0.686  23.827  0.00  0.00    -0.151 NA
ATOM     12  C   UNL     1      -1.645   0.967  24.087  0.00  0.00    +0.185 A 
ATOM     13  N   UNL     1      -2.334   0.521  24.164  0.00  0.00    -0.227 NA
ATOM     14  C   UNL     1      -2.930   1.021  24.440  0.00  0.00    +0.063 A 
ATOM     15  C   UNL     1      -2.608   1.774  24.534  0.00  0.00    +0.023 A 
ATOM     16  C   UNL     1      -3.081   2.394  24.806  0.00  0.00    +0.034 C 
ATOM     17  C   UNL     1      -3.874   2.260  24.984  0.00  0.00    +0.010 C 
ATOM     18  C   UNL     1      -4.346   2.879  25.256  0.00  0.00    +0.059 C 
ATOM     19  C   UNL     1      -3.629   3.276  25.161  0.00  0.00    +0.005 C 
ATOM     22  C   UNL     1      -5.141   2.746  25.434  0.00  0.00    +0.154 C 
ATOM     23  O   UNL     1      -5.613   3.365  25.706  0.00  0.00    -0.223 OA
ATOM     24  C   UNL     1      -5.463   1.992  25.341  0.00  0.00    +0.033 C 
ATOM     25  C   UNL     1      -4.991   1.372  25.068  0.00  0.00    +0.003 C 
ATOM     26  C   UNL     1      -4.197   1.506  24.890  0.00  0.00    +0.006 C 
ATOM     27  C   UNL     1      -4.519   0.753  24.796  0.00  0.00    +0.000 C 
ATOM     28  C   UNL     1      -3.725   0.886  24.618  0.00  0.00    +0.050 C 
ATOM     39  S   UNL     1      -1.813   1.740  24.316  0.00  0.00    -0.054 S 
ENDROOT
BRANCH   9   6
ATOM      3  C   UNL     1       1.925   0.357  22.999  0.00  0.00    +0.139 A 
ATOM      4  C   UNL     1       1.236  -0.065  22.829  0.00  0.00    +0.037 A 
ATOM      5  C   UNL     1       0.505   0.216  23.089  0.00  0.00    +0.008 A 
ATOM      6  C   UNL     1       0.463   0.918  23.518  0.00  0.00    +0.056 A 
ATOM      7  C   UNL     1       1.150   1.340  23.689  0.00  0.00    +0.008 A 
ATOM      8  C   UNL     1       1.881   1.059  23.429  0.00  0.00    +0.037 A 
BRANCH   3   2
ATOM      1  C   UNL     1       3.287   0.598  22.643  0.00  0.00    +0.252 C 
ATOM      2  O   UNL     1       2.656   0.076  22.739  0.00  0.00    -0.471 OA
ENDBRANCH   3   2
ENDBRANCH   9   6
BRANCH  18  20
ATOM     20  C   UNL     1      -4.570   3.637  25.495  0.00  0.00    +0.184 C 
ATOM     21  O   UNL     1      -3.994   4.200  25.674  0.00  0.00    -0.220 OA
ENDBRANCH  18  20
BRANCH  28  29
ATOM     29  C   UNL     1      -4.047   0.134  24.525  0.00  0.00    +0.091 C 
BRANCH  29  30
ATOM     30  C   UNL     1      -3.832  -0.475  25.038  0.00  0.00    +0.226 C 
ATOM     31  O   UNL     1      -3.605  -0.299  25.812  0.00  0.00    -0.275 OA
ATOM     32  N   UNL     1      -3.843  -1.258  24.779  0.00  0.00    -0.280 N 
ATOM     33  C   UNL     1      -3.627  -1.865  25.293  0.00  0.00    +0.093 C 
ATOM     34  C   UNL     1      -3.639  -2.648  25.034  0.00  0.00    +0.022 C 
ATOM     35  C   UNL     1      -3.865  -2.824  24.260  0.00  0.00    +0.003 C 
ATOM     36  C   UNL     1      -3.876  -3.607  24.001  0.00  0.00    +0.000 C 
ATOM     37  C   UNL     1      -4.081  -2.216  23.747  0.00  0.00    +0.022 C 
ATOM     38  C   UNL     1      -4.070  -1.432  24.006  0.00  0.00    +0.093 C 
ENDBRANCH  29  30
ENDBRANCH  28  29
TORSDOF 5
ENDMDL
MODEL 2
REMARK VINA RESULT:     -12.1      1.770      3.980
REMARK  Name = 
REMARK  5 active torsions:
REMARK  status: ('A' for Active; 'I' for Inactive)
REMARK    1  A    between atoms: O_2  and  C_3
REMARK    2  A    between atoms: C_6  and  C_9
REMARK    3  A    between atoms: C_18  and  C_20
REMARK    4  A    between atoms: C_28  and  C_29
REMARK    5  A    between atoms: C_29  and  C_30
REMARK                            x       y       z     vdW  Elec       q    Type
REMARK                         _______ _______ _______ _____ _____    ______ ____
ROOT
ATOM      9  C   UNL     1       1.123  -0.083  23.283  0.00  0.00    +0.271 C 
ATOM     10  O   UNL     1       0.882  -0.865  23.179  0.00  0.00    -0.268 OA
ATOM     11  N   UNL     1       0.625   0.455  23.661  0.00  0.00    -0.151 NA
ATOM     12  C   UNL     1      -0.114   0.210  23.936  0.00  0.00    +0.185 A 
ATOM     13  N   UNL     1      -0.668   0.684  24.322  0.00  0.00    -0.227 NA
ATOM     14  C   UNL     1      -1.325   0.217  24.497  0.00  0.00    +0.063 A 
ATOM     15  C   UNL     1      -1.176  -0.546  24.219  0.00  0.00    +0.023 A 
ATOM     16  C   UNL     1      -1.742  -1.138  24.318  0.00  0.00    +0.034 C 
ATOM     17  C   UNL     1      -2.456  -0.969  24.694  0.00  0.00    +0.010 C 
ATOM     18  C   UNL     1      -3.021  -1.561  24.793  0.00  0.00    +0.059 C 
ATOM     19  C   UNL     1      -2.433  -1.988  24.403  0.00  0.00    +0.005 C 
ATOM     22  C   UNL     1      -3.735  -1.392  25.170  0.00  0.00    +0.154 C 
ATOM     23  O   UNL     1      -4.301  -1.984  25.269  0.00  0.00    -0.223 OA
ATOM     24  C   UNL     1      -3.884  -0.629  25.448  0.00  0.00    +0.033 C 
ATOM     25  C   UNL     1      -3.318  -0.036  25.350  0.00  0.00    +0.003 C 
ATOM     26  C   UNL     1      -2.604  -0.206  24.973  0.00  0.00    +0.006 C 
ATOM     27  C   UNL     1      -2.753   0.556  25.251  0.00  0.00    +0.000 C 
ATOM     28  C   UNL     1      -2.039   0.387  24.874  0.00  0.00    +0.050 C 
ATOM     39  S   UNL     1      -0.427  -0.549  23.872  0.00  0.00    -0.054 S 
ENDROOT
BRANCH   9   6
ATOM      3  C   UNL     1       3.339   0.649  22.459  0.00  0.00    +0.139 A 
ATOM      4  C   UNL     1       3.021   0.984  23.143  0.00  0.00    +0.037 A 
ATOM      5  C   UNL     1       2.283   0.740  23.418  0.00  0.00    +0.008 A 
ATOM      6  C   UNL     1       1.862   0.161  23.008  0.00  0.00    +0.056 A 
ATOM      7  C   UNL     1       2.178  -0.173  22.325  0.00  0.00    +0.008 A 
ATOM      8  C   UNL     1       2.917   0.071  22.050  0.00  0.00    +0.037 A 
BRANCH   3   2
ATOM      1  C   UNL     1       4.750   0.769  22.645  0.00  0.00    +0.252 C 
ATOM      2  O   UNL     1       4.078   0.894  22.185  0.00  0.00    -0.471 OA
ENDBRANCH   3   2
ENDBRANCH   9   6
BRANCH  18  20
ATOM     20  C   UNL     1      -3.383  -2.302  24.756  0.00  0.00    +0.184 C 
ATOM     21  O   UNL     1      -3.037  -2.909  24.319  0.00  0.00    -0.220 OA
ENDBRANCH  18  20
BRANCH  28  29
ATOM     29  C   UNL     1      -2.188   1.148  25.152  0.00  0.00    +0.091 C 
BRANCH  29  30
ATOM     30  C   UNL     1      -2.422   1.740  24.629  0.00  0.00    +0.226 C 
ATOM     31  O   UNL     1      -2.768   1.539  23.908  0.00  0.00    -0.275 OA
ATOM     32  N   UNL     1      -2.311   2.534  24.826  0.00  0.00    -0.280 N 
ATOM     33  C   UNL     1      -2.546   3.125  24.302  0.00  0.00    +0.093 C 
ATOM     34  C   UNL     1      -2.435   3.919  24.499  0.00  0.00    +0.022 C 
ATOM     35  C   UNL     1      -2.089   4.120  25.220  0.00  0.00    +0.003 C 
ATOM     36  C   UNL     1      -1.978   4.914  25.418  0.00  0.00    +0.000 C 
ATOM     37  C   UNL     1      -1.855   3.528  25.744  0.00  0.00    +0.022 C 
ATOM     38  C   UNL     1      -1.966   2.735  25.547  0.00  0.00    +0.093 C 
ENDBRANCH  29  30
ENDBRANCH  28  29
TORSDOF 5
ENDMDL
MODEL 3
REMARK VINA RESULT:     -10.7      1.745      5.808
REMARK  Name = 
REMARK  5 active torsions:
REMARK  status: ('A' for Active; 'I' for Inactive)
REMARK    1  A    between atoms: O_2  and  C_3
REMARK    2  A    between atoms: C_6  and  C_9
REMARK    3  A    between atoms: C_18  and  C_20
REMARK    4  A    between atoms: C_28  and  C_29
REMARK    5  A    between atoms: C_29  and  C_30
REMARK                            x       y       z     vdW  Elec       q    Type
REMARK                         _______ _______ _______ _____ _____    ______ ____
ROOT
ATOM      9  C   UNL     1      -4.970   1.927  25.166  0.00  0.00    +0.271 C 
ATOM     10  O   UNL     1      -5.451   1.312  24.900  0.00  0.00    -0.268 OA
ATOM     11  N   UNL     1      -4.164   1.799  25.281  0.00  0.00    -0.151 NA
ATOM     12  C   UNL     1      -3.838   1.056  25.129  0.00  0.00    +0.185 A 
ATOM     13  N   UNL     1      -3.045   0.848  25.218  0.00  0.00    -0.227 NA
ATOM     14  C   UNL     1      -2.965   0.054  25.006  0.00  0.00    +0.063 A 
ATOM     15  C   UNL     1      -3.709  -0.227  24.786  0.00  0.00    +0.023 A 
ATOM     16  C   UNL     1      -3.799  -1.011  24.545  0.00  0.00    +0.034 C 
ATOM     17  C   UNL     1      -3.145  -1.513  24.524  0.00  0.00    +0.010 C 
ATOM     18  C   UNL     1      -3.235  -2.297  24.283  0.00  0.00    +0.059 C 
ATOM     19  C   UNL     1      -4.014  -2.035  24.212  0.00  0.00    +0.005 C 
ATOM     22  C   UNL     1      -2.582  -2.800  24.261  0.00  0.00    +0.154 C 
ATOM     23  O   UNL     1      -2.671  -3.584  24.020  0.00  0.00    -0.223 OA
ATOM     24  C   UNL     1      -1.838  -2.519  24.481  0.00  0.00    +0.033 C 
ATOM     25  C   UNL     1      -1.748  -1.734  24.722  0.00  0.00    +0.003 C 
ATOM     26  C   UNL     1      -2.402  -1.232  24.743  0.00  0.00    +0.006 C 
ATOM     27  C   UNL     1      -1.658  -0.951  24.963  0.00  0.00    +0.000 C 
ATOM     28  C   UNL     1      -2.311  -0.449  24.984  0.00  0.00    +0.050 C 
ATOM     39  S   UNL     1      -4.249   0.393  24.862  0.00  0.00    -0.054 S 
ENDROOT
BRANCH   9   6
ATOM      3  C   UNL     1      -5.947   4.156  25.621  0.00  0.00    +0.139 A 
ATOM      4  C   UNL     1      -6.384   3.474  25.777  0.00  0.00    +0.037 A 
ATOM      5  C   UNL     1      -6.058   2.731  25.626  0.00  0.00    +0.008 A 
ATOM      6  C   UNL     1      -5.296   2.670  25.318  0.00  0.00    +0.056 A 
ATOM      7  C   UNL     1      -4.859   3.351  25.162  0.00  0.00    +0.008 A 
ATOM      8  C   UNL     1      -5.184   4.094  25.313  0.00  0.00    +0.037 A 
BRANCH   3   2
ATOM      1  C   UNL     1      -6.274   5.476  25.184  0.00  0.00    +0.252 C 
ATOM      2  O   UNL     1      -6.272   4.899  25.773  0.00  0.00    -0.471 OA
ENDBRANCH   3   2
ENDBRANCH   9   6
BRANCH  18  20
ATOM     20  C   UNL     1      -3.596  -2.990  24.017  0.00  0.00    +0.184 C 
ATOM     21  O   UNL     1      -4.390  -2.984  23.797  0.00  0.00    -0.220 OA
ENDBRANCH  18  20
BRANCH  28  29
ATOM     29  C   UNL     1      -1.568  -0.168  25.204  0.00  0.00    +0.091 C 
BRANCH  29  30
ATOM     30  C   UNL     1      -1.148   0.330  24.697  0.00  0.00    +0.226 C 
ATOM     31  O   UNL     1      -1.165   0.197  23.883  0.00  0.00    -0.275 OA
ATOM     32  N   UNL     1      -0.713   0.959  25.004  0.00  0.00    -0.280 N 
ATOM     33  C   UNL     1      -0.294   1.456  24.497  0.00  0.00    +0.093 C 
ATOM     34  C   UNL     1       0.142   2.086  24.804  0.00  0.00    +0.022 C 
ATOM     35  C   UNL     1       0.159   2.219  25.618  0.00  0.00    +0.003 C 
ATOM     36  C   UNL     1       0.594   2.849  25.925  0.00  0.00    +0.000 C 
ATOM     37  C   UNL     1      -0.261   1.721  26.125  0.00  0.00    +0.022 C 
ATOM     38  C   UNL     1      -0.697   1.092  25.818  0.00  0.00    +0.093 C 
ENDBRANCH  29  30
ENDBRANCH  28  29
TORSDOF 5
ENDMDL
