REMARK  Name = 
REMARK  7 active torsions:
REMARK  status: ('A' for Active; 'I' for Inactive)
REMARK    1  A    between atoms: C_2  and  C_5
REMARK    2  A    between atoms: C_8  and  C_11
REMARK    3  A    between atoms: N_13  and  C_14
REMARK    4  A    between atoms: C_18  and  N_22
REMARK    5  A    between atoms: C_26  and  O_27
REMARK    6  A    between atoms: O_27  and  C_28
REMARK    7  A    between atoms: C_31  and  N_34
REMARK                            x       y       z     vdW  Elec       q    Type
REMARK                         _______ _______ _______ _____ _____    ______ ____
ROOT
ATOM     14  C   UNL     1       1.270  -0.922   0.000  0.00  0.00    +0.155 C 
ATOM     15  C   UNL     1       0.785  -0.255   0.000  0.00  0.00    +0.166 C 
ATOM     16  O   UNL     1       1.270   0.412   0.000  0.00  0.00    -0.350 OA
ATOM     17  C   UNL     1       2.054   0.158   0.000  0.00  0.00    +0.169 C 
ATOM     18  C   UNL     1       2.839   0.412   0.000  0.00  0.00    +0.170 C 
ATOM     19  C   UNL     1       3.324  -0.255   0.000  0.00  0.00    +0.169 C 
ATOM     20  O   UNL     1       2.839  -0.922   0.000  0.00  0.00    -0.350 OA
ATOM     21  C   UNL     1       2.054  -0.667   0.000  0.00  0.00    +0.167 C 
ENDROOT
BRANCH  18  22
ATOM     22  N   UNL     1       3.094   1.197   0.000  0.00  0.00    -0.180 N 
ATOM     23  N   UNL     1       2.609   1.865   0.000  0.00  0.00    -0.040 NA
ATOM     24  N   UNL     1       3.094   2.532   0.000  0.00  0.00    -0.020 NA
ATOM     25  N   UNL     1       3.878   2.277   0.000  0.00  0.00    -0.071 NA
ATOM     26  C   UNL     1       3.878   1.452   0.000  0.00  0.00    +0.343 A 
BRANCH  26  27
ATOM     27  O   UNL     1       4.546   0.967   0.000  0.00  0.00    -0.421 OA
BRANCH  27  28
ATOM     28  C   UNL     1       5.300   1.303   0.000  0.00  0.00    +0.149 A 
ATOM     29  C   UNL     1       5.386   2.123   0.000  0.00  0.00    +0.039 A 
ATOM     30  C   UNL     1       6.139   2.459   0.000  0.00  0.00    +0.022 A 
ATOM     31  C   UNL     1       6.807   1.974   0.000  0.00  0.00    +0.085 A 
ATOM     32  C   UNL     1       6.721   1.153   0.000  0.00  0.00    +0.022 A 
ATOM     33  C   UNL     1       5.967   0.818   0.000  0.00  0.00    +0.039 A 
BRANCH  31  34
ATOM     34  N   UNL     1       7.561   2.309   0.000  0.00  0.00    -0.208 N 
ATOM     35  C   UNL     1       7.732   3.116   0.000  0.00  0.00    +0.202 A 
ATOM     36  N   UNL     1       8.553   3.203   0.000  0.00  0.00    -0.200 NA
ATOM     37  C   UNL     1       8.888   2.449   0.000  0.00  0.00    +0.221 A 
ATOM     38  N   UNL     1       8.275   1.897   0.000  0.00  0.00    -0.141 NA
ENDBRANCH  31  34
ENDBRANCH  27  28
ENDBRANCH  26  27
ENDBRANCH  18  22
BRANCH  14  13
ATOM     11  C   UNL     1       0.208  -1.879   0.000  0.00  0.00    +0.265 C 
ATOM     12  O   UNL     1      -0.047  -2.663   0.000  0.00  0.00    -0.268 OA
ATOM     13  N   UNL     1       1.015  -1.707   0.000  0.00  0.00    -0.198 NA
BRANCH  11   8
ATOM      5  C   UNL     1      -1.448  -0.039   0.000  0.00  0.00    +0.071 A 
ATOM      6  C   UNL     1      -0.641   0.132   0.000  0.00  0.00    +0.004 A 
ATOM      7  C   UNL     1      -0.089  -0.481   0.000  0.00  0.00    +0.005 A 
ATOM      8  C   UNL     1      -0.344  -1.265   0.000  0.00  0.00    +0.055 A 
ATOM      9  C   UNL     1      -1.151  -1.437   0.000  0.00  0.00    +0.005 A 
ATOM     10  C   UNL     1      -1.703  -0.824   0.000  0.00  0.00    +0.004 A 
BRANCH   5   2
ATOM      1  F   UNL     1      -2.553   1.187   0.000  0.00  0.00    -0.166 F 
ATOM      2  C   UNL     1      -2.001   0.574   0.000  0.00  0.00    +0.419 C 
ATOM      3  F   UNL     1      -2.614   0.022   0.000  0.00  0.00    -0.166 F 
ATOM      4  F   UNL     1      -1.387   1.126   0.000  0.00  0.00    -0.166 F 
ENDBRANCH   5   2
ENDBRANCH  11   8
ENDBRANCH  14  13
TORSDOF 7
