MODEL 1
REMARK VINA RESULT:     -11.5      0.000      0.000
REMARK  Name = 
REMARK  8 active torsions:
REMARK  status: ('A' for Active; 'I' for Inactive)
REMARK    1  A    between atoms: O_2  and  C_3
REMARK    2  A    between atoms: C_3  and  C_5
REMARK    3  A    between atoms: N_10  and  S_11
REMARK    4  A    between atoms: S_11  and  C_14
REMARK    5  A    between atoms: C_19  and  N_20
REMARK    6  A    between atoms: N_27  and  C_28
REMARK    7  A    between atoms: C_28  and  C_29
REMARK    8  A    between atoms: C_32  and  O_33
REMARK                            x       y       z     vdW  Elec       q    Type
REMARK                         _______ _______ _______ _____ _____    ______ ____
ROOT
ATOM      5  C   UNL     1      -0.972   1.754  24.264  0.00  0.00    +0.184 C 
ATOM      6  C   UNL     1      -0.426   1.181  24.028  0.00  0.00    +0.076 C 
ATOM      7  C   UNL     1      -0.495   0.407  24.305  0.00  0.00    +0.076 A 
ATOM      8  C   UNL     1      -1.109   0.206  24.817  0.00  0.00    +0.070 A 
ATOM      9  C   UNL     1      -1.655   0.779  25.053  0.00  0.00    +0.141 C 
ATOM     10  N   UNL     1      -1.585   1.552  24.777  0.00  0.00    -0.140 NA
ATOM     27  N   UNL     1      -1.038  -0.595  24.999  0.00  0.00    -0.307 N 
ATOM     37  C   UNL     1      -0.379  -0.890  24.598  0.00  0.00    +0.178 A 
ATOM     38  N   UNL     1      -0.044  -0.270  24.170  0.00  0.00    -0.229 NA
ENDROOT
BRANCH  10  11
ATOM     11  S   UNL     1      -2.131   2.125  25.012  0.00  0.00    +0.064 S 
ATOM     12  O   UNL     1      -1.806   2.122  25.771  0.00  0.00    -0.153 OA
ATOM     13  O   UNL     1      -2.455   2.128  24.254  0.00  0.00    -0.153 OA
BRANCH  11  14
ATOM     14  C   UNL     1      -2.676   2.697  25.248  0.00  0.00    +0.122 A 
ATOM     15  C   UNL     1      -3.483   2.564  25.147  0.00  0.00    +0.020 A 
ATOM     16  C   UNL     1      -3.746   1.859  24.810  0.00  0.00    +0.001 A 
ATOM     17  C   UNL     1      -4.554   1.725  24.708  0.00  0.00    +0.001 A 
ATOM     18  C   UNL     1      -5.099   2.299  24.944  0.00  0.00    +0.015 A 
ATOM     19  C   UNL     1      -4.837   3.004  25.281  0.00  0.00    +0.048 A 
ATOM     23  C   UNL     1      -4.029   3.137  25.383  0.00  0.00    +0.015 A 
ATOM     24  C   UNL     1      -3.766   3.843  25.719  0.00  0.00    +0.001 A 
ATOM     25  C   UNL     1      -2.959   3.976  25.821  0.00  0.00    +0.001 A 
ATOM     26  C   UNL     1      -2.413   3.403  25.585  0.00  0.00    +0.020 A 
BRANCH  19  20
ATOM     20  N   UNL     1      -5.382   3.576  25.517  0.00  0.00    -0.304 N 
ATOM     21  C   UNL     1      -5.478   4.263  25.070  0.00  0.00    +0.112 C 
ATOM     22  C   UNL     1      -5.832   3.462  26.200  0.00  0.00    +0.112 C 
ENDBRANCH  19  20
ENDBRANCH  11  14
ENDBRANCH  10  11
BRANCH   5   3
ATOM      3  C   UNL     1      -0.902   2.528  23.987  0.00  0.00    +0.334 C 
ATOM      4  O   UNL     1      -1.349   2.777  23.340  0.00  0.00    -0.249 OA
BRANCH   3   2
ATOM      1  C   UNL     1       0.053   3.589  23.906  0.00  0.00    +0.256 C 
ATOM      2  O   UNL     1      -0.385   3.053  24.357  0.00  0.00    -0.443 OA
ENDBRANCH   3   2
ENDBRANCH   5   3
BRANCH  27  28
ATOM     28  C   UNL     1      -1.536  -1.027  25.493  0.00  0.00    +0.134 C 
BRANCH  28  29
ATOM     29  C   UNL     1      -2.091  -1.545  25.169  0.00  0.00    +0.001 A 
ATOM     30  C   UNL     1      -2.894  -1.445  25.332  0.00  0.00    +0.001 A 
ATOM     31  C   UNL     1      -3.448  -1.962  25.008  0.00  0.00    +0.037 A 
ATOM     32  C   UNL     1      -3.200  -2.580  24.520  0.00  0.00    +0.139 A 
ATOM     35  C   UNL     1      -2.398  -2.680  24.358  0.00  0.00    +0.037 A 
ATOM     36  C   UNL     1      -1.843  -2.163  24.682  0.00  0.00    +0.001 A 
BRANCH  32  33
ATOM     33  O   UNL     1      -3.755  -3.097  24.196  0.00  0.00    -0.471 OA
ATOM     34  C   UNL     1      -4.304  -2.822  23.645  0.00  0.00    +0.252 C 
ENDBRANCH  32  33
ENDBRANCH  28  29
ENDBRANCH  27  28
TORSDOF 8
ENDMDL
MODEL 2
REMARK VINA RESULT:     -11.5      1.458      4.600
REMARK  Name = 
REMARK  8 active torsions:
REMARK  status: ('A' for Active; 'I' for Inactive)
REMARK    1  A    between atoms: O_2  and  C_3
REMARK    2  A    between atoms: C_3  and  C_5
REMARK    3  A    between atoms: N_10  and  S_11
REMARK    4  A    between atoms: S_11  and  C_14
REMARK    5  A    between atoms: C_19  and  N_20
REMARK    6  A    between atoms: N_27  and  C_28
REMARK    7  A    between atoms: C_28  and  C_29
REMARK    8  A    between atoms: C_32  and  O_33
REMARK                            x       y       z     vdW  Elec       q    Type
REMARK                         _______ _______ _______ _____ _____    ______ ____
ROOT
ATOM      5  C   UNL     1      -0.910   2.679  25.375  0.00  0.00    +0.184 C 
ATOM      6  C   UNL     1      -1.145   3.455  25.534  0.00  0.00    +0.076 C 
ATOM      7  C   UNL     1      -1.880   3.724  25.274  0.00  0.00    +0.076 A 
ATOM      8  C   UNL     1      -2.380   3.219  24.857  0.00  0.00    +0.070 A 
ATOM      9  C   UNL     1      -2.145   2.443  24.698  0.00  0.00    +0.141 C 
ATOM     10  N   UNL     1      -1.410   2.174  24.957  0.00  0.00    -0.140 NA
ATOM     27  N   UNL     1      -3.067   3.635  24.672  0.00  0.00    -0.307 N 
ATOM     37  C   UNL     1      -2.992   4.398  24.976  0.00  0.00    +0.178 A 
ATOM     38  N   UNL     1      -2.259   4.453  25.348  0.00  0.00    -0.229 NA
ENDROOT
BRANCH  10  11
ATOM     11  S   UNL     1      -1.175   1.400  24.798  0.00  0.00    +0.064 S 
ATOM     12  O   UNL     1      -1.278   1.205  25.593  0.00  0.00    -0.153 OA
ATOM     13  O   UNL     1      -1.071   1.594  24.003  0.00  0.00    -0.153 OA
BRANCH  11  14
ATOM     14  C   UNL     1      -0.940   0.625  24.639  0.00  0.00    +0.122 A 
ATOM     15  C   UNL     1      -1.430  -0.005  24.845  0.00  0.00    +0.020 A 
ATOM     16  C   UNL     1      -2.157   0.139  25.209  0.00  0.00    +0.001 A 
ATOM     17  C   UNL     1      -2.647  -0.491  25.414  0.00  0.00    +0.001 A 
ATOM     18  C   UNL     1      -2.412  -1.266  25.255  0.00  0.00    +0.015 A 
ATOM     19  C   UNL     1      -1.686  -1.410  24.891  0.00  0.00    +0.048 A 
ATOM     23  C   UNL     1      -1.195  -0.780  24.686  0.00  0.00    +0.015 A 
ATOM     24  C   UNL     1      -0.469  -0.924  24.322  0.00  0.00    +0.001 A 
ATOM     25  C   UNL     1       0.021  -0.295  24.117  0.00  0.00    +0.001 A 
ATOM     26  C   UNL     1      -0.214   0.481  24.276  0.00  0.00    +0.020 A 
BRANCH  19  20
ATOM     20  N   UNL     1      -1.451  -2.185  24.733  0.00  0.00    -0.304 N 
ATOM     21  C   UNL     1      -1.761  -2.586  24.082  0.00  0.00    +0.112 C 
ATOM     22  C   UNL     1      -0.905  -2.560  25.226  0.00  0.00    +0.112 C 
ENDBRANCH  19  20
ENDBRANCH  11  14
ENDBRANCH  10  11
BRANCH   5   3
ATOM      3  C   UNL     1      -0.174   2.411  25.634  0.00  0.00    +0.334 C 
ATOM      4  O   UNL     1       0.457   2.357  25.106  0.00  0.00    -0.249 OA
BRANCH   3   2
ATOM      1  C   UNL     1       0.588   2.468  26.842  0.00  0.00    +0.256 C 
ATOM      2  O   UNL     1      -0.069   2.195  26.424  0.00  0.00    -0.443 OA
ENDBRANCH   3   2
ENDBRANCH   5   3
BRANCH  27  28
ATOM     28  C   UNL     1      -3.716   3.341  24.256  0.00  0.00    +0.134 C 
BRANCH  28  29
ATOM     29  C   UNL     1      -4.396   3.109  24.664  0.00  0.00    +0.001 A 
ATOM     30  C   UNL     1      -4.708   2.354  24.548  0.00  0.00    +0.001 A 
ATOM     31  C   UNL     1      -5.388   2.123  24.955  0.00  0.00    +0.037 A 
ATOM     32  C   UNL     1      -5.754   2.645  25.478  0.00  0.00    +0.139 A 
ATOM     35  C   UNL     1      -5.441   3.400  25.593  0.00  0.00    +0.037 A 
ATOM     36  C   UNL     1      -4.762   3.632  25.186  0.00  0.00    +0.001 A 
BRANCH  32  33
ATOM     33  O   UNL     1      -6.433   2.414  25.884  0.00  0.00    -0.471 OA
ATOM     34  C   UNL     1      -6.391   1.812  26.448  0.00  0.00    +0.252 C 
ENDBRANCH  32  33
ENDBRANCH  28  29
ENDBRANCH  27  28
TORSDOF 8
ENDMDL
MODEL 3
REMARK VINA RESULT:     -11.2      1.558      4.622
REMARK  Name = 
REMARK  8 active torsions:
REMARK  status: ('A' for Active; 'I' for Inactive)
REMARK    1  A    between atoms: O_2  and  C_3
REMARK    2  A    between atoms: C_3  and  C_5
REMARK    3  A    between atoms: N_10  and  S_11
REMARK    4  A    between atoms: S_11  and  C_14
REMARK    5  A    between atoms: C_19  and  N_20
REMARK    6  A    between atoms: N_27  and  C_28
REMARK    7  A    between atoms: C_28  and  C_29
REMARK    8  A    between atoms: C_32  and  O_33
REMARK                            x       y       z     vdW  Elec       q    Type
REMARK                         _______ _______ _______ _____ _____    ______ ____
ROOT
ATOM      5  C   UNL     1      -0.293   1.120  24.028  0.00  0.00    +0.184 C 
ATOM      6  C   UNL     1      -0.055   1.909  23.985  0.00  0.00    +0.076 C 
ATOM      7  C   UNL     1      -0.405   2.473  24.474  0.00  0.00    +0.076 A 
ATOM      8  C   UNL     1      -0.994   2.249  25.006  0.00  0.00    +0.070 A 
ATOM      9  C   UNL     1      -1.232   1.459  25.050  0.00  0.00    +0.141 C 
ATOM     10  N   UNL     1      -0.882   0.895  24.560  0.00  0.00    -0.140 NA
ATOM     27  N   UNL     1      -1.238   2.921  25.416  0.00  0.00    -0.307 N 
ATOM     37  C   UNL     1      -0.800   3.562  25.137  0.00  0.00    +0.178 A 
ATOM     38  N   UNL     1      -0.286   3.285  24.555  0.00  0.00    -0.229 NA
ENDROOT
BRANCH  10  11
ATOM     11  S   UNL     1      -1.120   0.107  24.603  0.00  0.00    +0.064 S 
ATOM     12  O   UNL     1      -0.743   0.033  25.333  0.00  0.00    -0.153 OA
ATOM     13  O   UNL     1      -1.497   0.181  23.873  0.00  0.00    -0.153 OA
BRANCH  11  14
ATOM     14  C   UNL     1      -1.358  -0.682  24.646  0.00  0.00    +0.122 A 
ATOM     15  C   UNL     1      -2.160  -0.871  24.636  0.00  0.00    +0.020 A 
ATOM     16  C   UNL     1      -2.726  -0.273  24.582  0.00  0.00    +0.001 A 
ATOM     17  C   UNL     1      -3.528  -0.462  24.571  0.00  0.00    +0.001 A 
ATOM     18  C   UNL     1      -3.766  -1.252  24.614  0.00  0.00    +0.015 A 
ATOM     19  C   UNL     1      -3.202  -1.850  24.668  0.00  0.00    +0.048 A 
ATOM     23  C   UNL     1      -2.399  -1.661  24.679  0.00  0.00    +0.015 A 
ATOM     24  C   UNL     1      -1.834  -2.259  24.732  0.00  0.00    +0.001 A 
ATOM     25  C   UNL     1      -1.032  -2.070  24.743  0.00  0.00    +0.001 A 
ATOM     26  C   UNL     1      -0.794  -1.280  24.700  0.00  0.00    +0.020 A 
BRANCH  19  20
ATOM     20  N   UNL     1      -3.440  -2.639  24.711  0.00  0.00    -0.304 N 
ATOM     21  C   UNL     1      -3.454  -3.027  25.438  0.00  0.00    +0.112 C 
ATOM     22  C   UNL     1      -3.665  -3.040  24.025  0.00  0.00    +0.112 C 
ENDBRANCH  19  20
ENDBRANCH  11  14
ENDBRANCH  10  11
BRANCH   5   3
ATOM      3  C   UNL     1       0.058   0.556  23.539  0.00  0.00    +0.334 C 
ATOM      4  O   UNL     1      -0.334   0.294  22.862  0.00  0.00    -0.249 OA
BRANCH   3   2
ATOM      1  C   UNL     1       1.359   0.126  23.130  0.00  0.00    +0.256 C 
ATOM      2  O   UNL     1       0.802   0.254  23.726  0.00  0.00    -0.443 OA
ENDBRANCH   3   2
ENDBRANCH   5   3
BRANCH  27  28
ATOM     28  C   UNL     1      -1.818   2.949  26.002  0.00  0.00    +0.134 C 
BRANCH  28  29
ATOM     29  C   UNL     1      -2.542   3.314  25.848  0.00  0.00    +0.001 A 
ATOM     30  C   UNL     1      -2.621   4.130  25.941  0.00  0.00    +0.001 A 
ATOM     31  C   UNL     1      -3.345   4.494  25.786  0.00  0.00    +0.037 A 
ATOM     32  C   UNL     1      -3.990   4.043  25.540  0.00  0.00    +0.139 A 
ATOM     35  C   UNL     1      -3.910   3.227  25.447  0.00  0.00    +0.037 A 
ATOM     36  C   UNL     1      -3.187   2.862  25.601  0.00  0.00    +0.001 A 
BRANCH  32  33
ATOM     33  O   UNL     1      -4.713   4.407  25.386  0.00  0.00    -0.471 OA
ATOM     34  C   UNL     1      -5.413   3.973  25.435  0.00  0.00    +0.252 C 
ENDBRANCH  32  33
ENDBRANCH  28  29
ENDBRANCH  27  28
TORSDOF 8
ENDMDL
MODEL 4
REMARK VINA RESULT:     -11.1      1.761      5.079
REMARK  Name = 
REMARK  8 active torsions:
REMARK  status: ('A' for Active; 'I' for Inactive)
REMARK    1  A    between atoms: O_2  and  C_3
REMARK    2  A    between atoms: C_3  and  C_5
REMARK    3  A    between atoms: N_10  and  S_11
REMARK    4  A    between atoms: S_11  and  C_14
REMARK    5  A    between atoms: C_19  and  N_20
REMARK    6  A    between atoms: N_27  and  C_28
REMARK    7  A    between atoms: C_28  and  C_29
REMARK    8  A    between atoms: C_32  and  O_33
REMARK                            x       y       z     vdW  Elec       q    Type
REMARK                         _______ _______ _______ _____ _____    ______ ____
ROOT
ATOM      5  C   UNL     1      -4.453   2.008  24.898  0.00  0.00    +0.184 C 
ATOM      6  C   UNL     1      -4.382   2.821  25.020  0.00  0.00    +0.076 C 
ATOM      7  C   UNL     1      -3.660   3.197  24.889  0.00  0.00    +0.076 A 
ATOM      8  C   UNL     1      -3.008   2.760  24.637  0.00  0.00    +0.070 A 
ATOM      9  C   UNL     1      -3.078   1.946  24.515  0.00  0.00    +0.141 C 
ATOM     10  N   UNL     1      -3.801   1.571  24.646  0.00  0.00    -0.140 NA
ATOM     27  N   UNL     1      -2.371   3.276  24.554  0.00  0.00    -0.307 N 
ATOM     37  C   UNL     1      -2.629   4.034  24.755  0.00  0.00    +0.178 A 
ATOM     38  N   UNL     1      -3.426   3.984  24.962  0.00  0.00    -0.229 NA
ENDROOT
BRANCH  10  11
ATOM     11  S   UNL     1      -3.871   0.758  24.524  0.00  0.00    +0.064 S 
ATOM     12  O   UNL     1      -3.830   0.876  23.709  0.00  0.00    -0.153 OA
ATOM     13  O   UNL     1      -3.912   0.639  25.340  0.00  0.00    -0.153 OA
BRANCH  11  14
ATOM     14  C   UNL     1      -3.942  -0.055  24.403  0.00  0.00    +0.122 A 
ATOM     15  C   UNL     1      -3.369  -0.568  24.701  0.00  0.00    +0.020 A 
ATOM     16  C   UNL     1      -2.725  -0.268  25.121  0.00  0.00    +0.001 A 
ATOM     17  C   UNL     1      -2.152  -0.780  25.419  0.00  0.00    +0.001 A 
ATOM     18  C   UNL     1      -2.222  -1.594  25.297  0.00  0.00    +0.015 A 
ATOM     19  C   UNL     1      -2.865  -1.894  24.877  0.00  0.00    +0.048 A 
ATOM     23  C   UNL     1      -3.439  -1.381  24.579  0.00  0.00    +0.015 A 
ATOM     24  C   UNL     1      -4.082  -1.681  24.159  0.00  0.00    +0.001 A 
ATOM     25  C   UNL     1      -4.655  -1.169  23.861  0.00  0.00    +0.001 A 
ATOM     26  C   UNL     1      -4.585  -0.355  23.983  0.00  0.00    +0.020 A 
BRANCH  19  20
ATOM     20  N   UNL     1      -2.936  -2.707  24.756  0.00  0.00    -0.304 N 
ATOM     21  C   UNL     1      -2.529  -3.069  24.136  0.00  0.00    +0.112 C 
ATOM     22  C   UNL     1      -3.414  -3.159  25.255  0.00  0.00    +0.112 C 
ENDBRANCH  19  20
ENDBRANCH  11  14
ENDBRANCH  10  11
BRANCH   5   3
ATOM      3  C   UNL     1      -5.176   1.632  25.029  0.00  0.00    +0.334 C 
ATOM      4  O   UNL     1      -5.660   1.432  24.391  0.00  0.00    -0.249 OA
BRANCH   3   2
ATOM      1  C   UNL     1      -6.191   1.619  26.036  0.00  0.00    +0.256 C 
ATOM      2  O   UNL     1      -5.416   1.458  25.798  0.00  0.00    -0.443 OA
ENDBRANCH   3   2
ENDBRANCH   5   3
BRANCH  27  28
ATOM     28  C   UNL     1      -1.609   3.073  24.312  0.00  0.00    +0.134 C 
BRANCH  28  29
ATOM     29  C   UNL     1      -1.010   2.981  24.872  0.00  0.00    +0.001 A 
ATOM     30  C   UNL     1      -0.529   2.311  24.855  0.00  0.00    +0.001 A 
ATOM     31  C   UNL     1       0.071   2.219  25.415  0.00  0.00    +0.037 A 
ATOM     32  C   UNL     1       0.188   2.797  25.992  0.00  0.00    +0.139 A 
ATOM     35  C   UNL     1      -0.294   3.466  26.009  0.00  0.00    +0.037 A 
ATOM     36  C   UNL     1      -0.892   3.558  25.449  0.00  0.00    +0.001 A 
BRANCH  32  33
ATOM     33  O   UNL     1       0.786   2.704  26.552  0.00  0.00    -0.471 OA
ATOM     34  C   UNL     1       0.603   2.447  27.314  0.00  0.00    +0.252 C 
ENDBRANCH  32  33
ENDBRANCH  28  29
ENDBRANCH  27  28
TORSDOF 8
ENDMDL
MODEL 5
REMARK VINA RESULT:     -11.1      1.842      3.872
REMARK  Name = 
REMARK  8 active torsions:
REMARK  status: ('A' for Active; 'I' for Inactive)
REMARK    1  A    between atoms: O_2  and  C_3
REMARK    2  A    between atoms: C_3  and  C_5
REMARK    3  A    between atoms: N_10  and  S_11
REMARK    4  A    between atoms: S_11  and  C_14
REMARK    5  A    between atoms: C_19  and  N_20
REMARK    6  A    between atoms: N_27  and  C_28
REMARK    7  A    between atoms: C_28  and  C_29
REMARK    8  A    between atoms: C_32  and  O_33
REMARK                            x       y       z     vdW  Elec       q    Type
REMARK                         _______ _______ _______ _____ _____    ______ ____
ROOT
ATOM      5  C   UNL     1      -2.159  -0.896  24.999  0.00  0.00    +0.184 C 
ATOM      6  C   UNL     1      -1.506  -1.400  24.962  0.00  0.00    +0.076 C 
ATOM      7  C   UNL     1      -0.817  -1.155  24.582  0.00  0.00    +0.076 A 
ATOM      8  C   UNL     1      -0.780  -0.407  24.238  0.00  0.00    +0.070 A 
ATOM      9  C   UNL     1      -1.433   0.097  24.274  0.00  0.00    +0.141 C 
ATOM     10  N   UNL     1      -2.122  -0.147  24.654  0.00  0.00    -0.140 NA
ATOM     27  N   UNL     1      -0.032  -0.317  23.902  0.00  0.00    -0.307 N 
ATOM     37  C   UNL     1       0.394  -1.011  24.039  0.00  0.00    +0.178 A 
ATOM     38  N   UNL     1      -0.092  -1.529  24.459  0.00  0.00    -0.229 NA
ENDROOT
BRANCH  10  11
ATOM     11  S   UNL     1      -2.774   0.356  24.691  0.00  0.00    +0.064 S 
ATOM     12  O   UNL     1      -2.928   0.215  23.893  0.00  0.00    -0.153 OA
ATOM     13  O   UNL     1      -2.620   0.498  25.489  0.00  0.00    -0.153 OA
BRANCH  11  14
ATOM     14  C   UNL     1      -3.426   0.860  24.727  0.00  0.00    +0.122 A 
ATOM     15  C   UNL     1      -3.317   1.666  24.864  0.00  0.00    +0.020 A 
ATOM     16  C   UNL     1      -2.556   1.969  24.964  0.00  0.00    +0.001 A 
ATOM     17  C   UNL     1      -2.447   2.775  25.101  0.00  0.00    +0.001 A 
ATOM     18  C   UNL     1      -3.100   3.279  25.137  0.00  0.00    +0.015 A 
ATOM     19  C   UNL     1      -3.861   2.977  25.037  0.00  0.00    +0.048 A 
ATOM     23  C   UNL     1      -3.970   2.171  24.900  0.00  0.00    +0.015 A 
ATOM     24  C   UNL     1      -4.731   1.868  24.800  0.00  0.00    +0.001 A 
ATOM     25  C   UNL     1      -4.839   1.063  24.663  0.00  0.00    +0.001 A 
ATOM     26  C   UNL     1      -4.186   0.558  24.627  0.00  0.00    +0.020 A 
BRANCH  19  20
ATOM     20  N   UNL     1      -4.513   3.481  25.073  0.00  0.00    -0.304 N 
ATOM     21  C   UNL     1      -4.736   3.916  24.409  0.00  0.00    +0.112 C 
ATOM     22  C   UNL     1      -4.943   3.550  25.775  0.00  0.00    +0.112 C 
ENDBRANCH  19  20
ENDBRANCH  11  14
ENDBRANCH  10  11
BRANCH   5   3
ATOM      3  C   UNL     1      -2.849  -1.141  25.380  0.00  0.00    +0.334 C 
ATOM      4  O   UNL     1      -3.003  -0.898  26.153  0.00  0.00    -0.249 OA
BRANCH   3   2
ATOM      1  C   UNL     1      -3.633  -2.336  25.336  0.00  0.00    +0.256 C 
ATOM      2  O   UNL     1      -3.385  -1.630  24.987  0.00  0.00    -0.443 OA
ENDBRANCH   3   2
ENDBRANCH   5   3
BRANCH  27  28
ATOM     28  C   UNL     1       0.244   0.348  23.500  0.00  0.00    +0.134 C 
BRANCH  28  29
ATOM     29  C   UNL     1       1.013   0.360  23.201  0.00  0.00    +0.001 A 
ATOM     30  C   UNL     1       1.199  -0.077  22.527  0.00  0.00    +0.001 A 
ATOM     31  C   UNL     1       1.968  -0.065  22.227  0.00  0.00    +0.037 A 
ATOM     32  C   UNL     1       2.550   0.383  22.603  0.00  0.00    +0.139 A 
ATOM     35  C   UNL     1       2.363   0.820  23.277  0.00  0.00    +0.037 A 
ATOM     36  C   UNL     1       1.594   0.808  23.576  0.00  0.00    +0.001 A 
BRANCH  32  33
ATOM     33  O   UNL     1       3.318   0.395  22.303  0.00  0.00    -0.471 OA
ATOM     34  C   UNL     1       3.919   0.776  22.721  0.00  0.00    +0.252 C 
ENDBRANCH  32  33
ENDBRANCH  28  29
ENDBRANCH  27  28
TORSDOF 8
ENDMDL
MODEL 6
REMARK VINA RESULT:     -10.8      1.611      2.290
REMARK  Name = 
REMARK  8 active torsions:
REMARK  status: ('A' for Active; 'I' for Inactive)
REMARK    1  A    between atoms: O_2  and  C_3
REMARK    2  A    between atoms: C_3  and  C_5
REMARK    3  A    between atoms: N_10  and  S_11
REMARK    4  A    between atoms: S_11  and  C_14
REMARK    5  A    between atoms: C_19  and  N_20
REMARK    6  A    between atoms: N_27  and  C_28
REMARK    7  A    between atoms: C_28  and  C_29
REMARK    8  A    between atoms: C_32  and  O_33
REMARK                            x       y       z     vdW  Elec       q    Type
REMARK                         _______ _______ _______ _____ _____    ______ ____
ROOT
ATOM      5  C   UNL     1      -1.490   3.451  25.007  0.00  0.00    +0.184 C 
ATOM      6  C   UNL     1      -0.679   3.349  24.885  0.00  0.00    +0.076 C 
ATOM      7  C   UNL     1      -0.396   2.647  24.559  0.00  0.00    +0.076 A 
ATOM      8  C   UNL     1      -0.922   2.047  24.354  0.00  0.00    +0.070 A 
ATOM      9  C   UNL     1      -1.733   2.148  24.476  0.00  0.00    +0.141 C 
ATOM     10  N   UNL     1      -2.016   2.851  24.802  0.00  0.00    -0.140 NA
ATOM     27  N   UNL     1      -0.486   1.419  24.045  0.00  0.00    -0.307 N 
ATOM     37  C   UNL     1       0.311   1.632  24.058  0.00  0.00    +0.178 A 
ATOM     38  N   UNL     1       0.366   2.391  24.376  0.00  0.00    -0.229 NA
ENDROOT
BRANCH  10  11
ATOM     11  S   UNL     1      -2.825   2.952  24.924  0.00  0.00    +0.064 S 
ATOM     12  O   UNL     1      -2.921   3.145  24.127  0.00  0.00    -0.153 OA
ATOM     13  O   UNL     1      -2.730   2.759  25.720  0.00  0.00    -0.153 OA
BRANCH  11  14
ATOM     14  C   UNL     1      -3.635   3.054  25.045  0.00  0.00    +0.122 A 
ATOM     15  C   UNL     1      -4.133   2.398  25.072  0.00  0.00    +0.020 A 
ATOM     16  C   UNL     1      -3.823   1.639  24.977  0.00  0.00    +0.001 A 
ATOM     17  C   UNL     1      -4.321   0.983  25.004  0.00  0.00    +0.001 A 
ATOM     18  C   UNL     1      -5.132   1.085  25.125  0.00  0.00    +0.015 A 
ATOM     19  C   UNL     1      -5.442   1.842  25.220  0.00  0.00    +0.048 A 
ATOM     23  C   UNL     1      -4.944   2.500  25.194  0.00  0.00    +0.015 A 
ATOM     24  C   UNL     1      -5.254   3.257  25.288  0.00  0.00    +0.001 A 
ATOM     25  C   UNL     1      -4.756   3.914  25.262  0.00  0.00    +0.001 A 
ATOM     26  C   UNL     1      -3.945   3.812  25.140  0.00  0.00    +0.020 A 
BRANCH  19  20
ATOM     20  N   UNL     1      -6.252   1.944  25.342  0.00  0.00    -0.304 N 
ATOM     21  C   UNL     1      -6.766   1.973  24.697  0.00  0.00    +0.112 C 
ATOM     22  C   UNL     1      -6.548   2.017  26.109  0.00  0.00    +0.112 C 
ENDBRANCH  19  20
ENDBRANCH  11  14
ENDBRANCH  10  11
BRANCH   5   3
ATOM      3  C   UNL     1      -1.772   4.154  25.334  0.00  0.00    +0.334 C 
ATOM      4  O   UNL     1      -1.989   4.183  26.129  0.00  0.00    -0.249 OA
BRANCH   3   2
ATOM      1  C   UNL     1      -1.513   5.544  25.120  0.00  0.00    +0.256 C 
ATOM      2  O   UNL     1      -1.838   4.830  24.864  0.00  0.00    -0.443 OA
ENDBRANCH   3   2
ENDBRANCH   5   3
BRANCH  27  28
ATOM     28  C   UNL     1      -0.792   0.704  23.770  0.00  0.00    +0.134 C 
BRANCH  28  29
ATOM     29  C   UNL     1      -0.611   0.001  24.162  0.00  0.00    +0.001 A 
ATOM     30  C   UNL     1       0.013  -0.470  23.898  0.00  0.00    +0.001 A 
ATOM     31  C   UNL     1       0.194  -1.173  24.291  0.00  0.00    +0.037 A 
ATOM     32  C   UNL     1      -0.250  -1.405  24.946  0.00  0.00    +0.139 A 
ATOM     35  C   UNL     1      -0.874  -0.934  25.209  0.00  0.00    +0.037 A 
ATOM     36  C   UNL     1      -1.055  -0.232  24.817  0.00  0.00    +0.001 A 
BRANCH  32  33
ATOM     33  O   UNL     1      -0.069  -2.108  25.338  0.00  0.00    -0.471 OA
ATOM     34  C   UNL     1      -0.587  -2.749  25.295  0.00  0.00    +0.252 C 
ENDBRANCH  32  33
ENDBRANCH  28  29
ENDBRANCH  27  28
TORSDOF 8
ENDMDL
MODEL 7
REMARK VINA RESULT:     -10.5      1.781      3.309
REMARK  Name = 
REMARK  8 active torsions:
REMARK  status: ('A' for Active; 'I' for Inactive)
REMARK    1  A    between atoms: O_2  and  C_3
REMARK    2  A    between atoms: C_3  and  C_5
REMARK    3  A    between atoms: N_10  and  S_11
REMARK    4  A    between atoms: S_11  and  C_14
REMARK    5  A    between atoms: C_19  and  N_20
REMARK    6  A    between atoms: N_27  and  C_28
REMARK    7  A    between atoms: C_28  and  C_29
REMARK    8  A    between atoms: C_32  and  O_33
REMARK                            x       y       z     vdW  Elec       q    Type
REMARK                         _______ _______ _______ _____ _____    ______ ____
ROOT
ATOM      5  C   UNL     1      -4.671   1.175  24.837  0.00  0.00    +0.184 C 
ATOM      6  C   UNL     1      -4.915   0.386  24.862  0.00  0.00    +0.076 C 
ATOM      7  C   UNL     1      -4.394  -0.214  24.643  0.00  0.00    +0.076 A 
ATOM      8  C   UNL     1      -3.629  -0.027  24.400  0.00  0.00    +0.070 A 
ATOM      9  C   UNL     1      -3.384   0.761  24.375  0.00  0.00    +0.141 C 
ATOM     10  N   UNL     1      -3.905   1.362  24.593  0.00  0.00    -0.140 NA
ATOM     27  N   UNL     1      -3.239  -0.731  24.218  0.00  0.00    -0.307 N 
ATOM     37  C   UNL     1      -3.764  -1.354  24.349  0.00  0.00    +0.178 A 
ATOM     38  N   UNL     1      -4.477  -1.034  24.612  0.00  0.00    -0.229 NA
ENDROOT
BRANCH  10  11
ATOM     11  S   UNL     1      -3.661   2.149  24.568  0.00  0.00    +0.064 S 
ATOM     12  O   UNL     1      -3.713   2.139  23.745  0.00  0.00    -0.153 OA
ATOM     13  O   UNL     1      -3.610   2.160  25.391  0.00  0.00    -0.153 OA
BRANCH  11  14
ATOM     14  C   UNL     1      -3.417   2.937  24.543  0.00  0.00    +0.122 A 
ATOM     15  C   UNL     1      -2.684   3.151  24.852  0.00  0.00    +0.020 A 
ATOM     16  C   UNL     1      -2.193   2.578  25.187  0.00  0.00    +0.001 A 
ATOM     17  C   UNL     1      -1.460   2.792  25.496  0.00  0.00    +0.001 A 
ATOM     18  C   UNL     1      -1.215   3.581  25.471  0.00  0.00    +0.015 A 
ATOM     19  C   UNL     1      -1.705   4.153  25.137  0.00  0.00    +0.048 A 
ATOM     23  C   UNL     1      -2.439   3.940  24.827  0.00  0.00    +0.015 A 
ATOM     24  C   UNL     1      -2.929   4.512  24.493  0.00  0.00    +0.001 A 
ATOM     25  C   UNL     1      -3.663   4.298  24.183  0.00  0.00    +0.001 A 
ATOM     26  C   UNL     1      -3.907   3.509  24.209  0.00  0.00    +0.020 A 
BRANCH  19  20
ATOM     20  N   UNL     1      -1.461   4.941  25.112  0.00  0.00    -0.304 N 
ATOM     21  C   UNL     1      -1.888   5.519  25.517  0.00  0.00    +0.112 C 
ATOM     22  C   UNL     1      -0.789   5.152  24.681  0.00  0.00    +0.112 C 
ENDBRANCH  19  20
ENDBRANCH  11  14
ENDBRANCH  10  11
BRANCH   5   3
ATOM      3  C   UNL     1      -5.193   1.775  25.056  0.00  0.00    +0.334 C 
ATOM      4  O   UNL     1      -5.581   2.217  24.477  0.00  0.00    -0.249 OA
BRANCH   3   2
ATOM      1  C   UNL     1      -6.083   2.141  26.113  0.00  0.00    +0.256 C 
ATOM      2  O   UNL     1      -5.327   1.933  25.854  0.00  0.00    -0.443 OA
ENDBRANCH   3   2
ENDBRANCH   5   3
BRANCH  27  28
ATOM     28  C   UNL     1      -2.462  -0.801  23.952  0.00  0.00    +0.134 C 
BRANCH  28  29
ATOM     29  C   UNL     1      -1.919  -1.251  24.380  0.00  0.00    +0.001 A 
ATOM     30  C   UNL     1      -1.916  -2.073  24.307  0.00  0.00    +0.001 A 
ATOM     31  C   UNL     1      -1.373  -2.523  24.736  0.00  0.00    +0.037 A 
ATOM     32  C   UNL     1      -0.833  -2.151  25.236  0.00  0.00    +0.139 A 
ATOM     35  C   UNL     1      -0.836  -1.329  25.308  0.00  0.00    +0.037 A 
ATOM     36  C   UNL     1      -1.378  -0.879  24.880  0.00  0.00    +0.001 A 
BRANCH  32  33
ATOM     33  O   UNL     1      -0.290  -2.601  25.664  0.00  0.00    -0.471 OA
ATOM     34  C   UNL     1       0.512  -2.575  25.470  0.00  0.00    +0.252 C 
ENDBRANCH  32  33
ENDBRANCH  28  29
ENDBRANCH  27  28
TORSDOF 8
ENDMDL
