REMARK  Name = 
REMARK  3 active torsions:
REMARK  status: ('A' for Active; 'I' for Inactive)
REMARK    1  A    between atoms: C_5  and  C_8
REMARK    2  A    between atoms: N_10  and  C_11
REMARK    3  A    between atoms: C_21  and  C_23
REMARK                            x       y       z     vdW  Elec       q    Type
REMARK                         _______ _______ _______ _____ _____    ______ ____
ROOT
ATOM     11  C   UNL     1      -1.296  -1.150   0.000  0.00  0.00    +0.130 A 
ATOM     12  C   UNL     1      -1.167  -0.335   0.000  0.00  0.00    +0.023 A 
ATOM     13  C   UNL     1      -0.397  -0.039   0.000  0.00  0.00    +0.014 A 
ATOM     14  C   UNL     1       0.244  -0.558   0.000  0.00  0.00    +0.041 A 
ATOM     15  C   UNL     1       1.163  -0.557   0.000  0.00  0.00    +0.058 C 
ATOM     16  C   UNL     1       1.713  -0.121   0.000  0.00  0.00    +0.011 C 
ATOM     17  C   UNL     1       1.582  -0.925   0.000  0.00  0.00    +0.043 C 
ATOM     18  C   UNL     1       1.629  -1.912   0.000  0.00  0.00    +0.096 C 
ATOM     19  N   UNL     1       0.813  -2.091   0.000  0.00  0.00    -0.276 N 
ATOM     20  C   UNL     1       1.225  -1.510   0.000  0.00  0.00    +0.099 C 
ATOM     21  C   UNL     1       0.125  -2.547   0.000  0.00  0.00    +0.249 C 
ATOM     22  O   UNL     1      -0.614  -2.179   0.000  0.00  0.00    -0.270 OA
ATOM     29  C   UNL     1       0.622  -0.936   0.000  0.00  0.00    +0.110 C 
ATOM     30  N   UNL     1       0.115  -1.373   0.000  0.00  0.00    -0.298 N 
ATOM     31  C   UNL     1      -0.655  -1.669   0.000  0.00  0.00    +0.276 A 
ATOM     32  O   UNL     1      -1.029  -2.404   0.000  0.00  0.00    -0.266 OA
ENDROOT
BRANCH  21  23
ATOM     23  C   UNL     1       0.176  -3.370   0.000  0.00  0.00    +0.054 A 
ATOM     24  C   UNL     1       0.914  -3.738   0.000  0.00  0.00    +0.005 A 
ATOM     25  C   UNL     1       0.965  -4.562   0.000  0.00  0.00    +0.000 A 
ATOM     26  C   UNL     1       0.277  -5.017   0.000  0.00  0.00    +0.000 A 
ATOM     27  C   UNL     1      -0.461  -4.650   0.000  0.00  0.00    +0.000 A 
ATOM     28  C   UNL     1      -0.512  -3.826   0.000  0.00  0.00    +0.005 A 
ENDBRANCH  21  23
BRANCH  11  10
ATOM      8  C   UNL     1      -2.707  -0.926   0.000  0.00  0.00    +0.269 C 
ATOM      9  O   UNL     1      -3.478  -1.222   0.000  0.00  0.00    -0.268 OA
ATOM     10  N   UNL     1      -2.066  -1.445   0.000  0.00  0.00    -0.171 NA
BRANCH   8   5
ATOM      1  F   UNL     1      -2.192   2.333   0.000  0.00  0.00    -0.204 F 
ATOM      2  C   UNL     1      -2.321   1.518   0.000  0.00  0.00    +0.140 A 
ATOM      3  C   UNL     1      -1.679   0.999   0.000  0.00  0.00    +0.030 A 
ATOM      4  C   UNL     1      -1.808   0.184   0.000  0.00  0.00    +0.007 A 
ATOM      5  C   UNL     1      -2.578  -0.111   0.000  0.00  0.00    +0.056 A 
ATOM      6  C   UNL     1      -3.220   0.408   0.000  0.00  0.00    +0.007 A 
ATOM      7  C   UNL     1      -3.091   1.223   0.000  0.00  0.00    +0.030 A 
ENDBRANCH   8   5
ENDBRANCH  11  10
TORSDOF 3
