MODEL 1
REMARK VINA RESULT:      -8.8      0.000      0.000
REMARK  Name = 
REMARK  5 active torsions:
REMARK  status: ('A' for Active; 'I' for Inactive)
REMARK    1  A    between atoms: O_2  and  C_3
REMARK    2  A    between atoms: C_6  and  C_9
REMARK    3  A    between atoms: N_14  and  C_15
REMARK    4  A    between atoms: C_19  and  N_23
REMARK    5  A    between atoms: C_24  and  C_26
REMARK                            x       y       z     vdW  Elec       q    Type
REMARK                         _______ _______ _______ _____ _____    ______ ____
ROOT
ATOM     15  C   UNL     1      -0.478   1.519  24.623  0.00  0.00    +0.154 C 
ATOM     16  C   UNL     1       0.029   2.028  25.027  0.00  0.00    +0.166 C 
ATOM     17  O   UNL     1       0.793   1.910  24.738  0.00  0.00    -0.350 OA
ATOM     18  C   UNL     1       0.758   1.328  24.156  0.00  0.00    +0.166 C 
ATOM     19  C   UNL     1       1.207   0.895  23.616  0.00  0.00    +0.155 C 
ATOM     20  C   UNL     1       0.700   0.385  23.212  0.00  0.00    +0.166 C 
ATOM     21  O   UNL     1      -0.063   0.504  23.501  0.00  0.00    -0.350 OA
ATOM     22  C   UNL     1      -0.028   1.086  24.084  0.00  0.00    +0.166 C 
ENDROOT
BRANCH  15  14
ATOM      9  C   UNL     1      -3.047   2.744  24.879  0.00  0.00    +0.086 A 
ATOM     10  C   UNL     1      -2.703   3.487  24.778  0.00  0.00    +0.040 A 
ATOM     11  C   UNL     1      -1.888   3.552  24.663  0.00  0.00    +0.103 A 
ATOM     12  N   UNL     1      -1.418   2.875  24.650  0.00  0.00    -0.211 NA
ATOM     13  C   UNL     1      -1.763   2.131  24.751  0.00  0.00    +0.237 A 
ATOM     14  N   UNL     1      -1.292   1.454  24.737  0.00  0.00    -0.200 NA
ATOM     31  N   UNL     1      -2.577   2.067  24.865  0.00  0.00    -0.212 NA
BRANCH   9   6
ATOM      3  C   UNL     1      -5.491   2.549  25.221  0.00  0.00    +0.139 A 
ATOM      4  C   UNL     1      -5.045   3.049  25.704  0.00  0.00    +0.037 A 
ATOM      5  C   UNL     1      -4.231   3.113  25.590  0.00  0.00    +0.005 A 
ATOM      6  C   UNL     1      -3.861   2.679  24.993  0.00  0.00    +0.018 A 
ATOM      7  C   UNL     1      -4.307   2.180  24.510  0.00  0.00    +0.005 A 
ATOM      8  C   UNL     1      -5.122   2.115  24.624  0.00  0.00    +0.037 A 
BRANCH   3   2
ATOM      1  C   UNL     1      -6.602   1.950  25.889  0.00  0.00    +0.252 C 
ATOM      2  O   UNL     1      -6.305   2.485  25.335  0.00  0.00    -0.471 OA
ENDBRANCH   3   2
ENDBRANCH   9   6
ENDBRANCH  15  14
BRANCH  19  23
ATOM     23  N   UNL     1       2.022   0.960  23.502  0.00  0.00    -0.198 NA
ATOM     24  C   UNL     1       2.410   0.440  22.993  0.00  0.00    +0.271 C 
ATOM     25  O   UNL     1       1.984  -0.146  22.598  0.00  0.00    -0.268 OA
BRANCH  24  26
ATOM     26  C   UNL     1       3.225   0.505  22.878  0.00  0.00    +0.084 A 
ATOM     27  C   UNL     1       3.616   1.142  22.530  0.00  0.00    +0.012 A 
ATOM     28  C   UNL     1       4.424   0.975  22.529  0.00  0.00    +0.008 A 
ATOM     29  C   UNL     1       4.532   0.235  22.876  0.00  0.00    +0.036 A 
ATOM     30  S   UNL     1       3.791  -0.056  23.092  0.00  0.00    -0.082 S 
ENDBRANCH  24  26
ENDBRANCH  19  23
TORSDOF 5
ENDMDL
MODEL 2
REMARK VINA RESULT:      -8.5      2.108      7.077
REMARK  Name = 
REMARK  5 active torsions:
REMARK  status: ('A' for Active; 'I' for Inactive)
REMARK    1  A    between atoms: O_2  and  C_3
REMARK    2  A    between atoms: C_6  and  C_9
REMARK    3  A    between atoms: N_14  and  C_15
REMARK    4  A    between atoms: C_19  and  N_23
REMARK    5  A    between atoms: C_24  and  C_26
REMARK                            x       y       z     vdW  Elec       q    Type
REMARK                         _______ _______ _______ _____ _____    ______ ____
ROOT
ATOM     15  C   UNL     1      -0.540   1.015  24.277  0.00  0.00    +0.154 C 
ATOM     16  C   UNL     1      -0.989   0.323  24.272  0.00  0.00    +0.166 C 
ATOM     17  O   UNL     1      -1.784   0.536  24.329  0.00  0.00    -0.350 OA
ATOM     18  C   UNL     1      -1.826   1.358  24.369  0.00  0.00    +0.166 C 
ATOM     19  C   UNL     1      -2.342   1.999  24.429  0.00  0.00    +0.155 C 
ATOM     20  C   UNL     1      -1.893   2.691  24.434  0.00  0.00    +0.166 C 
ATOM     21  O   UNL     1      -1.098   2.478  24.377  0.00  0.00    -0.350 OA
ATOM     22  C   UNL     1      -1.056   1.654  24.337  0.00  0.00    +0.166 C 
ENDROOT
BRANCH  15  14
ATOM      9  C   UNL     1       1.914   0.244  23.029  0.00  0.00    +0.086 A 
ATOM     10  C   UNL     1       1.495  -0.229  22.499  0.00  0.00    +0.040 A 
ATOM     11  C   UNL     1       0.672  -0.273  22.545  0.00  0.00    +0.103 A 
ATOM     12  N   UNL     1       0.268   0.156  23.123  0.00  0.00    -0.211 NA
ATOM     13  C   UNL     1       0.688   0.629  23.653  0.00  0.00    +0.237 A 
ATOM     14  N   UNL     1       0.283   1.059  24.231  0.00  0.00    -0.200 NA
ATOM     31  N   UNL     1       1.509   0.673  23.607  0.00  0.00    -0.212 NA
BRANCH   9   6
ATOM      3  C   UNL     1       4.381   0.374  22.889  0.00  0.00    +0.139 A 
ATOM      4  C   UNL     1       3.921   1.029  22.688  0.00  0.00    +0.037 A 
ATOM      5  C   UNL     1       3.099   0.985  22.734  0.00  0.00    +0.005 A 
ATOM      6  C   UNL     1       2.736   0.287  22.982  0.00  0.00    +0.018 A 
ATOM      7  C   UNL     1       3.195  -0.367  23.184  0.00  0.00    +0.005 A 
ATOM      8  C   UNL     1       4.018  -0.324  23.137  0.00  0.00    +0.037 A 
BRANCH   3   2
ATOM      1  C   UNL     1       5.669   0.069  23.427  0.00  0.00    +0.252 C 
ATOM      2  O   UNL     1       5.203   0.417  22.842  0.00  0.00    -0.471 OA
ENDBRANCH   3   2
ENDBRANCH   9   6
ENDBRANCH  15  14
BRANCH  19  23
ATOM     23  N   UNL     1      -3.165   1.955  24.476  0.00  0.00    -0.198 NA
ATOM     24  C   UNL     1      -3.578   2.467  24.974  0.00  0.00    +0.271 C 
ATOM     25  O   UNL     1      -3.168   3.022  25.427  0.00  0.00    -0.268 OA
BRANCH  24  26
ATOM     26  C   UNL     1      -4.401   2.423  25.021  0.00  0.00    +0.084 A 
ATOM     27  C   UNL     1      -4.872   1.820  24.714  0.00  0.00    +0.012 A 
ATOM     28  C   UNL     1      -5.659   1.999  24.886  0.00  0.00    +0.008 A 
ATOM     29  C   UNL     1      -5.673   2.712  25.299  0.00  0.00    +0.036 A 
ATOM     30  S   UNL     1      -4.896   2.974  25.383  0.00  0.00    -0.082 S 
ENDBRANCH  24  26
ENDBRANCH  19  23
TORSDOF 5
ENDMDL
