REMARK  Name = 
REMARK  9 active torsions:
REMARK  status: ('A' for Active; 'I' for Inactive)
REMARK    1  A    between atoms: C_2  and  O_3
REMARK    2  A    between atoms: O_3  and  C_4
REMARK    3  A    between atoms: C_4  and  C_6
REMARK    4  A    between atoms: C_10  and  N_11
REMARK    5  A    between atoms: C_17  and  C_18
REMARK    6  A    between atoms: C_18  and  C_19
REMARK    7  A    between atoms: N_21  and  C_22
REMARK    8  A    between atoms: C_22  and  C_23
REMARK    9  A    between atoms: C_33  and  C_34
REMARK                            x       y       z     vdW  Elec       q    Type
REMARK                         _______ _______ _______ _____ _____    ______ ____
ROOT
ATOM     11  N   UNL     1      -2.143   6.188   0.000  0.00  0.00    -0.162 NA
ATOM     12  C   UNL     1      -1.429   5.775   0.000  0.00  0.00    +0.327 C 
ATOM     13  O   UNL     1      -0.715   6.188   0.000  0.00  0.00    -0.250 OA
ATOM     14  N   UNL     1      -1.429   4.950   0.000  0.00  0.00    -0.263 N 
ATOM     15  C   UNL     1      -0.715   4.537   0.000  0.00  0.00    +0.095 C 
ATOM     16  C   UNL     1      -0.715   3.712   0.000  0.00  0.00    +0.022 C 
ATOM     17  C   UNL     1      -1.429   3.300   0.000  0.00  0.00    +0.012 C 
ATOM     33  C   UNL     1      -2.143   3.712   0.000  0.00  0.00    +0.020 C 
ATOM     36  C   UNL     1      -2.143   4.537   0.000  0.00  0.00    +0.095 C 
ENDROOT
BRANCH  11  10
ATOM      6  C   UNL     1      -2.858   8.250   0.000  0.00  0.00    +0.077 A 
ATOM      7  C   UNL     1      -2.143   8.662   0.000  0.00  0.00    +0.007 A 
ATOM      8  C   UNL     1      -1.429   8.250   0.000  0.00  0.00    +0.002 A 
ATOM      9  C   UNL     1      -1.429   7.425   0.000  0.00  0.00    +0.017 A 
ATOM     10  C   UNL     1      -2.143   7.013   0.000  0.00  0.00    +0.075 A 
ATOM     37  C   UNL     1      -2.858   7.425   0.000  0.00  0.00    +0.023 A 
BRANCH   6   4
ATOM      4  C   UNL     1      -3.572   8.662   0.000  0.00  0.00    +0.341 C 
ATOM      5  O   UNL     1      -4.287   8.250   0.000  0.00  0.00    -0.245 OA
BRANCH   4   3
ATOM      3  O   UNL     1      -3.572   9.488   0.000  0.00  0.00    -0.445 OA
BRANCH   3   2
ATOM      1  C   UNL     1      -4.287  10.725   0.000  0.00  0.00    +0.051 C 
ATOM      2  C   UNL     1      -4.287   9.900   0.000  0.00  0.00    +0.209 C 
ENDBRANCH   3   2
ENDBRANCH   4   3
ENDBRANCH   6   4
ENDBRANCH  11  10
BRANCH  33  34
ATOM     34  C   UNL     1      -2.858   3.300   0.000  0.00  0.00    +0.002 C 
ATOM     35  C   UNL     1      -3.572   3.712   0.000  0.00  0.00    +0.000 C 
ENDBRANCH  33  34
BRANCH  17  18
ATOM     18  C   UNL     1      -1.429   2.475   0.000  0.00  0.00    +0.087 C 
BRANCH  18  19
ATOM     19  C   UNL     1      -0.715   2.062   0.000  0.00  0.00    +0.242 C 
ATOM     20  O   UNL     1       0.000   2.475   0.000  0.00  0.00    -0.273 OA
ATOM     21  N   UNL     1      -0.715   1.238   0.000  0.00  0.00    -0.201 NA
BRANCH  21  22
ATOM     22  C   UNL     1       0.000   0.825   0.000  0.00  0.00    +0.141 C 
BRANCH  22  23
ATOM     23  C   UNL     1       0.000   0.000   0.000  0.00  0.00    -0.001 A 
ATOM     24  C   UNL     1      -0.715  -0.412   0.000  0.00  0.00    -0.003 A 
ATOM     25  C   UNL     1      -0.715  -1.238   0.000  0.00  0.00    -0.000 A 
ATOM     26  C   UNL     1       0.000  -1.650   0.000  0.00  0.00    -0.000 A 
ATOM     27  C   UNL     1       0.715  -1.238   0.000  0.00  0.00    -0.000 A 
ATOM     28  C   UNL     1       0.715  -0.412   0.000  0.00  0.00    -0.002 A 
ATOM     29  C   UNL     1       1.429   0.000   0.000  0.00  0.00    -0.000 A 
ATOM     30  C   UNL     1       2.143  -0.412   0.000  0.00  0.00    -0.000 A 
ATOM     31  C   UNL     1       2.143  -1.238   0.000  0.00  0.00    -0.000 A 
ATOM     32  C   UNL     1       1.429  -1.650   0.000  0.00  0.00    -0.000 A 
ENDBRANCH  22  23
ENDBRANCH  21  22
ENDBRANCH  18  19
ENDBRANCH  17  18
TORSDOF 9
