REMARK  Name = 
REMARK  2 active torsions:
REMARK  status: ('A' for Active; 'I' for Inactive)
REMARK    1  A    between atoms: C_13  and  N_19
REMARK    2  A    between atoms: C_20  and  C_22
REMARK                            x       y       z     vdW  Elec       q    Type
REMARK                         _______ _______ _______ _____ _____    ______ ____
ROOT
ATOM      1  C   UNL     1       0.288  -2.844   0.000  0.00  0.00    +0.095 C 
ATOM      2  C   UNL     1       1.037  -2.497   0.000  0.00  0.00    +0.226 C 
ATOM      3  O   UNL     1       1.711  -2.972   0.000  0.00  0.00    -0.275 OA
ATOM      4  N   UNL     1       1.111  -1.675   0.000  0.00  0.00    -0.272 N 
ATOM      5  C   UNL     1       0.489  -1.132   0.000  0.00  0.00    +0.096 C 
ATOM      6  C   UNL     1       0.814  -0.374   0.000  0.00  0.00    +0.045 C 
ATOM      7  C   UNL     1       1.635  -0.448   0.000  0.00  0.00    +0.124 C 
ATOM      8  N   UNL     1       2.150   0.197   0.000  0.00  0.00    -0.204 NA
ATOM      9  C   UNL     1       2.975   0.197   0.000  0.00  0.00    +0.260 C 
ATOM     10  O   UNL     1       3.333   0.941   0.000  0.00  0.00    -0.272 OA
ATOM     11  C   UNL     1       3.489  -0.448   0.000  0.00  0.00    +0.155 C 
ATOM     12  C   UNL     1       4.311  -0.374   0.000  0.00  0.00    +0.053 C 
ATOM     13  C   UNL     1       4.635  -1.132   0.000  0.00  0.00    +0.118 C 
ATOM     14  C   UNL     1       4.014  -1.675   0.000  0.00  0.00    +0.115 C 
ATOM     15  N   UNL     1       3.305  -1.252   0.000  0.00  0.00    -0.270 N 
ATOM     16  C   UNL     1       2.562  -1.610   0.000  0.00  0.00    +0.246 C 
ATOM     17  O   UNL     1       2.562  -2.435   0.000  0.00  0.00    -0.273 OA
ATOM     18  C   UNL     1       1.819  -1.252   0.000  0.00  0.00    +0.172 C 
ENDROOT
BRANCH  13  19
ATOM     19  N   UNL     1       5.439  -1.316   0.000  0.00  0.00    -0.201 NA
ATOM     20  C   UNL     1       6.000  -0.711   0.000  0.00  0.00    +0.271 C 
ATOM     21  O   UNL     1       5.757   0.077   0.000  0.00  0.00    -0.268 OA
BRANCH  20  22
ATOM     22  C   UNL     1       6.805  -0.895   0.000  0.00  0.00    +0.084 A 
ATOM     23  C   UNL     1       7.426  -0.352   0.000  0.00  0.00    +0.012 A 
ATOM     24  C   UNL     1       8.134  -0.775   0.000  0.00  0.00    +0.008 A 
ATOM     25  C   UNL     1       7.951  -1.579   0.000  0.00  0.00    +0.036 A 
ATOM     26  S   UNL     1       7.129  -1.653   0.000  0.00  0.00    -0.082 S 
ENDBRANCH  20  22
ENDBRANCH  13  19
TORSDOF 2
