MODEL 1
REMARK VINA RESULT:     -13.4      0.000      0.000
REMARK  Name = 
REMARK  5 active torsions:
REMARK  status: ('A' for Active; 'I' for Inactive)
REMARK    1  A    between atoms: N_4  and  C_22
REMARK    2  A    between atoms: C_7  and  C_8
REMARK    3  A    between atoms: C_10  and  N_11
REMARK    4  A    between atoms: C_12  and  C_14
REMARK    5  A    between atoms: C_25  and  C_28
REMARK                            x       y       z     vdW  Elec       q    Type
REMARK                         _______ _______ _______ _____ _____    ______ ____
ROOT
ATOM      1  C   UNL     1      -5.551   1.566  25.596  0.00  0.00    +0.054 C 
ATOM      2  C   UNL     1      -4.992   1.081  25.230  0.00  0.00    +0.077 A 
ATOM      3  N   UNL     1      -4.978   0.257  25.250  0.00  0.00    -0.170 NA
ATOM      4  N   UNL     1      -4.327   0.002  24.812  0.00  0.00    -0.234 N 
ATOM      5  C   UNL     1      -3.938   0.670  24.522  0.00  0.00    +0.058 A 
ATOM      6  C   UNL     1      -3.257   0.670  24.056  0.00  0.00    +0.052 C 
ATOM      7  C   UNL     1      -4.349   1.337  24.781  0.00  0.00    +0.010 A 
ENDROOT
BRANCH   4  22
ATOM     22  C   UNL     1      -4.103  -0.782  24.686  0.00  0.00    +0.082 A 
ATOM     23  C   UNL     1      -4.340  -1.173  23.999  0.00  0.00    +0.019 A 
ATOM     24  C   UNL     1      -4.116  -1.957  23.873  0.00  0.00    +0.005 A 
ATOM     25  C   UNL     1      -3.657  -2.350  24.433  0.00  0.00    +0.072 A 
ATOM     26  C   UNL     1      -3.419  -1.959  25.121  0.00  0.00    +0.005 A 
ATOM     27  C   UNL     1      -3.643  -1.175  25.247  0.00  0.00    +0.019 A 
BRANCH  25  28
ATOM     28  C   UNL     1      -3.433  -3.135  24.308  0.00  0.00    +0.419 C 
ATOM     29  F   UNL     1      -3.209  -3.918  24.182  0.00  0.00    -0.166 F 
ATOM     30  F   UNL     1      -4.228  -3.355  24.268  0.00  0.00    -0.166 F 
ATOM     31  F   UNL     1      -2.639  -2.914  24.347  0.00  0.00    -0.166 F 
ENDBRANCH  25  28
ENDBRANCH   4  22
BRANCH   7   8
ATOM      8  C   UNL     1      -4.151   2.121  24.618  0.00  0.00    +0.048 C 
ATOM      9  C   UNL     1      -3.393   2.444  24.637  0.00  0.00    +0.035 C 
ATOM     10  C   UNL     1      -3.451   3.242  24.438  0.00  0.00    +0.118 C 
ATOM     20  C   UNL     1      -4.246   3.412  24.296  0.00  0.00    -0.009 C 
ATOM     21  C   UNL     1      -4.678   2.720  24.407  0.00  0.00    -0.025 C 
BRANCH  10  11
ATOM     11  N   UNL     1      -2.825   3.777  24.389  0.00  0.00    -0.199 NA
ATOM     12  C   UNL     1      -2.430   4.015  25.073  0.00  0.00    +0.267 C 
ATOM     13  O   UNL     1      -2.660   3.717  25.807  0.00  0.00    -0.268 OA
BRANCH  12  14
ATOM     14  C   UNL     1      -1.804   4.550  25.023  0.00  0.00    +0.074 A 
ATOM     15  C   UNL     1      -1.037   4.277  24.888  0.00  0.00    +0.008 A 
ATOM     16  C   UNL     1      -0.411   4.812  24.838  0.00  0.00    +0.021 A 
ATOM     17  C   UNL     1      -0.552   5.621  24.924  0.00  0.00    +0.099 A 
ATOM     18  N   UNL     1      -1.319   5.893  25.059  0.00  0.00    -0.242 NA
ATOM     19  C   UNL     1      -1.944   5.359  25.109  0.00  0.00    +0.103 A 
ENDBRANCH  12  14
ENDBRANCH  10  11
ENDBRANCH   7   8
TORSDOF 5
ENDMDL
MODEL 2
REMARK VINA RESULT:     -13.0      3.016      6.033
REMARK  Name = 
REMARK  5 active torsions:
REMARK  status: ('A' for Active; 'I' for Inactive)
REMARK    1  A    between atoms: N_4  and  C_22
REMARK    2  A    between atoms: C_7  and  C_8
REMARK    3  A    between atoms: C_10  and  N_11
REMARK    4  A    between atoms: C_12  and  C_14
REMARK    5  A    between atoms: C_25  and  C_28
REMARK                            x       y       z     vdW  Elec       q    Type
REMARK                         _______ _______ _______ _____ _____    ______ ____
ROOT
ATOM      1  C   UNL     1      -5.408   2.874  25.873  0.00  0.00    +0.054 C 
ATOM      2  C   UNL     1      -4.639   2.931  25.576  0.00  0.00    +0.077 A 
ATOM      3  N   UNL     1      -4.151   3.594  25.620  0.00  0.00    -0.170 NA
ATOM      4  N   UNL     1      -3.435   3.407  25.254  0.00  0.00    -0.234 N 
ATOM      5  C   UNL     1      -3.482   2.629  24.984  0.00  0.00    +0.058 A 
ATOM      6  C   UNL     1      -2.888   2.218  24.585  0.00  0.00    +0.052 C 
ATOM      7  C   UNL     1      -4.227   2.335  25.183  0.00  0.00    +0.010 A 
ENDROOT
BRANCH   4  22
ATOM     22  C   UNL     1      -2.786   3.911  25.173  0.00  0.00    +0.082 A 
ATOM     23  C   UNL     1      -2.767   4.462  24.560  0.00  0.00    +0.019 A 
ATOM     24  C   UNL     1      -2.118   4.966  24.479  0.00  0.00    +0.005 A 
ATOM     25  C   UNL     1      -1.489   4.917  25.009  0.00  0.00    +0.072 A 
ATOM     26  C   UNL     1      -1.508   4.365  25.622  0.00  0.00    +0.005 A 
ATOM     27  C   UNL     1      -2.157   3.861  25.704  0.00  0.00    +0.019 A 
BRANCH  25  28
ATOM     28  C   UNL     1      -0.840   5.421  24.928  0.00  0.00    +0.419 C 
ATOM     29  F   UNL     1      -0.192   5.924  24.847  0.00  0.00    -0.166 F 
ATOM     30  F   UNL     1      -0.390   4.793  24.637  0.00  0.00    -0.166 F 
ATOM     31  F   UNL     1      -1.291   6.047  25.219  0.00  0.00    -0.166 F 
ENDBRANCH  25  28
ENDBRANCH   4  22
BRANCH   7   8
ATOM      8  C   UNL     1      -4.508   1.577  25.017  0.00  0.00    +0.048 C 
ATOM      9  C   UNL     1      -4.110   0.869  25.161  0.00  0.00    +0.035 C 
ATOM     10  C   UNL     1      -4.593   0.250  24.911  0.00  0.00    +0.118 C 
ATOM     20  C   UNL     1      -5.290   0.575  24.612  0.00  0.00    -0.009 C 
ATOM     21  C   UNL     1      -5.237   1.394  24.677  0.00  0.00    -0.025 C 
BRANCH  10  11
ATOM     11  N   UNL     1      -4.412  -0.554  24.952  0.00  0.00    -0.199 NA
ATOM     12  C   UNL     1      -4.078  -0.936  24.302  0.00  0.00    +0.267 C 
ATOM     13  O   UNL     1      -3.924  -0.515  23.609  0.00  0.00    -0.268 OA
BRANCH  12  14
ATOM     14  C   UNL     1      -3.897  -1.741  24.343  0.00  0.00    +0.074 A 
ATOM     15  C   UNL     1      -3.334  -2.009  24.883  0.00  0.00    +0.008 A 
ATOM     16  C   UNL     1      -3.154  -2.813  24.925  0.00  0.00    +0.021 A 
ATOM     17  C   UNL     1      -3.536  -3.348  24.427  0.00  0.00    +0.099 A 
ATOM     18  N   UNL     1      -4.099  -3.079  23.888  0.00  0.00    -0.242 NA
ATOM     19  C   UNL     1      -4.280  -2.276  23.846  0.00  0.00    +0.103 A 
ENDBRANCH  12  14
ENDBRANCH  10  11
ENDBRANCH   7   8
TORSDOF 5
ENDMDL
MODEL 3
REMARK VINA RESULT:     -11.4      3.562      6.619
REMARK  Name = 
REMARK  5 active torsions:
REMARK  status: ('A' for Active; 'I' for Inactive)
REMARK    1  A    between atoms: N_4  and  C_22
REMARK    2  A    between atoms: C_7  and  C_8
REMARK    3  A    between atoms: C_10  and  N_11
REMARK    4  A    between atoms: C_12  and  C_14
REMARK    5  A    between atoms: C_25  and  C_28
REMARK                            x       y       z     vdW  Elec       q    Type
REMARK                         _______ _______ _______ _____ _____    ______ ____
ROOT
ATOM      1  C   UNL     1       0.686   0.657  23.975  0.00  0.00    +0.054 C 
ATOM      2  C   UNL     1       0.125   1.182  24.278  0.00  0.00    +0.077 A 
ATOM      3  N   UNL     1       0.180   2.004  24.274  0.00  0.00    -0.170 NA
ATOM      4  N   UNL     1      -0.500   2.307  24.631  0.00  0.00    -0.234 N 
ATOM      5  C   UNL     1      -0.974   1.670  24.856  0.00  0.00    +0.058 A 
ATOM      6  C   UNL     1      -1.706   1.721  25.233  0.00  0.00    +0.052 C 
ATOM      7  C   UNL     1      -0.587   0.974  24.638  0.00  0.00    +0.010 A 
ENDROOT
BRANCH   4  22
ATOM     22  C   UNL     1      -0.674   3.105  24.744  0.00  0.00    +0.082 A 
ATOM     23  C   UNL     1      -0.822   3.590  24.093  0.00  0.00    +0.019 A 
ATOM     24  C   UNL     1      -0.997   4.389  24.206  0.00  0.00    +0.005 A 
ATOM     25  C   UNL     1      -1.024   4.702  24.968  0.00  0.00    +0.072 A 
ATOM     26  C   UNL     1      -0.876   4.216  25.620  0.00  0.00    +0.005 A 
ATOM     27  C   UNL     1      -0.701   3.418  25.507  0.00  0.00    +0.019 A 
BRANCH  25  28
ATOM     28  C   UNL     1      -1.199   5.501  25.081  0.00  0.00    +0.419 C 
ATOM     29  F   UNL     1      -1.373   6.299  25.193  0.00  0.00    -0.166 F 
ATOM     30  F   UNL     1      -1.910   5.293  25.446  0.00  0.00    -0.166 F 
ATOM     31  F   UNL     1      -0.489   5.707  24.716  0.00  0.00    -0.166 F 
ENDBRANCH  25  28
ENDBRANCH   4  22
BRANCH   7   8
ATOM      8  C   UNL     1      -0.866   0.207  24.759  0.00  0.00    +0.048 C 
ATOM      9  C   UNL     1      -1.453  -0.171  24.321  0.00  0.00    +0.035 C 
ATOM     10  C   UNL     1      -1.556  -0.927  24.631  0.00  0.00    +0.118 C 
ATOM     20  C   UNL     1      -1.031  -1.018  25.261  0.00  0.00    -0.009 C 
ATOM     21  C   UNL     1      -0.605  -0.317  25.340  0.00  0.00    -0.025 C 
BRANCH  10  11
ATOM     11  N   UNL     1      -2.089  -1.496  24.359  0.00  0.00    -0.199 NA
ATOM     12  C   UNL     1      -2.822  -1.584  24.728  0.00  0.00    +0.267 C 
ATOM     13  O   UNL     1      -3.023  -1.105  25.368  0.00  0.00    -0.268 OA
BRANCH  12  14
ATOM     14  C   UNL     1      -3.354  -2.153  24.455  0.00  0.00    +0.074 A 
ATOM     15  C   UNL     1      -3.992  -1.928  23.983  0.00  0.00    +0.008 A 
ATOM     16  C   UNL     1      -4.525  -2.496  23.711  0.00  0.00    +0.021 A 
ATOM     17  C   UNL     1      -4.419  -3.290  23.911  0.00  0.00    +0.099 A 
ATOM     18  N   UNL     1      -3.781  -3.514  24.384  0.00  0.00    -0.242 NA
ATOM     19  C   UNL     1      -3.249  -2.946  24.656  0.00  0.00    +0.103 A 
ENDBRANCH  12  14
ENDBRANCH  10  11
ENDBRANCH   7   8
TORSDOF 5
ENDMDL
MODEL 4
REMARK VINA RESULT:     -11.1      1.835      2.491
REMARK  Name = 
REMARK  5 active torsions:
REMARK  status: ('A' for Active; 'I' for Inactive)
REMARK    1  A    between atoms: N_4  and  C_22
REMARK    2  A    between atoms: C_7  and  C_8
REMARK    3  A    between atoms: C_10  and  N_11
REMARK    4  A    between atoms: C_12  and  C_14
REMARK    5  A    between atoms: C_25  and  C_28
REMARK                            x       y       z     vdW  Elec       q    Type
REMARK                         _______ _______ _______ _____ _____    ______ ____
ROOT
ATOM      1  C   UNL     1      -0.695  -0.327  26.593  0.00  0.00    +0.054 C 
ATOM      2  C   UNL     1      -1.223  -0.418  25.965  0.00  0.00    +0.077 A 
ATOM      3  N   UNL     1      -1.710  -1.070  25.834  0.00  0.00    -0.170 NA
ATOM      4  N   UNL     1      -2.144  -0.929  25.146  0.00  0.00    -0.234 N 
ATOM      5  C   UNL     1      -1.925  -0.190  24.853  0.00  0.00    +0.058 A 
ATOM      6  C   UNL     1      -2.223   0.171  24.173  0.00  0.00    +0.052 C 
ATOM      7  C   UNL     1      -1.355   0.126  25.360  0.00  0.00    +0.010 A 
ENDROOT
BRANCH   4  22
ATOM     22  C   UNL     1      -2.701  -1.438  24.810  0.00  0.00    +0.082 A 
ATOM     23  C   UNL     1      -3.497  -1.223  24.791  0.00  0.00    +0.019 A 
ATOM     24  C   UNL     1      -4.053  -1.732  24.455  0.00  0.00    +0.005 A 
ATOM     25  C   UNL     1      -3.813  -2.454  24.139  0.00  0.00    +0.072 A 
ATOM     26  C   UNL     1      -3.016  -2.669  24.158  0.00  0.00    +0.005 A 
ATOM     27  C   UNL     1      -2.460  -2.160  24.494  0.00  0.00    +0.019 A 
BRANCH  25  28
ATOM     28  C   UNL     1      -4.370  -2.963  23.803  0.00  0.00    +0.419 C 
ATOM     29  F   UNL     1      -4.926  -3.471  23.467  0.00  0.00    -0.166 F 
ATOM     30  F   UNL     1      -4.023  -3.601  24.195  0.00  0.00    -0.166 F 
ATOM     31  F   UNL     1      -4.716  -2.325  23.412  0.00  0.00    -0.166 F 
ENDBRANCH  25  28
ENDBRANCH   4  22
BRANCH   7   8
ATOM      8  C   UNL     1      -0.983   0.858  25.274  0.00  0.00    +0.048 C 
ATOM      9  C   UNL     1      -1.307   1.592  25.463  0.00  0.00    +0.035 C 
ATOM     10  C   UNL     1      -0.747   2.171  25.290  0.00  0.00    +0.118 C 
ATOM     20  C   UNL     1      -0.075   1.794  24.994  0.00  0.00    -0.009 C 
ATOM     21  C   UNL     1      -0.221   0.983  24.984  0.00  0.00    -0.025 C 
BRANCH  10  11
ATOM     11  N   UNL     1      -0.839   2.984  25.395  0.00  0.00    -0.199 NA
ATOM     12  C   UNL     1      -1.053   3.461  24.756  0.00  0.00    +0.267 C 
ATOM     13  O   UNL     1      -1.175   3.125  24.013  0.00  0.00    -0.268 OA
BRANCH  12  14
ATOM     14  C   UNL     1      -1.146   4.274  24.862  0.00  0.00    +0.074 A 
ATOM     15  C   UNL     1      -1.852   4.572  25.166  0.00  0.00    +0.008 A 
ATOM     16  C   UNL     1      -1.944   5.386  25.271  0.00  0.00    +0.021 A 
ATOM     17  C   UNL     1      -1.331   5.900  25.072  0.00  0.00    +0.099 A 
ATOM     18  N   UNL     1      -0.625   5.601  24.767  0.00  0.00    -0.242 NA
ATOM     19  C   UNL     1      -0.532   4.788  24.662  0.00  0.00    +0.103 A 
ENDBRANCH  12  14
ENDBRANCH  10  11
ENDBRANCH   7   8
TORSDOF 5
ENDMDL
MODEL 5
REMARK VINA RESULT:     -11.0      3.512      4.867
REMARK  Name = 
REMARK  5 active torsions:
REMARK  status: ('A' for Active; 'I' for Inactive)
REMARK    1  A    between atoms: N_4  and  C_22
REMARK    2  A    between atoms: C_7  and  C_8
REMARK    3  A    between atoms: C_10  and  N_11
REMARK    4  A    between atoms: C_12  and  C_14
REMARK    5  A    between atoms: C_25  and  C_28
REMARK                            x       y       z     vdW  Elec       q    Type
REMARK                         _______ _______ _______ _____ _____    ______ ____
ROOT
ATOM      1  C   UNL     1      -1.318   4.271  25.002  0.00  0.00    +0.054 C 
ATOM      2  C   UNL     1      -1.849   3.638  24.990  0.00  0.00    +0.077 A 
ATOM      3  N   UNL     1      -2.671   3.695  25.000  0.00  0.00    -0.170 NA
ATOM      4  N   UNL     1      -2.979   2.930  24.982  0.00  0.00    -0.234 N 
ATOM      5  C   UNL     1      -2.347   2.400  24.961  0.00  0.00    +0.058 A 
ATOM      6  C   UNL     1      -2.404   1.577  24.939  0.00  0.00    +0.052 C 
ATOM      7  C   UNL     1      -1.647   2.838  24.966  0.00  0.00    +0.010 A 
ENDROOT
BRANCH   4  22
ATOM     22  C   UNL     1      -3.780   2.729  24.985  0.00  0.00    +0.082 A 
ATOM     23  C   UNL     1      -4.217   2.790  25.682  0.00  0.00    +0.019 A 
ATOM     24  C   UNL     1      -5.018   2.589  25.684  0.00  0.00    +0.005 A 
ATOM     25  C   UNL     1      -5.380   2.327  24.992  0.00  0.00    +0.072 A 
ATOM     26  C   UNL     1      -4.942   2.266  24.294  0.00  0.00    +0.005 A 
ATOM     27  C   UNL     1      -4.141   2.467  24.292  0.00  0.00    +0.019 A 
BRANCH  25  28
ATOM     28  C   UNL     1      -6.180   2.126  24.994  0.00  0.00    +0.419 C 
ATOM     29  F   UNL     1      -6.980   1.926  24.997  0.00  0.00    -0.166 F 
ATOM     30  F   UNL     1      -5.993   1.375  24.709  0.00  0.00    -0.166 F 
ATOM     31  F   UNL     1      -6.367   2.878  25.279  0.00  0.00    -0.166 F 
ENDBRANCH  25  28
ENDBRANCH   4  22
BRANCH   7   8
ATOM      8  C   UNL     1      -0.882   2.529  24.950  0.00  0.00    +0.048 C 
ATOM      9  C   UNL     1      -0.460   2.315  24.276  0.00  0.00    +0.035 C 
ATOM     10  C   UNL     1       0.277   2.034  24.515  0.00  0.00    +0.118 C 
ATOM     20  C   UNL     1       0.310   2.075  25.339  0.00  0.00    -0.009 C 
ATOM     21  C   UNL     1      -0.406   2.381  25.607  0.00  0.00    -0.025 C 
BRANCH  10  11
ATOM     11  N   UNL     1       0.877   1.760  24.020  0.00  0.00    -0.199 NA
ATOM     12  C   UNL     1       0.908   0.962  23.810  0.00  0.00    +0.267 C 
ATOM     13  O   UNL     1       0.339   0.438  24.096  0.00  0.00    -0.268 OA
BRANCH  12  14
ATOM     14  C   UNL     1       1.509   0.689  23.315  0.00  0.00    +0.074 A 
ATOM     15  C   UNL     1       2.269   1.001  23.378  0.00  0.00    +0.008 A 
ATOM     16  C   UNL     1       2.870   0.728  22.882  0.00  0.00    +0.021 A 
ATOM     17  C   UNL     1       2.709   0.142  22.324  0.00  0.00    +0.099 A 
ATOM     18  N   UNL     1       1.948  -0.170  22.261  0.00  0.00    -0.242 NA
ATOM     19  C   UNL     1       1.348   0.103  22.756  0.00  0.00    +0.103 A 
ENDBRANCH  12  14
ENDBRANCH  10  11
ENDBRANCH   7   8
TORSDOF 5
ENDMDL
MODEL 6
REMARK VINA RESULT:     -10.9      3.809      5.020
REMARK  Name = 
REMARK  5 active torsions:
REMARK  status: ('A' for Active; 'I' for Inactive)
REMARK    1  A    between atoms: N_4  and  C_22
REMARK    2  A    between atoms: C_7  and  C_8
REMARK    3  A    between atoms: C_10  and  N_11
REMARK    4  A    between atoms: C_12  and  C_14
REMARK    5  A    between atoms: C_25  and  C_28
REMARK                            x       y       z     vdW  Elec       q    Type
REMARK                         _______ _______ _______ _____ _____    ______ ____
ROOT
ATOM      1  C   UNL     1      -3.359  -0.825  24.040  0.00  0.00    +0.054 C 
ATOM      2  C   UNL     1      -3.355  -0.051  24.329  0.00  0.00    +0.077 A 
ATOM      3  N   UNL     1      -4.015   0.433  24.424  0.00  0.00    -0.170 NA
ATOM      4  N   UNL     1      -3.758   1.157  24.728  0.00  0.00    -0.234 N 
ATOM      5  C   UNL     1      -2.939   1.118  24.820  0.00  0.00    +0.058 A 
ATOM      6  C   UNL     1      -2.454   1.721  25.108  0.00  0.00    +0.052 C 
ATOM      7  C   UNL     1      -2.689   0.371  24.573  0.00  0.00    +0.010 A 
ENDROOT
BRANCH   4  22
ATOM     22  C   UNL     1      -4.236   1.805  24.907  0.00  0.00    +0.082 A 
ATOM     23  C   UNL     1      -4.133   2.517  24.503  0.00  0.00    +0.019 A 
ATOM     24  C   UNL     1      -4.611   3.165  24.683  0.00  0.00    +0.005 A 
ATOM     25  C   UNL     1      -5.191   3.102  25.266  0.00  0.00    +0.072 A 
ATOM     26  C   UNL     1      -5.293   2.389  25.670  0.00  0.00    +0.005 A 
ATOM     27  C   UNL     1      -4.815   1.741  25.491  0.00  0.00    +0.019 A 
BRANCH  25  28
ATOM     28  C   UNL     1      -5.669   3.750  25.445  0.00  0.00    +0.419 C 
ATOM     29  F   UNL     1      -6.146   4.398  25.625  0.00  0.00    -0.166 F 
ATOM     30  F   UNL     1      -6.335   3.263  25.429  0.00  0.00    -0.166 F 
ATOM     31  F   UNL     1      -5.003   4.236  25.462  0.00  0.00    -0.166 F 
ENDBRANCH  25  28
ENDBRANCH   4  22
BRANCH   7   8
ATOM      8  C   UNL     1      -1.912   0.096  24.572  0.00  0.00    +0.048 C 
ATOM      9  C   UNL     1      -1.395   0.102  23.930  0.00  0.00    +0.035 C 
ATOM     10  C   UNL     1      -0.679  -0.223  24.174  0.00  0.00    +0.118 C 
ATOM     20  C   UNL     1      -0.752  -0.431  24.970  0.00  0.00    -0.009 C 
ATOM     21  C   UNL     1      -1.513  -0.234  25.215  0.00  0.00    -0.025 C 
BRANCH  10  11
ATOM     11  N   UNL     1      -0.006  -0.324  23.707  0.00  0.00    -0.199 NA
ATOM     12  C   UNL     1       0.506   0.309  23.578  0.00  0.00    +0.267 C 
ATOM     13  O   UNL     1       0.346   1.045  23.916  0.00  0.00    -0.268 OA
BRANCH  12  14
ATOM     14  C   UNL     1       1.179   0.208  23.111  0.00  0.00    +0.074 A 
ATOM     15  C   UNL     1       1.901   0.523  23.354  0.00  0.00    +0.008 A 
ATOM     16  C   UNL     1       2.574   0.422  22.887  0.00  0.00    +0.021 A 
ATOM     17  C   UNL     1       2.524   0.004  22.177  0.00  0.00    +0.099 A 
ATOM     18  N   UNL     1       1.801  -0.311  21.935  0.00  0.00    -0.242 NA
ATOM     19  C   UNL     1       1.129  -0.210  22.401  0.00  0.00    +0.103 A 
ENDBRANCH  12  14
ENDBRANCH  10  11
ENDBRANCH   7   8
TORSDOF 5
ENDMDL
MODEL 7
REMARK VINA RESULT:     -10.4      3.585      4.887
REMARK  Name = 
REMARK  5 active torsions:
REMARK  status: ('A' for Active; 'I' for Inactive)
REMARK    1  A    between atoms: N_4  and  C_22
REMARK    2  A    between atoms: C_7  and  C_8
REMARK    3  A    between atoms: C_10  and  N_11
REMARK    4  A    between atoms: C_12  and  C_14
REMARK    5  A    between atoms: C_25  and  C_28
REMARK                            x       y       z     vdW  Elec       q    Type
REMARK                         _______ _______ _______ _____ _____    ______ ____
ROOT
ATOM      1  C   UNL     1      -1.401  -1.070  25.377  0.00  0.00    +0.054 C 
ATOM      2  C   UNL     1      -1.041  -0.600  24.801  0.00  0.00    +0.077 A 
ATOM      3  N   UNL     1      -0.252  -0.640  24.568  0.00  0.00    -0.170 NA
ATOM      4  N   UNL     1      -0.130  -0.072  23.981  0.00  0.00    -0.234 N 
ATOM      5  C   UNL     1      -0.845   0.318  23.852  0.00  0.00    +0.058 A 
ATOM      6  C   UNL     1      -0.974   0.928  23.311  0.00  0.00    +0.052 C 
ATOM      7  C   UNL     1      -1.409  -0.008  24.360  0.00  0.00    +0.010 A 
ENDROOT
BRANCH   4  22
ATOM     22  C   UNL     1       0.582   0.078  23.591  0.00  0.00    +0.082 A 
ATOM     23  C   UNL     1       1.037   0.732  23.804  0.00  0.00    +0.019 A 
ATOM     24  C   UNL     1       1.749   0.883  23.414  0.00  0.00    +0.005 A 
ATOM     25  C   UNL     1       2.004   0.380  22.813  0.00  0.00    +0.072 A 
ATOM     26  C   UNL     1       1.548  -0.275  22.600  0.00  0.00    +0.005 A 
ATOM     27  C   UNL     1       0.837  -0.425  22.990  0.00  0.00    +0.019 A 
BRANCH  25  28
ATOM     28  C   UNL     1       2.716   0.530  22.423  0.00  0.00    +0.419 C 
ATOM     29  F   UNL     1       3.427   0.680  22.033  0.00  0.00    -0.166 F 
ATOM     30  F   UNL     1       2.968   0.991  23.060  0.00  0.00    -0.166 F 
ATOM     31  F   UNL     1       2.464   0.070  21.787  0.00  0.00    -0.166 F 
ENDBRANCH  25  28
ENDBRANCH   4  22
BRANCH   7   8
ATOM      8  C   UNL     1      -2.200   0.220  24.414  0.00  0.00    +0.048 C 
ATOM      9  C   UNL     1      -2.496   0.845  24.863  0.00  0.00    +0.035 C 
ATOM     10  C   UNL     1      -3.312   0.872  24.755  0.00  0.00    +0.118 C 
ATOM     20  C   UNL     1      -3.522   0.263  24.239  0.00  0.00    -0.009 C 
ATOM     21  C   UNL     1      -2.835  -0.140  24.029  0.00  0.00    -0.025 C 
BRANCH  10  11
ATOM     11  N   UNL     1      -3.830   1.413  25.102  0.00  0.00    -0.199 NA
ATOM     12  C   UNL     1      -4.149   2.027  24.652  0.00  0.00    +0.267 C 
ATOM     13  O   UNL     1      -3.950   2.101  23.855  0.00  0.00    -0.268 OA
BRANCH  12  14
ATOM     14  C   UNL     1      -4.667   2.567  24.999  0.00  0.00    +0.074 A 
ATOM     15  C   UNL     1      -5.420   2.325  25.232  0.00  0.00    +0.008 A 
ATOM     16  C   UNL     1      -5.938   2.865  25.579  0.00  0.00    +0.021 A 
ATOM     17  C   UNL     1      -5.703   3.647  25.694  0.00  0.00    +0.099 A 
ATOM     18  N   UNL     1      -4.949   3.889  25.461  0.00  0.00    -0.242 NA
ATOM     19  C   UNL     1      -4.431   3.349  25.114  0.00  0.00    +0.103 A 
ENDBRANCH  12  14
ENDBRANCH  10  11
ENDBRANCH   7   8
TORSDOF 5
ENDMDL
