REMARK  Name = 
REMARK  4 active torsions:
REMARK  status: ('A' for Active; 'I' for Inactive)
REMARK    1  A    between atoms: C_3  and  C_4
REMARK    2  A    between atoms: C_4  and  N_5
REMARK    3  A    between atoms: C_10  and  C_11
REMARK    4  A    between atoms: C_13  and  C_16
REMARK                            x       y       z     vdW  Elec       q    Type
REMARK                         _______ _______ _______ _____ _____    ______ ____
ROOT
ATOM      5  N   UNL     1      -1.866  -1.412   0.000  0.00  0.00    -0.258 NA
ATOM      6  C   UNL     1      -1.530  -2.166   0.000  0.00  0.00    +0.106 C 
ATOM      7  C   UNL     1      -2.143  -2.718   0.000  0.00  0.00    +0.170 C 
ATOM      8  O   UNL     1      -2.057  -3.539   0.000  0.00  0.00    -0.222 OA
ATOM      9  C   UNL     1      -2.858  -2.306   0.000  0.00  0.00    +0.060 C 
ATOM     10  C   UNL     1      -2.686  -1.499   0.000  0.00  0.00    +0.141 C 
ENDROOT
BRANCH  10  11
ATOM     11  C   UNL     1      -3.238  -0.886   0.000  0.00  0.00    +0.251 A 
ATOM     12  N   UNL     1      -4.059  -0.972   0.000  0.00  0.00    -0.190 NA
ATOM     13  C   UNL     1      -4.394  -0.218   0.000  0.00  0.00    +0.203 A 
ATOM     14  N   UNL     1      -3.781   0.334   0.000  0.00  0.00    -0.056 NA
ATOM     15  O   UNL     1      -3.067  -0.079   0.000  0.00  0.00    -0.336 OA
BRANCH  13  16
ATOM     16  C   UNL     1      -5.202  -0.047   0.000  0.00  0.00    +0.041 A 
ATOM     17  C   UNL     1      -5.753  -0.660   0.000  0.00  0.00    +0.032 A 
ATOM     18  C   UNL     1      -6.561  -0.488   0.000  0.00  0.00    +0.136 A 
ATOM     19  F   UNL     1      -7.112  -1.101   0.000  0.00  0.00    -0.205 F 
ATOM     20  C   UNL     1      -6.815   0.296   0.000  0.00  0.00    +0.006 A 
ATOM     21  C   UNL     1      -7.622   0.468   0.000  0.00  0.00    +0.033 C 
ATOM     22  C   UNL     1      -6.263   0.910   0.000  0.00  0.00    -0.002 A 
ATOM     23  C   UNL     1      -5.456   0.738   0.000  0.00  0.00    +0.003 A 
ENDBRANCH  13  16
ENDBRANCH  10  11
BRANCH   5   4
ATOM      4  C   UNL     1      -1.453  -0.698   0.000  0.00  0.00    +0.137 C 
BRANCH   4   3
ATOM      1  C   UNL     1      -0.398   0.754   0.000  0.00  0.00    +0.132 C 
ATOM      2  N   UNL     1      -0.143  -0.030   0.000  0.00  0.00    -0.312 N 
ATOM      3  C   UNL     1      -0.628  -0.698   0.000  0.00  0.00    +0.137 A 
ATOM     24  N   UNL     1      -0.143  -1.365   0.000  0.00  0.00    -0.230 NA
ATOM     25  C   UNL     1       0.641  -1.110   0.000  0.00  0.00    +0.098 A 
ATOM     26  C   UNL     1       0.641  -0.285   0.000  0.00  0.00    +0.079 A 
ATOM     27  C   UNL     1       1.356   0.127   0.000  0.00  0.00    +0.019 A 
ATOM     28  C   UNL     1       2.070  -0.285   0.000  0.00  0.00    +0.002 A 
ATOM     29  C   UNL     1       2.070  -1.110   0.000  0.00  0.00    +0.002 A 
ATOM     30  C   UNL     1       1.356  -1.523   0.000  0.00  0.00    +0.021 A 
ENDBRANCH   4   3
ENDBRANCH   5   4
TORSDOF 4
