MODEL 1
REMARK VINA RESULT:      -8.1      0.000      0.000
REMARK  Name = 
REMARK  8 active torsions:
REMARK  status: ('A' for Active; 'I' for Inactive)
REMARK    1  A    between atoms: C_5  and  S_8
REMARK    2  A    between atoms: S_8  and  N_11
REMARK    3  A    between atoms: N_11  and  C_12
REMARK    4  A    between atoms: C_12  and  C_13
REMARK    5  A    between atoms: C_16  and  N_17
REMARK    6  A    between atoms: N_17  and  C_18
REMARK    7  A    between atoms: C_18  and  C_19
REMARK    8  A    between atoms: C_22  and  C_25
REMARK                            x       y       z     vdW  Elec       q    Type
REMARK                         _______ _______ _______ _____ _____    ______ ____
ROOT
ATOM     13  C   UNL     1      -0.541   0.644  23.759  0.00  0.00    +0.166 C 
ATOM     14  O   UNL     1      -0.430  -0.065  23.353  0.00  0.00    -0.350 OA
ATOM     15  C   UNL     1       0.370  -0.128  23.164  0.00  0.00    +0.162 C 
ATOM     16  C   UNL     1       0.754   0.543  23.453  0.00  0.00    +0.135 C 
ATOM     28  C   UNL     1       0.191   1.020  23.820  0.00  0.00    +0.199 C 
ATOM     29  O   UNL     1       0.334   1.745  24.186  0.00  0.00    -0.219 OA
ENDROOT
BRANCH  13  12
ATOM     12  C   UNL     1      -1.258   0.928  24.051  0.00  0.00    +0.148 C 
BRANCH  12  11
ATOM     11  N   UNL     1      -1.955   0.511  23.909  0.00  0.00    -0.075 NA
BRANCH  11   8
ATOM      8  S   UNL     1      -2.677   0.811  24.176  0.00  0.00    +0.077 S 
ATOM      9  O   UNL     1      -2.837   1.100  23.419  0.00  0.00    -0.152 OA
ATOM     10  O   UNL     1      -2.517   0.523  24.932  0.00  0.00    -0.152 OA
BRANCH   8   5
ATOM      1  C   UNL     1      -5.561   2.010  25.241  0.00  0.00    +0.031 C 
ATOM      2  C   UNL     1      -4.839   1.710  24.974  0.00  0.00    -0.022 A 
ATOM      3  C   UNL     1      -4.707   0.895  24.972  0.00  0.00    -0.003 A 
ATOM      4  C   UNL     1      -3.986   0.596  24.706  0.00  0.00    +0.020 A 
ATOM      5  C   UNL     1      -3.397   1.111  24.442  0.00  0.00    +0.124 A 
ATOM      6  C   UNL     1      -3.530   1.925  24.445  0.00  0.00    +0.020 A 
ATOM      7  C   UNL     1      -4.252   2.224  24.711  0.00  0.00    -0.003 A 
ENDBRANCH   8   5
ENDBRANCH  11   8
ENDBRANCH  12  11
ENDBRANCH  13  12
BRANCH  16  17
ATOM     17  N   UNL     1       1.560   0.707  23.386  0.00  0.00    -0.209 NA
BRANCH  17  18
ATOM     18  C   UNL     1       2.032   0.258  22.878  0.00  0.00    +0.115 C 
BRANCH  18  19
ATOM     19  C   UNL     1       2.851   0.254  22.974  0.00  0.00    -0.005 A 
ATOM     20  C   UNL     1       3.223  -0.399  23.314  0.00  0.00    -0.003 A 
ATOM     21  C   UNL     1       4.042  -0.403  23.410  0.00  0.00    +0.006 A 
ATOM     22  C   UNL     1       4.490   0.246  23.165  0.00  0.00    +0.080 A 
ATOM     23  C   UNL     1       4.118   0.898  22.825  0.00  0.00    +0.006 A 
ATOM     24  C   UNL     1       3.298   0.903  22.730  0.00  0.00    -0.003 A 
BRANCH  22  25
ATOM     25  C   UNL     1       5.309   0.241  23.261  0.00  0.00    +0.388 C 
ATOM     26  O   UNL     1       5.788  -0.134  22.702  0.00  0.00    -0.241 OA
ATOM     27  O   UNL     1       5.651   0.612  23.914  0.00  0.00    -0.241 OA
ENDBRANCH  22  25
ENDBRANCH  18  19
ENDBRANCH  17  18
ENDBRANCH  16  17
TORSDOF 8
ENDMDL
MODEL 2
REMARK VINA RESULT:      -7.6      1.612      7.099
REMARK  Name = 
REMARK  8 active torsions:
REMARK  status: ('A' for Active; 'I' for Inactive)
REMARK    1  A    between atoms: C_5  and  S_8
REMARK    2  A    between atoms: S_8  and  N_11
REMARK    3  A    between atoms: N_11  and  C_12
REMARK    4  A    between atoms: C_12  and  C_13
REMARK    5  A    between atoms: C_16  and  N_17
REMARK    6  A    between atoms: N_17  and  C_18
REMARK    7  A    between atoms: C_18  and  C_19
REMARK    8  A    between atoms: C_22  and  C_25
REMARK                            x       y       z     vdW  Elec       q    Type
REMARK                         _______ _______ _______ _____ _____    ______ ____
ROOT
ATOM     13  C   UNL     1       0.376   0.707  23.602  0.00  0.00    +0.166 C 
ATOM     14  O   UNL     1      -0.058   0.090  23.268  0.00  0.00    -0.350 OA
ATOM     15  C   UNL     1      -0.856   0.225  23.427  0.00  0.00    +0.162 C 
ATOM     16  C   UNL     1      -0.915   0.925  23.860  0.00  0.00    +0.135 C 
ATOM     28  C   UNL     1      -0.154   1.223  23.968  0.00  0.00    +0.199 C 
ATOM     29  O   UNL     1       0.043   1.915  24.371  0.00  0.00    -0.219 OA
ENDROOT
BRANCH  13  12
ATOM     12  C   UNL     1       1.196   0.793  23.576  0.00  0.00    +0.148 C 
BRANCH  12  11
ATOM     11  N   UNL     1       1.626   0.457  22.958  0.00  0.00    -0.075 NA
BRANCH  11   8
ATOM      8  S   UNL     1       2.447   0.387  23.016  0.00  0.00    +0.077 S 
ATOM      9  O   UNL     1       2.396  -0.403  22.783  0.00  0.00    -0.152 OA
ATOM     10  O   UNL     1       2.497   1.177  23.249  0.00  0.00    -0.152 OA
BRANCH   8   5
ATOM      1  C   UNL     1       5.727   0.109  23.248  0.00  0.00    +0.031 C 
ATOM      2  C   UNL     1       4.906   0.178  23.190  0.00  0.00    -0.022 A 
ATOM      3  C   UNL     1       4.421  -0.445  23.429  0.00  0.00    -0.003 A 
ATOM      4  C   UNL     1       3.601  -0.376  23.371  0.00  0.00    +0.020 A 
ATOM      5  C   UNL     1       3.266   0.318  23.074  0.00  0.00    +0.124 A 
ATOM      6  C   UNL     1       3.751   0.940  22.835  0.00  0.00    +0.020 A 
ATOM      7  C   UNL     1       4.571   0.871  22.893  0.00  0.00    -0.003 A 
ENDBRANCH   8   5
ENDBRANCH  11   8
ENDBRANCH  12  11
ENDBRANCH  13  12
BRANCH  16  17
ATOM     17  N   UNL     1      -1.614   1.267  24.135  0.00  0.00    -0.209 NA
BRANCH  17  18
ATOM     18  C   UNL     1      -2.341   1.032  23.821  0.00  0.00    +0.115 C 
BRANCH  18  19
ATOM     19  C   UNL     1      -3.039   1.365  24.106  0.00  0.00    -0.005 A 
ATOM     20  C   UNL     1      -3.497   0.954  24.657  0.00  0.00    -0.003 A 
ATOM     21  C   UNL     1      -4.196   1.287  24.941  0.00  0.00    +0.006 A 
ATOM     22  C   UNL     1      -4.438   2.030  24.675  0.00  0.00    +0.080 A 
ATOM     23  C   UNL     1      -3.980   2.440  24.125  0.00  0.00    +0.006 A 
ATOM     24  C   UNL     1      -3.281   2.107  23.840  0.00  0.00    -0.003 A 
BRANCH  22  25
ATOM     25  C   UNL     1      -5.137   2.364  24.960  0.00  0.00    +0.388 C 
ATOM     26  O   UNL     1      -5.107   3.020  25.460  0.00  0.00    -0.241 OA
ATOM     27  O   UNL     1      -5.865   2.041  24.745  0.00  0.00    -0.241 OA
ENDBRANCH  22  25
ENDBRANCH  18  19
ENDBRANCH  17  18
ENDBRANCH  16  17
TORSDOF 8
ENDMDL
MODEL 3
REMARK VINA RESULT:      -7.5      4.758      6.183
REMARK  Name = 
REMARK  8 active torsions:
REMARK  status: ('A' for Active; 'I' for Inactive)
REMARK    1  A    between atoms: C_5  and  S_8
REMARK    2  A    between atoms: S_8  and  N_11
REMARK    3  A    between atoms: N_11  and  C_12
REMARK    4  A    between atoms: C_12  and  C_13
REMARK    5  A    between atoms: C_16  and  N_17
REMARK    6  A    between atoms: N_17  and  C_18
REMARK    7  A    between atoms: C_18  and  C_19
REMARK    8  A    between atoms: C_22  and  C_25
REMARK                            x       y       z     vdW  Elec       q    Type
REMARK                         _______ _______ _______ _____ _____    ______ ____
ROOT
ATOM     13  C   UNL     1      -4.334   2.407  24.920  0.00  0.00    +0.166 C 
ATOM     14  O   UNL     1      -4.912   2.235  25.482  0.00  0.00    -0.350 OA
ATOM     15  C   UNL     1      -5.103   1.435  25.416  0.00  0.00    +0.162 C 
ATOM     16  C   UNL     1      -4.642   1.113  24.812  0.00  0.00    +0.135 C 
ATOM     28  C   UNL     1      -4.167   1.712  24.505  0.00  0.00    +0.199 C 
ATOM     29  O   UNL     1      -3.621   1.633  23.893  0.00  0.00    -0.219 OA
ENDROOT
BRANCH  13  12
ATOM     12  C   UNL     1      -3.984   3.143  24.793  0.00  0.00    +0.148 C 
BRANCH  12  11
ATOM     11  N   UNL     1      -3.622   3.540  25.419  0.00  0.00    -0.075 NA
BRANCH  11   8
ATOM      8  S   UNL     1      -2.923   3.960  25.291  0.00  0.00    +0.077 S 
ATOM      9  O   UNL     1      -3.223   4.243  24.577  0.00  0.00    -0.152 OA
ATOM     10  O   UNL     1      -2.622   3.677  26.006  0.00  0.00    -0.152 OA
BRANCH   8   5
ATOM      1  C   UNL     1      -0.128   5.640  24.783  0.00  0.00    +0.031 C 
ATOM      2  C   UNL     1      -0.827   5.219  24.910  0.00  0.00    -0.022 A 
ATOM      3  C   UNL     1      -1.530   5.625  25.061  0.00  0.00    -0.003 A 
ATOM      4  C   UNL     1      -2.229   5.205  25.188  0.00  0.00    +0.020 A 
ATOM      5  C   UNL     1      -2.225   4.380  25.164  0.00  0.00    +0.124 A 
ATOM      6  C   UNL     1      -1.522   3.975  25.013  0.00  0.00    +0.020 A 
ATOM      7  C   UNL     1      -0.823   4.395  24.886  0.00  0.00    -0.003 A 
ENDBRANCH   8   5
ENDBRANCH  11   8
ENDBRANCH  12  11
ENDBRANCH  13  12
BRANCH  16  17
ATOM     17  N   UNL     1      -4.655   0.327  24.560  0.00  0.00    -0.209 NA
BRANCH  17  18
ATOM     18  C   UNL     1      -4.589  -0.285  25.110  0.00  0.00    +0.115 C 
BRANCH  18  19
ATOM     19  C   UNL     1      -4.202  -0.984  24.905  0.00  0.00    -0.005 A 
ATOM     20  C   UNL     1      -3.636  -1.306  25.411  0.00  0.00    -0.003 A 
ATOM     21  C   UNL     1      -3.249  -2.005  25.206  0.00  0.00    +0.006 A 
ATOM     22  C   UNL     1      -3.429  -2.382  24.494  0.00  0.00    +0.080 A 
ATOM     23  C   UNL     1      -3.996  -2.060  23.988  0.00  0.00    +0.006 A 
ATOM     24  C   UNL     1      -4.382  -1.361  24.194  0.00  0.00    -0.003 A 
BRANCH  22  25
ATOM     25  C   UNL     1      -3.043  -3.081  24.288  0.00  0.00    +0.388 C 
ATOM     26  O   UNL     1      -2.224  -3.085  24.185  0.00  0.00    -0.241 OA
ATOM     27  O   UNL     1      -3.474  -3.777  24.186  0.00  0.00    -0.241 OA
ENDBRANCH  22  25
ENDBRANCH  18  19
ENDBRANCH  17  18
ENDBRANCH  16  17
TORSDOF 8
ENDMDL
MODEL 4
REMARK VINA RESULT:      -6.5     14.945     15.993
REMARK  Name = 
REMARK  8 active torsions:
REMARK  status: ('A' for Active; 'I' for Inactive)
REMARK    1  A    between atoms: C_5  and  S_8
REMARK    2  A    between atoms: S_8  and  N_11
REMARK    3  A    between atoms: N_11  and  C_12
REMARK    4  A    between atoms: C_12  and  C_13
REMARK    5  A    between atoms: C_16  and  N_17
REMARK    6  A    between atoms: N_17  and  C_18
REMARK    7  A    between atoms: C_18  and  C_19
REMARK    8  A    between atoms: C_22  and  C_25
REMARK                            x       y       z     vdW  Elec       q    Type
REMARK                         _______ _______ _______ _____ _____    ______ ____
ROOT
ATOM     13  C   UNL     1      -4.453 -10.585  14.694  0.00  0.00    +0.166 C 
ATOM     14  O   UNL     1      -3.639 -10.529  14.571  0.00  0.00    -0.350 OA
ATOM     15  C   UNL     1      -3.508 -10.453  13.761  0.00  0.00    +0.162 C 
ATOM     16  C   UNL     1      -4.241 -10.461  13.382  0.00  0.00    +0.135 C 
ATOM     28  C   UNL     1      -4.825 -10.543  13.958  0.00  0.00    +0.199 C 
ATOM     29  O   UNL     1      -5.637 -10.577  13.823  0.00  0.00    -0.219 OA
ENDROOT
BRANCH  13  12
ATOM     12  C   UNL     1      -4.829 -10.668  15.423  0.00  0.00    +0.148 C 
BRANCH  12  11
ATOM     11  N   UNL     1      -4.528 -10.285  16.088  0.00  0.00    -0.075 NA
BRANCH  11   8
ATOM      8  S   UNL     1      -4.908 -10.363  16.817  0.00  0.00    +0.077 S 
ATOM      9  O   UNL     1      -4.261 -10.781  17.110  0.00  0.00    -0.152 OA
ATOM     10  O   UNL     1      -5.556  -9.944  16.524  0.00  0.00    -0.152 OA
BRANCH   8   5
ATOM      1  C   UNL     1      -6.428 -10.675  19.730  0.00  0.00    +0.031 C 
ATOM      2  C   UNL     1      -6.048 -10.597  19.001  0.00  0.00    -0.022 A 
ATOM      3  C   UNL     1      -6.470 -10.335  18.342  0.00  0.00    -0.003 A 
ATOM      4  C   UNL     1      -6.090 -10.257  17.614  0.00  0.00    +0.020 A 
ATOM      5  C   UNL     1      -5.288 -10.441  17.544  0.00  0.00    +0.124 A 
ATOM      6  C   UNL     1      -4.867 -10.703  18.204  0.00  0.00    +0.020 A 
ATOM      7  C   UNL     1      -5.247 -10.781  18.932  0.00  0.00    -0.003 A 
ENDBRANCH   8   5
ENDBRANCH  11   8
ENDBRANCH  12  11
ENDBRANCH  13  12
BRANCH  16  17
ATOM     17  N   UNL     1      -4.367 -10.399  12.569  0.00  0.00    -0.209 NA
BRANCH  17  18
ATOM     18  C   UNL     1      -3.749 -10.169  12.071  0.00  0.00    +0.115 C 
BRANCH  18  19
ATOM     19  C   UNL     1      -3.892 -10.043  11.269  0.00  0.00    -0.005 A 
ATOM     20  C   UNL     1      -3.605 -10.579  10.710  0.00  0.00    -0.003 A 
ATOM     21  C   UNL     1      -3.747 -10.453   9.908  0.00  0.00    +0.006 A 
ATOM     22  C   UNL     1      -4.176  -9.792   9.663  0.00  0.00    +0.080 A 
ATOM     23  C   UNL     1      -4.462  -9.256  10.222  0.00  0.00    +0.006 A 
ATOM     24  C   UNL     1      -4.320  -9.382  11.025  0.00  0.00    -0.003 A 
BRANCH  22  25
ATOM     25  C   UNL     1      -4.318  -9.666   8.861  0.00  0.00    +0.388 C 
ATOM     26  O   UNL     1      -4.226  -8.911   8.539  0.00  0.00    -0.241 OA
ATOM     27  O   UNL     1      -4.553 -10.293   8.380  0.00  0.00    -0.241 OA
ENDBRANCH  22  25
ENDBRANCH  18  19
ENDBRANCH  17  18
ENDBRANCH  16  17
TORSDOF 8
ENDMDL
MODEL 5
REMARK VINA RESULT:      -5.4     15.355     16.606
REMARK  Name = 
REMARK  8 active torsions:
REMARK  status: ('A' for Active; 'I' for Inactive)
REMARK    1  A    between atoms: C_5  and  S_8
REMARK    2  A    between atoms: S_8  and  N_11
REMARK    3  A    between atoms: N_11  and  C_12
REMARK    4  A    between atoms: C_12  and  C_13
REMARK    5  A    between atoms: C_16  and  N_17
REMARK    6  A    between atoms: N_17  and  C_18
REMARK    7  A    between atoms: C_18  and  C_19
REMARK    8  A    between atoms: C_22  and  C_25
REMARK                            x       y       z     vdW  Elec       q    Type
REMARK                         _______ _______ _______ _____ _____    ______ ____
ROOT
ATOM     13  C   UNL     1      -6.034 -10.022  14.517  0.00  0.00    +0.166 C 
ATOM     14  O   UNL     1      -5.286  -9.977  14.172  0.00  0.00    -0.350 OA
ATOM     15  C   UNL     1      -5.385  -9.899  13.358  0.00  0.00    +0.162 C 
ATOM     16  C   UNL     1      -6.195  -9.895  13.198  0.00  0.00    +0.135 C 
ATOM     28  C   UNL     1      -6.596  -9.971  13.915  0.00  0.00    +0.199 C 
ATOM     29  O   UNL     1      -7.414  -9.992  14.012  0.00  0.00    -0.219 OA
ENDROOT
BRANCH  13  12
ATOM     12  C   UNL     1      -6.193 -10.102  15.323  0.00  0.00    +0.148 C 
BRANCH  12  11
ATOM     11  N   UNL     1      -5.590  -9.993  15.874  0.00  0.00    -0.075 NA
BRANCH  11   8
ATOM      8  S   UNL     1      -5.728 -10.151  16.673  0.00  0.00    +0.077 S 
ATOM      9  O   UNL     1      -5.196 -10.781  16.641  0.00  0.00    -0.152 OA
ATOM     10  O   UNL     1      -6.260  -9.521  16.706  0.00  0.00    -0.152 OA
BRANCH   8   5
ATOM      1  C   UNL     1      -6.280 -10.781  19.865  0.00  0.00    +0.031 C 
ATOM      2  C   UNL     1      -6.142 -10.623  19.066  0.00  0.00    -0.022 A 
ATOM      3  C   UNL     1      -5.401 -10.780  18.738  0.00  0.00    -0.003 A 
ATOM      4  C   UNL     1      -5.263 -10.622  17.940  0.00  0.00    +0.020 A 
ATOM      5  C   UNL     1      -5.866 -10.308  17.470  0.00  0.00    +0.124 A 
ATOM      6  C   UNL     1      -6.606 -10.153  17.800  0.00  0.00    +0.020 A 
ATOM      7  C   UNL     1      -6.744 -10.310  18.598  0.00  0.00    -0.003 A 
ENDBRANCH   8   5
ENDBRANCH  11   8
ENDBRANCH  12  11
ENDBRANCH  13  12
BRANCH  16  17
ATOM     17  N   UNL     1      -6.542  -9.828  12.453  0.00  0.00    -0.209 NA
BRANCH  17  18
ATOM     18  C   UNL     1      -6.067  -9.773  11.780  0.00  0.00    +0.115 C 
BRANCH  18  19
ATOM     19  C   UNL     1      -6.411  -9.626  11.044  0.00  0.00    -0.005 A 
ATOM     20  C   UNL     1      -6.904 -10.190  10.699  0.00  0.00    -0.003 A 
ATOM     21  C   UNL     1      -7.247 -10.043   9.964  0.00  0.00    +0.006 A 
ATOM     22  C   UNL     1      -7.097  -9.332   9.573  0.00  0.00    +0.080 A 
ATOM     23  C   UNL     1      -6.604  -8.768   9.919  0.00  0.00    +0.006 A 
ATOM     24  C   UNL     1      -6.261  -8.915  10.654  0.00  0.00    -0.003 A 
BRANCH  22  25
ATOM     25  C   UNL     1      -7.441  -9.184   8.838  0.00  0.00    +0.388 C 
ATOM     26  O   UNL     1      -6.964  -8.996   8.190  0.00  0.00    -0.241 OA
ATOM     27  O   UNL     1      -8.259  -9.225   8.749  0.00  0.00    -0.241 OA
ENDBRANCH  22  25
ENDBRANCH  18  19
ENDBRANCH  17  18
ENDBRANCH  16  17
TORSDOF 8
ENDMDL
MODEL 6
REMARK VINA RESULT:      -5.4     15.303     16.211
REMARK  Name = 
REMARK  8 active torsions:
REMARK  status: ('A' for Active; 'I' for Inactive)
REMARK    1  A    between atoms: C_5  and  S_8
REMARK    2  A    between atoms: S_8  and  N_11
REMARK    3  A    between atoms: N_11  and  C_12
REMARK    4  A    between atoms: C_12  and  C_13
REMARK    5  A    between atoms: C_16  and  N_17
REMARK    6  A    between atoms: N_17  and  C_18
REMARK    7  A    between atoms: C_18  and  C_19
REMARK    8  A    between atoms: C_22  and  C_25
REMARK                            x       y       z     vdW  Elec       q    Type
REMARK                         _______ _______ _______ _____ _____    ______ ____
ROOT
ATOM     13  C   UNL     1      -6.786 -10.012  14.501  0.00  0.00    +0.166 C 
ATOM     14  O   UNL     1      -5.988 -10.120  14.678  0.00  0.00    -0.350 OA
ATOM     15  C   UNL     1      -5.562 -10.067  13.974  0.00  0.00    +0.162 C 
ATOM     16  C   UNL     1      -6.097  -9.926  13.362  0.00  0.00    +0.135 C 
ATOM     28  C   UNL     1      -6.854  -9.892  13.687  0.00  0.00    +0.199 C 
ATOM     29  O   UNL     1      -7.554  -9.762  13.273  0.00  0.00    -0.219 OA
ENDROOT
BRANCH  13  12
ATOM     12  C   UNL     1      -7.408 -10.022  15.043  0.00  0.00    +0.148 C 
BRANCH  12  11
ATOM     11  N   UNL     1      -7.254  -9.939  15.849  0.00  0.00    -0.075 NA
BRANCH  11   8
ATOM      8  S   UNL     1      -7.880  -9.877  16.384  0.00  0.00    +0.077 S 
ATOM      9  O   UNL     1      -8.091 -10.660  16.229  0.00  0.00    -0.152 OA
ATOM     10  O   UNL     1      -7.669  -9.095  16.540  0.00  0.00    -0.152 OA
BRANCH   8   5
ATOM      1  C   UNL     1     -10.380  -9.629  18.524  0.00  0.00    +0.031 C 
ATOM      2  C   UNL     1      -9.754  -9.691  17.989  0.00  0.00    -0.022 A 
ATOM      3  C   UNL     1      -9.733  -9.205  17.322  0.00  0.00    -0.003 A 
ATOM      4  C   UNL     1      -9.108  -9.267  16.787  0.00  0.00    +0.020 A 
ATOM      5  C   UNL     1      -8.504  -9.815  16.919  0.00  0.00    +0.124 A 
ATOM      6  C   UNL     1      -8.527 -10.301  17.585  0.00  0.00    +0.020 A 
ATOM      7  C   UNL     1      -9.152 -10.239  18.120  0.00  0.00    -0.003 A 
ENDBRANCH   8   5
ENDBRANCH  11   8
ENDBRANCH  12  11
ENDBRANCH  13  12
BRANCH  16  17
ATOM     17  N   UNL     1      -5.908  -9.836  12.563  0.00  0.00    -0.209 NA
BRANCH  17  18
ATOM     18  C   UNL     1      -5.122  -9.728  12.335  0.00  0.00    +0.115 C 
BRANCH  18  19
ATOM     19  C   UNL     1      -4.938  -9.589  11.543  0.00  0.00    -0.005 A 
ATOM     20  C   UNL     1      -5.099  -8.852  11.206  0.00  0.00    -0.003 A 
ATOM     21  C   UNL     1      -4.915  -8.713  10.415  0.00  0.00    +0.006 A 
ATOM     22  C   UNL     1      -4.572  -9.309   9.959  0.00  0.00    +0.080 A 
ATOM     23  C   UNL     1      -4.412 -10.045  10.296  0.00  0.00    +0.006 A 
ATOM     24  C   UNL     1      -4.595 -10.184  11.088  0.00  0.00    -0.003 A 
BRANCH  22  25
ATOM     25  C   UNL     1      -4.388  -9.170   9.167  0.00  0.00    +0.388 C 
ATOM     26  O   UNL     1      -4.879  -9.465   8.572  0.00  0.00    -0.241 OA
ATOM     27  O   UNL     1      -3.716  -8.736   8.969  0.00  0.00    -0.241 OA
ENDBRANCH  22  25
ENDBRANCH  18  19
ENDBRANCH  17  18
ENDBRANCH  16  17
TORSDOF 8
ENDMDL
