MODEL 1
REMARK VINA RESULT:     -11.1      0.000      0.000
REMARK  Name = 
REMARK  9 active torsions:
REMARK  status: ('A' for Active; 'I' for Inactive)
REMARK    1  A    between atoms: O_2  and  C_3
REMARK    2  A    between atoms: C_6  and  C_7
REMARK    3  A    between atoms: C_7  and  N_8
REMARK    4  A    between atoms: C_9  and  C_11
REMARK    5  A    between atoms: C_11  and  C_12
REMARK    6  A    between atoms: C_14  and  C_15
REMARK    7  A    between atoms: C_15  and  N_16
REMARK    8  A    between atoms: C_17  and  C_19
REMARK    9  A    between atoms: C_22  and  N_25
REMARK                            x       y       z     vdW  Elec       q    Type
REMARK                         _______ _______ _______ _____ _____    ______ ____
ROOT
ATOM     12  C   UNL     1      -4.489   3.349  25.387  0.00  0.00    +0.157 C 
ATOM     13  O   UNL     1      -4.255   2.578  25.213  0.00  0.00    -0.351 OA
ATOM     14  C   UNL     1      -4.929   2.102  25.211  0.00  0.00    +0.170 C 
ATOM     28  C   UNL     1      -5.579   2.579  25.386  0.00  0.00    +0.213 C 
ATOM     29  O   UNL     1      -6.363   2.330  25.442  0.00  0.00    -0.218 OA
ATOM     30  C   UNL     1      -5.306   3.350  25.495  0.00  0.00    +0.212 C 
ATOM     31  O   UNL     1      -5.771   4.007  25.678  0.00  0.00    -0.218 OA
ENDROOT
BRANCH  12  11
ATOM     11  C   UNL     1      -3.991   4.005  25.445  0.00  0.00    +0.119 C 
BRANCH  11   9
ATOM      8  N   UNL     1      -2.586   3.746  25.475  0.00  0.00    -0.200 NA
ATOM      9  C   UNL     1      -3.284   3.949  25.866  0.00  0.00    +0.244 C 
ATOM     10  O   UNL     1      -3.274   4.096  26.678  0.00  0.00    -0.273 OA
BRANCH   8   7
ATOM      7  C   UNL     1      -1.879   3.691  25.896  0.00  0.00    +0.141 C 
BRANCH   7   6
ATOM      3  C   UNL     1       0.041   2.460  24.931  0.00  0.00    +0.139 A 
ATOM      4  C   UNL     1      -0.266   3.119  24.540  0.00  0.00    +0.037 A 
ATOM      5  C   UNL     1      -0.905   3.529  24.861  0.00  0.00    +0.001 A 
ATOM      6  C   UNL     1      -1.239   3.280  25.574  0.00  0.00    -0.000 A 
ATOM     32  C   UNL     1      -0.933   2.622  25.965  0.00  0.00    +0.001 A 
ATOM     33  C   UNL     1      -0.293   2.211  25.643  0.00  0.00    +0.037 A 
BRANCH   3   2
ATOM      1  C   UNL     1       0.565   1.542  23.969  0.00  0.00    +0.252 C 
ATOM      2  O   UNL     1       0.680   2.050  24.610  0.00  0.00    -0.471 OA
ENDBRANCH   3   2
ENDBRANCH   7   6
ENDBRANCH   8   7
ENDBRANCH  11   9
ENDBRANCH  12  11
BRANCH  14  15
ATOM     15  C   UNL     1      -4.949   1.290  25.062  0.00  0.00    +0.148 C 
BRANCH  15  16
ATOM     16  N   UNL     1      -4.257   0.845  25.105  0.00  0.00    -0.199 NA
ATOM     17  C   UNL     1      -4.245   0.071  24.820  0.00  0.00    +0.265 C 
ATOM     18  O   UNL     1      -4.928  -0.258  24.492  0.00  0.00    -0.268 OA
BRANCH  17  19
ATOM     19  C   UNL     1      -3.553  -0.375  24.862  0.00  0.00    +0.055 A 
ATOM     20  C   UNL     1      -2.943  -0.242  24.322  0.00  0.00    +0.006 A 
ATOM     21  C   UNL     1      -2.250  -0.689  24.366  0.00  0.00    +0.015 A 
ATOM     22  C   UNL     1      -2.167  -1.266  24.948  0.00  0.00    +0.048 A 
ATOM     23  C   UNL     1      -2.776  -1.399  25.488  0.00  0.00    +0.015 A 
ATOM     24  C   UNL     1      -3.469  -0.953  25.445  0.00  0.00    +0.006 A 
BRANCH  22  25
ATOM     25  N   UNL     1      -1.474  -1.712  24.991  0.00  0.00    -0.304 N 
ATOM     26  C   UNL     1      -0.831  -1.435  25.427  0.00  0.00    +0.112 C 
ATOM     27  C   UNL     1      -1.424  -2.436  24.598  0.00  0.00    +0.112 C 
ENDBRANCH  22  25
ENDBRANCH  17  19
ENDBRANCH  15  16
ENDBRANCH  14  15
TORSDOF 9
ENDMDL
MODEL 2
REMARK VINA RESULT:     -10.9      1.411      5.341
REMARK  Name = 
REMARK  9 active torsions:
REMARK  status: ('A' for Active; 'I' for Inactive)
REMARK    1  A    between atoms: O_2  and  C_3
REMARK    2  A    between atoms: C_6  and  C_7
REMARK    3  A    between atoms: C_7  and  N_8
REMARK    4  A    between atoms: C_9  and  C_11
REMARK    5  A    between atoms: C_11  and  C_12
REMARK    6  A    between atoms: C_14  and  C_15
REMARK    7  A    between atoms: C_15  and  N_16
REMARK    8  A    between atoms: C_17  and  C_19
REMARK    9  A    between atoms: C_22  and  N_25
REMARK                            x       y       z     vdW  Elec       q    Type
REMARK                         _______ _______ _______ _____ _____    ______ ____
ROOT
ATOM     12  C   UNL     1      -2.493  -1.052  24.996  0.00  0.00    +0.157 C 
ATOM     13  O   UNL     1      -2.127  -0.313  25.002  0.00  0.00    -0.351 OA
ATOM     14  C   UNL     1      -1.311  -0.433  25.002  0.00  0.00    +0.170 C 
ATOM     28  C   UNL     1      -1.172  -1.246  24.995  0.00  0.00    +0.213 C 
ATOM     29  O   UNL     1      -0.434  -1.612  24.993  0.00  0.00    -0.218 OA
ATOM     30  C   UNL     1      -1.903  -1.628  24.992  0.00  0.00    +0.212 C 
ATOM     31  O   UNL     1      -2.024  -2.444  24.985  0.00  0.00    -0.218 OA
ENDROOT
BRANCH  12  11
ATOM     11  C   UNL     1      -3.307  -1.190  24.994  0.00  0.00    +0.119 C 
BRANCH  11   9
ATOM      8  N   UNL     1      -4.156  -0.041  24.962  0.00  0.00    -0.200 NA
ATOM      9  C   UNL     1      -3.809  -0.685  24.578  0.00  0.00    +0.244 C 
ATOM     10  O   UNL     1      -3.965  -0.822  23.780  0.00  0.00    -0.273 OA
BRANCH   8   7
ATOM      7  C   UNL     1      -4.658   0.464  24.546  0.00  0.00    +0.141 C 
BRANCH   7   6
ATOM      3  C   UNL     1      -5.386   2.599  25.567  0.00  0.00    +0.139 A 
ATOM      4  C   UNL     1      -5.780   1.898  25.750  0.00  0.00    +0.037 A 
ATOM      5  C   UNL     1      -5.538   1.187  25.411  0.00  0.00    +0.001 A 
ATOM      6  C   UNL     1      -4.901   1.176  24.886  0.00  0.00    -0.000 A 
ATOM     32  C   UNL     1      -4.506   1.877  24.702  0.00  0.00    +0.001 A 
ATOM     33  C   UNL     1      -4.749   2.589  25.042  0.00  0.00    +0.037 A 
BRANCH   3   2
ATOM      1  C   UNL     1      -5.475   4.025  25.523  0.00  0.00    +0.252 C 
ATOM      2  O   UNL     1      -5.628   3.310  25.906  0.00  0.00    -0.471 OA
ENDBRANCH   3   2
ENDBRANCH   7   6
ENDBRANCH   8   7
ENDBRANCH  11   9
ENDBRANCH  12  11
BRANCH  14  15
ATOM     15  C   UNL     1      -0.734   0.157  25.007  0.00  0.00    +0.148 C 
BRANCH  15  16
ATOM     16  N   UNL     1      -0.955   0.951  25.038  0.00  0.00    -0.199 NA
ATOM     17  C   UNL     1      -0.382   1.541  24.982  0.00  0.00    +0.265 C 
ATOM     18  O   UNL     1       0.414   1.338  24.894  0.00  0.00    -0.268 OA
BRANCH  17  19
ATOM     19  C   UNL     1      -0.603   2.335  25.012  0.00  0.00    +0.055 A 
ATOM     20  C   UNL     1      -0.829   2.674  25.731  0.00  0.00    +0.006 A 
ATOM     21  C   UNL     1      -1.050   3.468  25.760  0.00  0.00    +0.015 A 
ATOM     22  C   UNL     1      -1.045   3.924  25.074  0.00  0.00    +0.048 A 
ATOM     23  C   UNL     1      -0.819   3.587  24.356  0.00  0.00    +0.015 A 
ATOM     24  C   UNL     1      -0.598   2.792  24.325  0.00  0.00    +0.006 A 
BRANCH  22  25
ATOM     25  N   UNL     1      -1.266   4.719  25.104  0.00  0.00    -0.304 N 
ATOM     26  C   UNL     1      -0.753   5.300  24.825  0.00  0.00    +0.112 C 
ATOM     27  C   UNL     1      -2.001   4.931  25.414  0.00  0.00    +0.112 C 
ENDBRANCH  22  25
ENDBRANCH  17  19
ENDBRANCH  15  16
ENDBRANCH  14  15
TORSDOF 9
ENDMDL
MODEL 3
REMARK VINA RESULT:     -10.6      1.284      1.955
REMARK  Name = 
REMARK  9 active torsions:
REMARK  status: ('A' for Active; 'I' for Inactive)
REMARK    1  A    between atoms: O_2  and  C_3
REMARK    2  A    between atoms: C_6  and  C_7
REMARK    3  A    between atoms: C_7  and  N_8
REMARK    4  A    between atoms: C_9  and  C_11
REMARK    5  A    between atoms: C_11  and  C_12
REMARK    6  A    between atoms: C_14  and  C_15
REMARK    7  A    between atoms: C_15  and  N_16
REMARK    8  A    between atoms: C_17  and  C_19
REMARK    9  A    between atoms: C_22  and  N_25
REMARK                            x       y       z     vdW  Elec       q    Type
REMARK                         _______ _______ _______ _____ _____    ______ ____
ROOT
ATOM     12  C   UNL     1      -2.641   3.466  25.434  0.00  0.00    +0.157 C 
ATOM     13  O   UNL     1      -2.939   2.726  25.226  0.00  0.00    -0.351 OA
ATOM     14  C   UNL     1      -3.761   2.759  25.277  0.00  0.00    +0.170 C 
ATOM     28  C   UNL     1      -3.972   3.519  25.517  0.00  0.00    +0.213 C 
ATOM     29  O   UNL     1      -4.740   3.794  25.639  0.00  0.00    -0.218 OA
ATOM     30  C   UNL     1      -3.279   3.957  25.614  0.00  0.00    +0.212 C 
ATOM     31  O   UNL     1      -3.233   4.746  25.850  0.00  0.00    -0.218 OA
ENDROOT
BRANCH  12  11
ATOM     11  C   UNL     1      -1.844   3.679  25.458  0.00  0.00    +0.119 C 
BRANCH  11   9
ATOM      8  N   UNL     1      -0.916   2.662  25.074  0.00  0.00    -0.200 NA
ATOM      9  C   UNL     1      -1.274   3.119  25.662  0.00  0.00    +0.244 C 
ATOM     10  O   UNL     1      -1.062   3.014  26.452  0.00  0.00    -0.273 OA
BRANCH   8   7
ATOM      7  C   UNL     1      -0.347   2.102  25.278  0.00  0.00    +0.141 C 
BRANCH   7   6
ATOM      3  C   UNL     1       0.319   0.366  23.643  0.00  0.00    +0.139 A 
ATOM      4  C   UNL     1       0.649   1.122  23.601  0.00  0.00    +0.037 A 
ATOM      5  C   UNL     1       0.427   1.700  24.145  0.00  0.00    +0.001 A 
ATOM      6  C   UNL     1      -0.124   1.523  24.732  0.00  0.00    -0.000 A 
ATOM     32  C   UNL     1      -0.455   0.768  24.775  0.00  0.00    +0.001 A 
ATOM     33  C   UNL     1      -0.232   0.189  24.230  0.00  0.00    +0.037 A 
BRANCH   3   2
ATOM      1  C   UNL     1       1.278  -0.171  22.729  0.00  0.00    +0.252 C 
ATOM      2  O   UNL     1       0.541  -0.212  23.098  0.00  0.00    -0.471 OA
ENDBRANCH   3   2
ENDBRANCH   7   6
ENDBRANCH   8   7
ENDBRANCH  11   9
ENDBRANCH  12  11
BRANCH  14  15
ATOM     15  C   UNL     1      -4.283   2.139  25.116  0.00  0.00    +0.148 C 
BRANCH  15  16
ATOM     16  N   UNL     1      -3.994   1.375  25.006  0.00  0.00    -0.199 NA
ATOM     17  C   UNL     1      -4.518   0.747  24.897  0.00  0.00    +0.265 C 
ATOM     18  O   UNL     1      -5.332   0.885  24.897  0.00  0.00    -0.268 OA
BRANCH  17  19
ATOM     19  C   UNL     1      -4.229  -0.017  24.787  0.00  0.00    +0.055 A 
ATOM     20  C   UNL     1      -4.206  -0.345  24.030  0.00  0.00    +0.006 A 
ATOM     21  C   UNL     1      -3.917  -1.110  23.921  0.00  0.00    +0.015 A 
ATOM     22  C   UNL     1      -3.651  -1.547  24.568  0.00  0.00    +0.048 A 
ATOM     23  C   UNL     1      -3.674  -1.220  25.324  0.00  0.00    +0.015 A 
ATOM     24  C   UNL     1      -3.963  -0.455  25.434  0.00  0.00    +0.006 A 
BRANCH  22  25
ATOM     25  N   UNL     1      -3.362  -2.313  24.458  0.00  0.00    -0.304 N 
ATOM     26  C   UNL     1      -2.564  -2.474  24.585  0.00  0.00    +0.112 C 
ATOM     27  C   UNL     1      -3.873  -2.917  24.222  0.00  0.00    +0.112 C 
ENDBRANCH  22  25
ENDBRANCH  17  19
ENDBRANCH  15  16
ENDBRANCH  14  15
TORSDOF 9
ENDMDL
MODEL 4
REMARK VINA RESULT:     -10.5      1.567      4.327
REMARK  Name = 
REMARK  9 active torsions:
REMARK  status: ('A' for Active; 'I' for Inactive)
REMARK    1  A    between atoms: O_2  and  C_3
REMARK    2  A    between atoms: C_6  and  C_7
REMARK    3  A    between atoms: C_7  and  N_8
REMARK    4  A    between atoms: C_9  and  C_11
REMARK    5  A    between atoms: C_11  and  C_12
REMARK    6  A    between atoms: C_14  and  C_15
REMARK    7  A    between atoms: C_15  and  N_16
REMARK    8  A    between atoms: C_17  and  C_19
REMARK    9  A    between atoms: C_22  and  N_25
REMARK                            x       y       z     vdW  Elec       q    Type
REMARK                         _______ _______ _______ _____ _____    ______ ____
ROOT
ATOM     12  C   UNL     1      -1.443  -1.254  24.751  0.00  0.00    +0.157 C 
ATOM     13  O   UNL     1      -2.083  -0.736  24.699  0.00  0.00    -0.351 OA
ATOM     14  C   UNL     1      -2.768  -1.187  24.612  0.00  0.00    +0.170 C 
ATOM     28  C   UNL     1      -2.552  -1.983  24.610  0.00  0.00    +0.213 C 
ATOM     29  O   UNL     1      -3.064  -2.625  24.536  0.00  0.00    -0.218 OA
ATOM     30  C   UNL     1      -1.732  -2.024  24.696  0.00  0.00    +0.212 C 
ATOM     31  O   UNL     1      -1.282  -2.714  24.723  0.00  0.00    -0.218 OA
ENDROOT
BRANCH  12  11
ATOM     11  C   UNL     1      -0.651  -1.038  24.842  0.00  0.00    +0.119 C 
BRANCH  11   9
ATOM      8  N   UNL     1      -0.384   0.366  24.834  0.00  0.00    -0.200 NA
ATOM      9  C   UNL     1      -0.360  -0.369  24.458  0.00  0.00    +0.244 C 
ATOM     10  O   UNL     1      -0.045  -0.433  23.698  0.00  0.00    -0.273 OA
BRANCH   8   7
ATOM      7  C   UNL     1      -0.093   1.035  24.450  0.00  0.00    +0.141 C 
BRANCH   7   6
ATOM      3  C   UNL     1      -0.718   3.292  25.253  0.00  0.00    +0.139 A 
ATOM      4  C   UNL     1      -0.830   3.090  24.461  0.00  0.00    +0.037 A 
ATOM      5  C   UNL     1      -0.622   2.338  24.193  0.00  0.00    +0.001 A 
ATOM      6  C   UNL     1      -0.302   1.788  24.717  0.00  0.00    -0.000 A 
ATOM     32  C   UNL     1      -0.189   1.988  25.510  0.00  0.00    +0.001 A 
ATOM     33  C   UNL     1      -0.398   2.741  25.777  0.00  0.00    +0.037 A 
BRANCH   3   2
ATOM      1  C   UNL     1      -0.936   4.681  24.997  0.00  0.00    +0.252 C 
ATOM      2  O   UNL     1      -0.926   4.043  25.521  0.00  0.00    -0.471 OA
ENDBRANCH   3   2
ENDBRANCH   7   6
ENDBRANCH   8   7
ENDBRANCH  11   9
ENDBRANCH  12  11
BRANCH  14  15
ATOM     15  C   UNL     1      -3.536  -0.894  24.539  0.00  0.00    +0.148 C 
BRANCH  15  16
ATOM     16  N   UNL     1      -3.700  -0.110  24.738  0.00  0.00    -0.199 NA
ATOM     17  C   UNL     1      -4.443   0.210  24.578  0.00  0.00    +0.265 C 
ATOM     18  O   UNL     1      -5.023  -0.254  24.219  0.00  0.00    -0.268 OA
BRANCH  17  19
ATOM     19  C   UNL     1      -4.606   0.993  24.778  0.00  0.00    +0.055 A 
ATOM     20  C   UNL     1      -4.239   1.609  24.368  0.00  0.00    +0.006 A 
ATOM     21  C   UNL     1      -4.403   2.392  24.569  0.00  0.00    +0.015 A 
ATOM     22  C   UNL     1      -4.933   2.561  25.177  0.00  0.00    +0.048 A 
ATOM     23  C   UNL     1      -5.301   1.946  25.586  0.00  0.00    +0.015 A 
ATOM     24  C   UNL     1      -5.137   1.162  25.386  0.00  0.00    +0.006 A 
BRANCH  22  25
ATOM     25  N   UNL     1      -5.097   3.345  25.376  0.00  0.00    -0.304 N 
ATOM     26  C   UNL     1      -4.482   3.889  25.450  0.00  0.00    +0.112 C 
ATOM     27  C   UNL     1      -5.877   3.584  25.503  0.00  0.00    +0.112 C 
ENDBRANCH  22  25
ENDBRANCH  17  19
ENDBRANCH  15  16
ENDBRANCH  14  15
TORSDOF 9
ENDMDL
MODEL 5
REMARK VINA RESULT:     -10.4      1.433      4.004
REMARK  Name = 
REMARK  9 active torsions:
REMARK  status: ('A' for Active; 'I' for Inactive)
REMARK    1  A    between atoms: O_2  and  C_3
REMARK    2  A    between atoms: C_6  and  C_7
REMARK    3  A    between atoms: C_7  and  N_8
REMARK    4  A    between atoms: C_9  and  C_11
REMARK    5  A    between atoms: C_11  and  C_12
REMARK    6  A    between atoms: C_14  and  C_15
REMARK    7  A    between atoms: C_15  and  N_16
REMARK    8  A    between atoms: C_17  and  C_19
REMARK    9  A    between atoms: C_22  and  N_25
REMARK                            x       y       z     vdW  Elec       q    Type
REMARK                         _______ _______ _______ _____ _____    ______ ____
ROOT
ATOM     12  C   UNL     1      -1.282   3.081  25.333  0.00  0.00    +0.157 C 
ATOM     13  O   UNL     1      -1.487   2.285  25.399  0.00  0.00    -0.351 OA
ATOM     14  C   UNL     1      -0.814   1.867  25.627  0.00  0.00    +0.170 C 
ATOM     28  C   UNL     1      -0.192   2.404  25.702  0.00  0.00    +0.213 C 
ATOM     29  O   UNL     1       0.581   2.223  25.920  0.00  0.00    -0.218 OA
ATOM     30  C   UNL     1      -0.482   3.155  25.520  0.00  0.00    +0.212 C 
ATOM     31  O   UNL     1      -0.048   3.856  25.525  0.00  0.00    -0.218 OA
ENDROOT
BRANCH  12  11
ATOM     11  C   UNL     1      -1.789   3.696  25.118  0.00  0.00    +0.119 C 
BRANCH  11   9
ATOM      8  N   UNL     1      -3.188   3.439  24.979  0.00  0.00    -0.200 NA
ATOM      9  C   UNL     1      -2.442   3.543  24.639  0.00  0.00    +0.244 C 
ATOM     10  O   UNL     1      -2.352   3.493  23.820  0.00  0.00    -0.273 OA
BRANCH   8   7
ATOM      7  C   UNL     1      -3.841   3.285  24.500  0.00  0.00    +0.141 C 
BRANCH   7   6
ATOM      3  C   UNL     1      -5.839   2.177  25.453  0.00  0.00    +0.139 A 
ATOM      4  C   UNL     1      -5.380   1.787  24.890  0.00  0.00    +0.037 A 
ATOM      5  C   UNL     1      -4.714   2.156  24.572  0.00  0.00    +0.001 A 
ATOM      6  C   UNL     1      -4.508   2.916  24.818  0.00  0.00    -0.000 A 
ATOM     32  C   UNL     1      -4.966   3.307  25.381  0.00  0.00    +0.001 A 
ATOM     33  C   UNL     1      -5.632   2.937  25.699  0.00  0.00    +0.037 A 
BRANCH   3   2
ATOM      1  C   UNL     1      -6.527   1.617  26.573  0.00  0.00    +0.252 C 
ATOM      2  O   UNL     1      -6.505   1.809  25.771  0.00  0.00    -0.471 OA
ENDBRANCH   3   2
ENDBRANCH   7   6
ENDBRANCH   8   7
ENDBRANCH  11   9
ENDBRANCH  12  11
BRANCH  14  15
ATOM     15  C   UNL     1      -0.769   1.053  25.757  0.00  0.00    +0.148 C 
BRANCH  15  16
ATOM     16  N   UNL     1      -1.340   0.551  25.436  0.00  0.00    -0.199 NA
ATOM     17  C   UNL     1      -1.383  -0.235  25.681  0.00  0.00    +0.265 C 
ATOM     18  O   UNL     1      -0.856  -0.520  26.248  0.00  0.00    -0.268 OA
BRANCH  17  19
ATOM     19  C   UNL     1      -1.954  -0.736  25.360  0.00  0.00    +0.055 A 
ATOM     20  C   UNL     1      -1.772  -1.201  24.702  0.00  0.00    +0.006 A 
ATOM     21  C   UNL     1      -2.344  -1.702  24.382  0.00  0.00    +0.015 A 
ATOM     22  C   UNL     1      -3.096  -1.739  24.717  0.00  0.00    +0.048 A 
ATOM     23  C   UNL     1      -3.278  -1.275  25.374  0.00  0.00    +0.015 A 
ATOM     24  C   UNL     1      -2.707  -0.774  25.695  0.00  0.00    +0.006 A 
BRANCH  22  25
ATOM     25  N   UNL     1      -3.667  -2.241  24.396  0.00  0.00    -0.304 N 
ATOM     26  C   UNL     1      -3.668  -3.043  24.590  0.00  0.00    +0.112 C 
ATOM     27  C   UNL     1      -4.238  -1.941  23.881  0.00  0.00    +0.112 C 
ENDBRANCH  22  25
ENDBRANCH  17  19
ENDBRANCH  15  16
ENDBRANCH  14  15
TORSDOF 9
ENDMDL
MODEL 6
REMARK VINA RESULT:     -10.2      1.478      5.076
REMARK  Name = 
REMARK  9 active torsions:
REMARK  status: ('A' for Active; 'I' for Inactive)
REMARK    1  A    between atoms: O_2  and  C_3
REMARK    2  A    between atoms: C_6  and  C_7
REMARK    3  A    between atoms: C_7  and  N_8
REMARK    4  A    between atoms: C_9  and  C_11
REMARK    5  A    between atoms: C_11  and  C_12
REMARK    6  A    between atoms: C_14  and  C_15
REMARK    7  A    between atoms: C_15  and  N_16
REMARK    8  A    between atoms: C_17  and  C_19
REMARK    9  A    between atoms: C_22  and  N_25
REMARK                            x       y       z     vdW  Elec       q    Type
REMARK                         _______ _______ _______ _____ _____    ______ ____
ROOT
ATOM     12  C   UNL     1      -0.441   1.510  24.598  0.00  0.00    +0.157 C 
ATOM     13  O   UNL     1      -1.216   1.786  24.660  0.00  0.00    -0.351 OA
ATOM     14  C   UNL     1      -1.211   2.595  24.499  0.00  0.00    +0.170 C 
ATOM     28  C   UNL     1      -0.434   2.819  24.338  0.00  0.00    +0.213 C 
ATOM     29  O   UNL     1      -0.177   3.579  24.149  0.00  0.00    -0.218 OA
ATOM     30  C   UNL     1       0.042   2.148  24.400  0.00  0.00    +0.212 C 
ATOM     31  O   UNL     1       0.858   2.120  24.283  0.00  0.00    -0.218 OA
ENDROOT
BRANCH  12  11
ATOM     11  C   UNL     1      -0.193   0.731  24.716  0.00  0.00    +0.119 C 
BRANCH  11   9
ATOM      8  N   UNL     1      -1.073  -0.372  24.940  0.00  0.00    -0.200 NA
ATOM      9  C   UNL     1      -0.606   0.242  25.235  0.00  0.00    +0.244 C 
ATOM     10  O   UNL     1      -0.551   0.364  26.049  0.00  0.00    -0.273 OA
BRANCH   8   7
ATOM      7  C   UNL     1      -1.486  -0.861  25.460  0.00  0.00    +0.141 C 
BRANCH   7   6
ATOM      3  C   UNL     1      -3.304  -2.312  24.611  0.00  0.00    +0.139 A 
ATOM      4  C   UNL     1      -3.482  -1.665  25.091  0.00  0.00    +0.037 A 
ATOM      5  C   UNL     1      -2.877  -1.182  25.374  0.00  0.00    +0.001 A 
ATOM      6  C   UNL     1      -2.092  -1.345  25.177  0.00  0.00    -0.000 A 
ATOM     32  C   UNL     1      -1.913  -1.992  24.698  0.00  0.00    +0.001 A 
ATOM     33  C   UNL     1      -2.519  -2.476  24.414  0.00  0.00    +0.037 A 
BRANCH   3   2
ATOM      1  C   UNL     1      -4.387  -2.538  23.707  0.00  0.00    +0.252 C 
ATOM      2  O   UNL     1      -3.909  -2.795  24.328  0.00  0.00    -0.471 OA
ENDBRANCH   3   2
ENDBRANCH   7   6
ENDBRANCH   8   7
ENDBRANCH  11   9
ENDBRANCH  12  11
BRANCH  14  15
ATOM     15  C   UNL     1      -1.869   3.093  24.499  0.00  0.00    +0.148 C 
BRANCH  15  16
ATOM     16  N   UNL     1      -2.610   2.800  24.713  0.00  0.00    -0.199 NA
ATOM     17  C   UNL     1      -3.278   3.278  24.645  0.00  0.00    +0.265 C 
ATOM     18  O   UNL     1      -3.207   4.050  24.363  0.00  0.00    -0.268 OA
BRANCH  17  19
ATOM     19  C   UNL     1      -4.019   2.984  24.860  0.00  0.00    +0.055 A 
ATOM     20  C   UNL     1      -4.467   3.374  25.433  0.00  0.00    +0.006 A 
ATOM     21  C   UNL     1      -5.208   3.079  25.646  0.00  0.00    +0.015 A 
ATOM     22  C   UNL     1      -5.500   2.397  25.289  0.00  0.00    +0.048 A 
ATOM     23  C   UNL     1      -5.052   2.007  24.716  0.00  0.00    +0.015 A 
ATOM     24  C   UNL     1      -4.311   2.301  24.502  0.00  0.00    +0.006 A 
BRANCH  22  25
ATOM     25  N   UNL     1      -6.241   2.103  25.503  0.00  0.00    -0.304 N 
ATOM     26  C   UNL     1      -6.774   1.864  24.921  0.00  0.00    +0.112 C 
ATOM     27  C   UNL     1      -6.449   2.048  26.300  0.00  0.00    +0.112 C 
ENDBRANCH  22  25
ENDBRANCH  17  19
ENDBRANCH  15  16
ENDBRANCH  14  15
TORSDOF 9
ENDMDL
MODEL 7
REMARK VINA RESULT:     -10.0      1.299      3.839
REMARK  Name = 
REMARK  9 active torsions:
REMARK  status: ('A' for Active; 'I' for Inactive)
REMARK    1  A    between atoms: O_2  and  C_3
REMARK    2  A    between atoms: C_6  and  C_7
REMARK    3  A    between atoms: C_7  and  N_8
REMARK    4  A    between atoms: C_9  and  C_11
REMARK    5  A    between atoms: C_11  and  C_12
REMARK    6  A    between atoms: C_14  and  C_15
REMARK    7  A    between atoms: C_15  and  N_16
REMARK    8  A    between atoms: C_17  and  C_19
REMARK    9  A    between atoms: C_22  and  N_25
REMARK                            x       y       z     vdW  Elec       q    Type
REMARK                         _______ _______ _______ _____ _____    ______ ____
ROOT
ATOM     12  C   UNL     1      -4.310   2.906  25.560  0.00  0.00    +0.157 C 
ATOM     13  O   UNL     1      -3.588   2.701  25.219  0.00  0.00    -0.351 OA
ATOM     14  C   UNL     1      -3.071   3.336  25.317  0.00  0.00    +0.170 C 
ATOM     28  C   UNL     1      -3.473   3.934  25.719  0.00  0.00    +0.213 C 
ATOM     29  O   UNL     1      -3.165   4.667  25.933  0.00  0.00    -0.218 OA
ATOM     30  C   UNL     1      -4.240   3.667  25.869  0.00  0.00    +0.212 C 
ATOM     31  O   UNL     1      -4.831   4.089  26.259  0.00  0.00    -0.218 OA
ENDROOT
BRANCH  12  11
ATOM     11  C   UNL     1      -4.986   2.432  25.587  0.00  0.00    +0.119 C 
BRANCH  11   9
ATOM      8  N   UNL     1      -4.764   1.069  25.217  0.00  0.00    -0.200 NA
ATOM      9  C   UNL     1      -5.077   1.815  25.048  0.00  0.00    +0.244 C 
ATOM     10  O   UNL     1      -5.481   1.941  24.340  0.00  0.00    -0.273 OA
BRANCH   8   7
ATOM      7  C   UNL     1      -4.856   0.452  24.677  0.00  0.00    +0.141 C 
BRANCH   7   6
ATOM      3  C   UNL     1      -3.450  -1.576  24.870  0.00  0.00    +0.139 A 
ATOM      4  C   UNL     1      -3.583  -1.102  25.532  0.00  0.00    +0.037 A 
ATOM      5  C   UNL     1      -4.051  -0.427  25.468  0.00  0.00    +0.001 A 
ATOM      6  C   UNL     1      -4.387  -0.224  24.742  0.00  0.00    -0.000 A 
ATOM     32  C   UNL     1      -4.254  -0.698  24.079  0.00  0.00    +0.001 A 
ATOM     33  C   UNL     1      -3.785  -1.374  24.144  0.00  0.00    +0.037 A 
BRANCH   3   2
ATOM      1  C   UNL     1      -3.233  -2.962  24.597  0.00  0.00    +0.252 C 
ATOM      2  O   UNL     1      -2.982  -2.252  24.934  0.00  0.00    -0.471 OA
ENDBRANCH   3   2
ENDBRANCH   7   6
ENDBRANCH   8   7
ENDBRANCH  11   9
ENDBRANCH  12  11
BRANCH  14  15
ATOM     15  C   UNL     1      -2.287   3.368  25.059  0.00  0.00    +0.148 C 
BRANCH  15  16
ATOM     16  N   UNL     1      -1.902   2.679  24.822  0.00  0.00    -0.199 NA
ATOM     17  C   UNL     1      -1.152   2.721  24.482  0.00  0.00    +0.265 C 
ATOM     18  O   UNL     1      -0.786   3.454  24.378  0.00  0.00    -0.268 OA
BRANCH  17  19
ATOM     19  C   UNL     1      -0.766   2.032  24.245  0.00  0.00    +0.055 A 
ATOM     20  C   UNL     1       0.021   1.905  24.458  0.00  0.00    +0.006 A 
ATOM     21  C   UNL     1       0.405   1.214  24.220  0.00  0.00    +0.015 A 
ATOM     22  C   UNL     1       0.005   0.652  23.771  0.00  0.00    +0.048 A 
ATOM     23  C   UNL     1      -0.782   0.778  23.557  0.00  0.00    +0.015 A 
ATOM     24  C   UNL     1      -1.167   1.469  23.795  0.00  0.00    +0.006 A 
BRANCH  22  25
ATOM     25  N   UNL     1       0.390  -0.038  23.533  0.00  0.00    -0.304 N 
ATOM     26  C   UNL     1       0.160  -0.766  23.844  0.00  0.00    +0.112 C 
ATOM     27  C   UNL     1       1.006   0.001  22.985  0.00  0.00    +0.112 C 
ENDBRANCH  22  25
ENDBRANCH  17  19
ENDBRANCH  15  16
ENDBRANCH  14  15
TORSDOF 9
ENDMDL
