MODEL 1
REMARK VINA RESULT:      -9.7      0.000      0.000
REMARK  Name = 
REMARK  8 active torsions:
REMARK  status: ('A' for Active; 'I' for Inactive)
REMARK    1  A    between atoms: O_2  and  C_3
REMARK    2  A    between atoms: C_3  and  C_4
REMARK    3  A    between atoms: C_4  and  N_5
REMARK    4  A    between atoms: N_5  and  C_6
REMARK    5  A    between atoms: C_7  and  C_12
REMARK    6  A    between atoms: C_15  and  C_17
REMARK    7  A    between atoms: N_21  and  C_22
REMARK    8  A    between atoms: C_22  and  C_23
REMARK                            x       y       z     vdW  Elec       q    Type
REMARK                         _______ _______ _______ _____ _____    ______ ____
ROOT
ATOM     12  C   UNL     1      -3.890   1.454  24.589  0.00  0.00    +0.206 A 
ATOM     13  N   UNL     1      -3.728   1.397  23.781  0.00  0.00    -0.056 NA
ATOM     14  O   UNL     1      -3.179   0.792  23.674  0.00  0.00    -0.336 OA
ATOM     15  C   UNL     1      -3.002   0.474  24.414  0.00  0.00    +0.251 A 
ATOM     16  N   UNL     1      -3.441   0.883  24.980  0.00  0.00    -0.190 NA
ENDROOT
BRANCH  12   7
ATOM      6  C   UNL     1      -4.148   2.743  25.151  0.00  0.00    +0.151 A 
ATOM      7  C   UNL     1      -4.410   1.988  24.943  0.00  0.00    +0.072 A 
ATOM      8  C   UNL     1      -5.192   1.768  25.089  0.00  0.00    +0.008 A 
ATOM      9  C   UNL     1      -5.711   2.302  25.442  0.00  0.00    +0.021 A 
ATOM     10  C   UNL     1      -5.450   3.056  25.650  0.00  0.00    +0.100 A 
ATOM     11  N   UNL     1      -4.668   3.276  25.504  0.00  0.00    -0.228 NA
BRANCH   6   5
ATOM      5  N   UNL     1      -3.367   2.963  25.005  0.00  0.00    -0.218 NA
BRANCH   5   4
ATOM      4  C   UNL     1      -3.093   3.700  25.254  0.00  0.00    +0.146 C 
BRANCH   4   3
ATOM      3  C   UNL     1      -2.328   3.942  25.061  0.00  0.00    +0.166 C 
BRANCH   3   2
ATOM      1  C   UNL     1      -1.331   4.965  25.108  0.00  0.00    +0.174 C 
ATOM      2  O   UNL     1      -2.001   4.605  25.428  0.00  0.00    -0.349 OA
ENDBRANCH   3   2
ENDBRANCH   4   3
ENDBRANCH   5   4
ENDBRANCH   6   5
ENDBRANCH  12   7
BRANCH  15  17
ATOM     17  C   UNL     1      -2.476  -0.145  24.563  0.00  0.00    +0.138 C 
ATOM     18  C   UNL     1      -1.660  -0.075  24.666  0.00  0.00    +0.027 C 
ATOM     19  C   UNL     1      -1.356  -0.830  24.802  0.00  0.00    +0.019 C 
ATOM     20  C   UNL     1      -1.981  -1.365  24.783  0.00  0.00    +0.073 C 
ATOM     21  N   UNL     1      -2.675  -0.942  24.636  0.00  0.00    -0.266 NA
BRANCH  21  22
ATOM     22  C   UNL     1      -3.434  -1.261  24.572  0.00  0.00    +0.072 C 
BRANCH  22  23
ATOM     23  C   UNL     1      -3.545  -2.076  24.638  0.00  0.00    +0.016 C 
ATOM     24  C   UNL     1      -3.469  -2.445  25.372  0.00  0.00    +0.001 C 
ATOM     25  C   UNL     1      -3.732  -2.522  23.968  0.00  0.00    +0.001 C 
ENDBRANCH  22  23
ENDBRANCH  21  22
ENDBRANCH  15  17
TORSDOF 8
ENDMDL
MODEL 2
REMARK VINA RESULT:      -9.4      1.495      3.327
REMARK  Name = 
REMARK  8 active torsions:
REMARK  status: ('A' for Active; 'I' for Inactive)
REMARK    1  A    between atoms: O_2  and  C_3
REMARK    2  A    between atoms: C_3  and  C_4
REMARK    3  A    between atoms: C_4  and  N_5
REMARK    4  A    between atoms: N_5  and  C_6
REMARK    5  A    between atoms: C_7  and  C_12
REMARK    6  A    between atoms: C_15  and  C_17
REMARK    7  A    between atoms: N_21  and  C_22
REMARK    8  A    between atoms: C_22  and  C_23
REMARK                            x       y       z     vdW  Elec       q    Type
REMARK                         _______ _______ _______ _____ _____    ______ ____
ROOT
ATOM     12  C   UNL     1      -2.842   3.170  24.524  0.00  0.00    +0.206 A 
ATOM     13  N   UNL     1      -3.140   3.073  23.761  0.00  0.00    -0.056 NA
ATOM     14  O   UNL     1      -3.817   2.605  23.809  0.00  0.00    -0.336 OA
ATOM     15  C   UNL     1      -3.937   2.412  24.602  0.00  0.00    +0.251 A 
ATOM     16  N   UNL     1      -3.335   2.761  25.044  0.00  0.00    -0.190 NA
ENDROOT
BRANCH  12   7
ATOM      6  C   UNL     1      -1.421   3.254  24.664  0.00  0.00    +0.151 A 
ATOM      7  C   UNL     1      -2.169   3.599  24.731  0.00  0.00    +0.072 A 
ATOM      8  C   UNL     1      -2.241   4.374  25.005  0.00  0.00    +0.008 A 
ATOM      9  C   UNL     1      -1.569   4.803  25.211  0.00  0.00    +0.021 A 
ATOM     10  C   UNL     1      -0.822   4.459  25.144  0.00  0.00    +0.100 A 
ATOM     11  N   UNL     1      -0.749   3.683  24.870  0.00  0.00    -0.228 NA
BRANCH   6   5
ATOM      5  N   UNL     1      -1.349   2.480  24.390  0.00  0.00    -0.218 NA
BRANCH   5   4
ATOM      4  C   UNL     1      -0.627   2.085  24.456  0.00  0.00    +0.146 C 
BRANCH   4   3
ATOM      3  C   UNL     1      -0.512   1.368  24.065  0.00  0.00    +0.166 C 
BRANCH   3   2
ATOM      1  C   UNL     1      -0.226  -0.031  24.113  0.00  0.00    +0.174 C 
ATOM      2  O   UNL     1      -0.264   0.704  24.486  0.00  0.00    -0.349 OA
ENDBRANCH   3   2
ENDBRANCH   4   3
ENDBRANCH   5   4
ENDBRANCH   6   5
ENDBRANCH  12   7
BRANCH  15  17
ATOM     17  C   UNL     1      -4.553   1.951  24.901  0.00  0.00    +0.138 C 
ATOM     18  C   UNL     1      -5.259   2.233  25.224  0.00  0.00    +0.027 C 
ATOM     19  C   UNL     1      -5.712   1.582  25.452  0.00  0.00    +0.019 C 
ATOM     20  C   UNL     1      -5.288   0.899  25.270  0.00  0.00    +0.073 C 
ATOM     21  N   UNL     1      -4.572   1.127  24.930  0.00  0.00    -0.266 NA
BRANCH  21  22
ATOM     22  C   UNL     1      -3.978   0.619  24.664  0.00  0.00    +0.072 C 
BRANCH  22  23
ATOM     23  C   UNL     1      -4.054  -0.196  24.771  0.00  0.00    +0.016 C 
ATOM     24  C   UNL     1      -3.808  -0.546  25.476  0.00  0.00    +0.001 C 
ATOM     25  C   UNL     1      -4.378  -0.661  24.170  0.00  0.00    +0.001 C 
ENDBRANCH  22  23
ENDBRANCH  21  22
ENDBRANCH  15  17
TORSDOF 8
ENDMDL
MODEL 3
REMARK VINA RESULT:      -9.4      1.178      4.193
REMARK  Name = 
REMARK  8 active torsions:
REMARK  status: ('A' for Active; 'I' for Inactive)
REMARK    1  A    between atoms: O_2  and  C_3
REMARK    2  A    between atoms: C_3  and  C_4
REMARK    3  A    between atoms: C_4  and  N_5
REMARK    4  A    between atoms: N_5  and  C_6
REMARK    5  A    between atoms: C_7  and  C_12
REMARK    6  A    between atoms: C_15  and  C_17
REMARK    7  A    between atoms: N_21  and  C_22
REMARK    8  A    between atoms: C_22  and  C_23
REMARK                            x       y       z     vdW  Elec       q    Type
REMARK                         _______ _______ _______ _____ _____    ______ ____
ROOT
ATOM     12  C   UNL     1      -3.731  -0.036  24.515  0.00  0.00    +0.206 A 
ATOM     13  N   UNL     1      -3.728   0.353  23.787  0.00  0.00    -0.056 NA
ATOM     14  O   UNL     1      -4.146   1.058  23.874  0.00  0.00    -0.336 OA
ATOM     15  C   UNL     1      -4.408   1.105  24.655  0.00  0.00    +0.251 A 
ATOM     16  N   UNL     1      -4.151   0.429  25.051  0.00  0.00    -0.190 NA
ENDROOT
BRANCH  12   7
ATOM      6  C   UNL     1      -2.576  -0.795  24.881  0.00  0.00    +0.151 A 
ATOM      7  C   UNL     1      -3.375  -0.763  24.677  0.00  0.00    +0.072 A 
ATOM      8  C   UNL     1      -3.818  -1.457  24.636  0.00  0.00    +0.008 A 
ATOM      9  C   UNL     1      -3.463  -2.183  24.798  0.00  0.00    +0.021 A 
ATOM     10  C   UNL     1      -2.664  -2.216  25.002  0.00  0.00    +0.100 A 
ATOM     11  N   UNL     1      -2.221  -1.521  25.044  0.00  0.00    -0.228 NA
BRANCH   6   5
ATOM      5  N   UNL     1      -2.133  -0.100  24.923  0.00  0.00    -0.218 NA
BRANCH   5   4
ATOM      4  C   UNL     1      -1.382  -0.110  25.265  0.00  0.00    +0.146 C 
BRANCH   4   3
ATOM      3  C   UNL     1      -0.853   0.506  25.116  0.00  0.00    +0.166 C 
BRANCH   3   2
ATOM      1  C   UNL     1      -0.249   1.731  25.534  0.00  0.00    +0.174 C 
ATOM      2  O   UNL     1      -0.673   1.046  25.713  0.00  0.00    -0.349 OA
ENDBRANCH   3   2
ENDBRANCH   4   3
ENDBRANCH   5   4
ENDBRANCH   6   5
ENDBRANCH  12   7
BRANCH  15  17
ATOM     17  C   UNL     1      -4.850   1.720  24.982  0.00  0.00    +0.138 C 
ATOM     18  C   UNL     1      -5.646   1.686  25.196  0.00  0.00    +0.027 C 
ATOM     19  C   UNL     1      -5.860   2.423  25.499  0.00  0.00    +0.019 C 
ATOM     20  C   UNL     1      -5.197   2.912  25.473  0.00  0.00    +0.073 C 
ATOM     21  N   UNL     1      -4.573   2.478  25.153  0.00  0.00    -0.266 NA
BRANCH  21  22
ATOM     22  C   UNL     1      -3.805   2.754  25.027  0.00  0.00    +0.072 C 
BRANCH  22  23
ATOM     23  C   UNL     1      -3.621   3.545  25.174  0.00  0.00    +0.016 C 
ATOM     24  C   UNL     1      -3.366   3.777  25.924  0.00  0.00    +0.001 C 
ATOM     25  C   UNL     1      -3.694   4.104  24.571  0.00  0.00    +0.001 C 
ENDBRANCH  22  23
ENDBRANCH  21  22
ENDBRANCH  15  17
TORSDOF 8
ENDMDL
MODEL 4
REMARK VINA RESULT:      -9.3      1.250      2.514
REMARK  Name = 
REMARK  8 active torsions:
REMARK  status: ('A' for Active; 'I' for Inactive)
REMARK    1  A    between atoms: O_2  and  C_3
REMARK    2  A    between atoms: C_3  and  C_4
REMARK    3  A    between atoms: C_4  and  N_5
REMARK    4  A    between atoms: N_5  and  C_6
REMARK    5  A    between atoms: C_7  and  C_12
REMARK    6  A    between atoms: C_15  and  C_17
REMARK    7  A    between atoms: N_21  and  C_22
REMARK    8  A    between atoms: C_22  and  C_23
REMARK                            x       y       z     vdW  Elec       q    Type
REMARK                         _______ _______ _______ _____ _____    ______ ____
ROOT
ATOM     12  C   UNL     1      -1.718   2.270  24.531  0.00  0.00    +0.206 A 
ATOM     13  N   UNL     1      -1.847   2.026  23.753  0.00  0.00    -0.056 NA
ATOM     14  O   UNL     1      -1.766   1.205  23.728  0.00  0.00    -0.336 OA
ATOM     15  C   UNL     1      -1.587   0.943  24.490  0.00  0.00    +0.251 A 
ATOM     16  N   UNL     1      -1.558   1.601  24.986  0.00  0.00    -0.190 NA
ENDROOT
BRANCH  12   7
ATOM      6  C   UNL     1      -2.468   3.387  25.015  0.00  0.00    +0.151 A 
ATOM      7  C   UNL     1      -1.745   3.048  24.805  0.00  0.00    +0.072 A 
ATOM      8  C   UNL     1      -1.050   3.487  24.871  0.00  0.00    +0.008 A 
ATOM      9  C   UNL     1      -1.077   4.264  25.145  0.00  0.00    +0.021 A 
ATOM     10  C   UNL     1      -1.799   4.603  25.354  0.00  0.00    +0.100 A 
ATOM     11  N   UNL     1      -2.495   4.164  25.288  0.00  0.00    -0.228 NA
BRANCH   6   5
ATOM      5  N   UNL     1      -3.163   2.948  24.949  0.00  0.00    -0.218 NA
BRANCH   5   4
ATOM      4  C   UNL     1      -3.867   3.241  25.267  0.00  0.00    +0.146 C 
BRANCH   4   3
ATOM      3  C   UNL     1      -4.584   2.878  25.082  0.00  0.00    +0.166 C 
BRANCH   3   2
ATOM      1  C   UNL     1      -5.774   2.213  25.512  0.00  0.00    +0.174 C 
ATOM      2  O   UNL     1      -5.107   2.668  25.685  0.00  0.00    -0.349 OA
ENDBRANCH   3   2
ENDBRANCH   4   3
ENDBRANCH   5   4
ENDBRANCH   6   5
ENDBRANCH  12   7
BRANCH  15  17
ATOM     17  C   UNL     1      -1.461   0.159  24.715  0.00  0.00    +0.138 C 
ATOM     18  C   UNL     1      -0.727  -0.194  24.852  0.00  0.00    +0.027 C 
ATOM     19  C   UNL     1      -0.859  -0.980  25.065  0.00  0.00    +0.019 C 
ATOM     20  C   UNL     1      -1.673  -1.113  25.060  0.00  0.00    +0.073 C 
ATOM     21  N   UNL     1      -2.045  -0.409  24.844  0.00  0.00    -0.266 NA
BRANCH  21  22
ATOM     22  C   UNL     1      -2.859  -0.293  24.770  0.00  0.00    +0.072 C 
BRANCH  22  23
ATOM     23  C   UNL     1      -3.381  -0.904  24.958  0.00  0.00    +0.016 C 
ATOM     24  C   UNL     1      -3.668  -1.399  24.364  0.00  0.00    +0.001 C 
ATOM     25  C   UNL     1      -3.615  -1.019  25.741  0.00  0.00    +0.001 C 
ENDBRANCH  22  23
ENDBRANCH  21  22
ENDBRANCH  15  17
TORSDOF 8
ENDMDL
MODEL 5
REMARK VINA RESULT:      -9.1      1.536      4.039
REMARK  Name = 
REMARK  8 active torsions:
REMARK  status: ('A' for Active; 'I' for Inactive)
REMARK    1  A    between atoms: O_2  and  C_3
REMARK    2  A    between atoms: C_3  and  C_4
REMARK    3  A    between atoms: C_4  and  N_5
REMARK    4  A    between atoms: N_5  and  C_6
REMARK    5  A    between atoms: C_7  and  C_12
REMARK    6  A    between atoms: C_15  and  C_17
REMARK    7  A    between atoms: N_21  and  C_22
REMARK    8  A    between atoms: C_22  and  C_23
REMARK                            x       y       z     vdW  Elec       q    Type
REMARK                         _______ _______ _______ _____ _____    ______ ____
ROOT
ATOM     12  C   UNL     1      -2.392   0.528  24.521  0.00  0.00    +0.206 A 
ATOM     13  N   UNL     1      -2.176   0.921  23.828  0.00  0.00    -0.056 NA
ATOM     14  O   UNL     1      -1.642   1.516  24.028  0.00  0.00    -0.336 OA
ATOM     15  C   UNL     1      -1.527   1.491  24.845  0.00  0.00    +0.251 A 
ATOM     16  N   UNL     1      -1.990   0.881  25.149  0.00  0.00    -0.190 NA
ENDROOT
BRANCH  12   7
ATOM      6  C   UNL     1      -3.724   0.033  24.679  0.00  0.00    +0.151 A 
ATOM      7  C   UNL     1      -2.916  -0.106  24.576  0.00  0.00    +0.072 A 
ATOM      8  C   UNL     1      -2.635  -0.880  24.527  0.00  0.00    +0.008 A 
ATOM      9  C   UNL     1      -3.159  -1.514  24.582  0.00  0.00    +0.021 A 
ATOM     10  C   UNL     1      -3.966  -1.375  24.685  0.00  0.00    +0.100 A 
ATOM     11  N   UNL     1      -4.248  -0.600  24.734  0.00  0.00    -0.228 NA
BRANCH   6   5
ATOM      5  N   UNL     1      -4.005   0.807  24.727  0.00  0.00    -0.218 NA
BRANCH   5   4
ATOM      4  C   UNL     1      -4.784   0.949  24.961  0.00  0.00    +0.146 C 
BRANCH   4   3
ATOM      3  C   UNL     1      -5.092   1.713  24.925  0.00  0.00    +0.166 C 
BRANCH   3   2
ATOM      1  C   UNL     1      -5.800   2.792  25.540  0.00  0.00    +0.174 C 
ATOM      2  O   UNL     1      -5.510   2.019  25.567  0.00  0.00    -0.349 OA
ENDBRANCH   3   2
ENDBRANCH   4   3
ENDBRANCH   5   4
ENDBRANCH   6   5
ENDBRANCH  12   7
BRANCH  15  17
ATOM     17  C   UNL     1      -1.035   1.990  25.280  0.00  0.00    +0.138 C 
ATOM     18  C   UNL     1      -0.324   1.777  25.642  0.00  0.00    +0.027 C 
ATOM     19  C   UNL     1      -0.018   2.445  26.015  0.00  0.00    +0.019 C 
ATOM     20  C   UNL     1      -0.537   3.072  25.886  0.00  0.00    +0.073 C 
ATOM     21  N   UNL     1      -1.167   2.791  25.431  0.00  0.00    -0.266 NA
BRANCH  21  22
ATOM     22  C   UNL     1      -1.814   3.233  25.173  0.00  0.00    +0.072 C 
BRANCH  22  23
ATOM     23  C   UNL     1      -1.930   3.999  25.457  0.00  0.00    +0.016 C 
ATOM     24  C   UNL     1      -2.464   4.136  26.070  0.00  0.00    +0.001 C 
ATOM     25  C   UNL     1      -1.509   4.628  25.126  0.00  0.00    +0.001 C 
ENDBRANCH  22  23
ENDBRANCH  21  22
ENDBRANCH  15  17
TORSDOF 8
ENDMDL
MODEL 6
REMARK VINA RESULT:      -9.0      1.417      3.960
REMARK  Name = 
REMARK  8 active torsions:
REMARK  status: ('A' for Active; 'I' for Inactive)
REMARK    1  A    between atoms: O_2  and  C_3
REMARK    2  A    between atoms: C_3  and  C_4
REMARK    3  A    between atoms: C_4  and  N_5
REMARK    4  A    between atoms: N_5  and  C_6
REMARK    5  A    between atoms: C_7  and  C_12
REMARK    6  A    between atoms: C_15  and  C_17
REMARK    7  A    between atoms: N_21  and  C_22
REMARK    8  A    between atoms: C_22  and  C_23
REMARK                            x       y       z     vdW  Elec       q    Type
REMARK                         _______ _______ _______ _____ _____    ______ ____
ROOT
ATOM     12  C   UNL     1      -3.925   2.908  24.810  0.00  0.00    +0.206 A 
ATOM     13  N   UNL     1      -3.705   2.898  24.014  0.00  0.00    -0.056 NA
ATOM     14  O   UNL     1      -2.957   3.240  23.954  0.00  0.00    -0.336 OA
ATOM     15  C   UNL     1      -2.715   3.461  24.711  0.00  0.00    +0.251 A 
ATOM     16  N   UNL     1      -3.314   3.256  25.240  0.00  0.00    -0.190 NA
ENDROOT
BRANCH  12   7
ATOM      6  C   UNL     1      -4.788   1.809  25.115  0.00  0.00    +0.151 A 
ATOM      7  C   UNL     1      -4.634   2.620  25.120  0.00  0.00    +0.072 A 
ATOM      8  C   UNL     1      -5.189   3.143  25.435  0.00  0.00    +0.008 A 
ATOM      9  C   UNL     1      -5.897   2.856  25.744  0.00  0.00    +0.021 A 
ATOM     10  C   UNL     1      -6.051   2.045  25.740  0.00  0.00    +0.100 A 
ATOM     11  N   UNL     1      -5.495   1.522  25.424  0.00  0.00    -0.228 NA
BRANCH   6   5
ATOM      5  N   UNL     1      -4.232   1.287  24.800  0.00  0.00    -0.218 NA
BRANCH   5   4
ATOM      4  C   UNL     1      -4.404   0.480  24.756  0.00  0.00    +0.146 C 
BRANCH   4   3
ATOM      3  C   UNL     1      -3.821  -0.052  24.517  0.00  0.00    +0.166 C 
BRANCH   3   2
ATOM      1  C   UNL     1      -3.756  -1.458  24.269  0.00  0.00    +0.174 C 
ATOM      2  O   UNL     1      -4.025  -0.706  24.058  0.00  0.00    -0.349 OA
ENDBRANCH   3   2
ENDBRANCH   4   3
ENDBRANCH   5   4
ENDBRANCH   6   5
ENDBRANCH  12   7
BRANCH  15  17
ATOM     17  C   UNL     1      -2.000   3.824  24.905  0.00  0.00    +0.138 C 
ATOM     18  C   UNL     1      -1.866   4.637  24.958  0.00  0.00    +0.027 C 
ATOM     19  C   UNL     1      -1.076   4.751  25.166  0.00  0.00    +0.019 C 
ATOM     20  C   UNL     1      -0.721   4.011  25.242  0.00  0.00    +0.073 C 
ATOM     21  N   UNL     1      -1.292   3.437  25.081  0.00  0.00    -0.266 NA
BRANCH  21  22
ATOM     22  C   UNL     1      -1.176   2.620  25.093  0.00  0.00    +0.072 C 
BRANCH  22  23
ATOM     23  C   UNL     1      -0.440   2.312  25.304  0.00  0.00    +0.016 C 
ATOM     24  C   UNL     1      -0.247   2.213  26.100  0.00  0.00    +0.001 C 
ATOM     25  C   UNL     1       0.103   2.102  24.718  0.00  0.00    +0.001 C 
ENDBRANCH  22  23
ENDBRANCH  21  22
ENDBRANCH  15  17
TORSDOF 8
ENDMDL
