MODEL 1
REMARK VINA RESULT:     -13.0      0.000      0.000
REMARK  Name = 
REMARK  5 active torsions:
REMARK  status: ('A' for Active; 'I' for Inactive)
REMARK    1  A    between atoms: C_4  and  C_20
REMARK    2  A    between atoms: C_5  and  N_6
REMARK    3  A    between atoms: N_6  and  C_7
REMARK    4  A    between atoms: C_7  and  C_8
REMARK    5  A    between atoms: C_12  and  C_14
REMARK                            x       y       z     vdW  Elec       q    Type
REMARK                         _______ _______ _______ _____ _____    ______ ____
ROOT
ATOM      1  O   UNL     1      -5.638   3.237  25.228  0.00  0.00    -0.220 OA
ATOM      2  C   UNL     1      -5.016   2.742  25.000  0.00  0.00    +0.184 C 
ATOM      3  C   UNL     1      -4.396   2.945  24.497  0.00  0.00    +0.041 C 
ATOM      4  C   UNL     1      -3.903   2.287  24.422  0.00  0.00    +0.044 C 
ATOM      5  C   UNL     1      -4.221   1.678  24.879  0.00  0.00    +0.110 C 
ATOM     18  C   UNL     1      -4.909   1.959  25.237  0.00  0.00    +0.198 C 
ATOM     19  O   UNL     1      -5.402   1.532  25.742  0.00  0.00    -0.219 OA
ENDROOT
BRANCH   4  20
ATOM     20  C   UNL     1      -3.215   2.245  23.969  0.00  0.00    -0.021 A 
ATOM     21  C   UNL     1      -2.480   2.363  24.326  0.00  0.00    -0.004 A 
ATOM     22  C   UNL     1      -1.791   2.321  23.873  0.00  0.00    -0.000 A 
ATOM     23  C   UNL     1      -1.837   2.162  23.065  0.00  0.00    -0.000 A 
ATOM     24  C   UNL     1      -2.573   2.045  22.709  0.00  0.00    -0.000 A 
ATOM     25  C   UNL     1      -3.262   2.086  23.162  0.00  0.00    -0.004 A 
ENDBRANCH   4  20
BRANCH   5   6
ATOM      6  N   UNL     1      -3.905   0.920  24.964  0.00  0.00    -0.212 NA
BRANCH   6   7
ATOM      7  C   UNL     1      -4.407   0.274  25.068  0.00  0.00    +0.115 C 
BRANCH   7   8
ATOM      8  C   UNL     1      -4.100  -0.492  25.057  0.00  0.00    -0.005 A 
ATOM      9  C   UNL     1      -3.603  -0.746  25.664  0.00  0.00    -0.003 A 
ATOM     10  C   UNL     1      -3.296  -1.512  25.654  0.00  0.00    -0.000 A 
ATOM     11  C   UNL     1      -3.487  -2.024  25.037  0.00  0.00    +0.004 A 
ATOM     12  C   UNL     1      -3.984  -1.771  24.429  0.00  0.00    +0.071 A 
ATOM     13  C   UNL     1      -4.291  -1.005  24.439  0.00  0.00    +0.001 A 
BRANCH  12  14
ATOM     14  C   UNL     1      -4.175  -2.283  23.811  0.00  0.00    +0.419 C 
ATOM     15  F   UNL     1      -4.366  -2.797  23.194  0.00  0.00    -0.166 F 
ATOM     16  F   UNL     1      -4.239  -1.641  23.298  0.00  0.00    -0.166 F 
ATOM     17  F   UNL     1      -4.110  -2.926  24.325  0.00  0.00    -0.166 F 
ENDBRANCH  12  14
ENDBRANCH   7   8
ENDBRANCH   6   7
ENDBRANCH   5   6
TORSDOF 5
ENDMDL
MODEL 2
REMARK VINA RESULT:     -12.8      1.297      2.271
REMARK  Name = 
REMARK  5 active torsions:
REMARK  status: ('A' for Active; 'I' for Inactive)
REMARK    1  A    between atoms: C_4  and  C_20
REMARK    2  A    between atoms: C_5  and  N_6
REMARK    3  A    between atoms: N_6  and  C_7
REMARK    4  A    between atoms: C_7  and  C_8
REMARK    5  A    between atoms: C_12  and  C_14
REMARK                            x       y       z     vdW  Elec       q    Type
REMARK                         _______ _______ _______ _____ _____    ______ ____
ROOT
ATOM      1  O   UNL     1      -2.780   3.020  22.838  0.00  0.00    -0.220 OA
ATOM      2  C   UNL     1      -3.203   2.588  23.400  0.00  0.00    +0.184 C 
ATOM      3  C   UNL     1      -3.887   2.836  23.788  0.00  0.00    +0.041 C 
ATOM      4  C   UNL     1      -4.123   2.234  24.300  0.00  0.00    +0.044 C 
ATOM      5  C   UNL     1      -3.584   1.613  24.229  0.00  0.00    +0.110 C 
ATOM     18  C   UNL     1      -3.015   1.832  23.672  0.00  0.00    +0.198 C 
ATOM     19  O   UNL     1      -2.372   1.374  23.431  0.00  0.00    -0.219 OA
ENDROOT
BRANCH   4  20
ATOM     20  C   UNL     1      -4.782   2.249  24.797  0.00  0.00    -0.021 A 
ATOM     21  C   UNL     1      -4.733   2.615  25.534  0.00  0.00    -0.004 A 
ATOM     22  C   UNL     1      -5.392   2.630  26.031  0.00  0.00    -0.000 A 
ATOM     23  C   UNL     1      -6.098   2.280  25.790  0.00  0.00    -0.000 A 
ATOM     24  C   UNL     1      -6.147   1.914  25.052  0.00  0.00    -0.000 A 
ATOM     25  C   UNL     1      -5.488   1.899  24.555  0.00  0.00    -0.004 A 
ENDBRANCH   4  20
BRANCH   5   6
ATOM      6  N   UNL     1      -3.610   0.899  24.641  0.00  0.00    -0.212 NA
BRANCH   6   7
ATOM      7  C   UNL     1      -3.163   0.257  24.380  0.00  0.00    +0.115 C 
BRANCH   7   8
ATOM      8  C   UNL     1      -3.310  -0.497  24.683  0.00  0.00    -0.005 A 
ATOM      9  C   UNL     1      -3.108  -0.676  25.461  0.00  0.00    -0.003 A 
ATOM     10  C   UNL     1      -3.255  -1.430  25.764  0.00  0.00    -0.000 A 
ATOM     11  C   UNL     1      -3.604  -2.005  25.286  0.00  0.00    +0.004 A 
ATOM     12  C   UNL     1      -3.807  -1.826  24.506  0.00  0.00    +0.071 A 
ATOM     13  C   UNL     1      -3.659  -1.073  24.205  0.00  0.00    +0.001 A 
BRANCH  12  14
ATOM     14  C   UNL     1      -4.155  -2.401  24.029  0.00  0.00    +0.419 C 
ATOM     15  F   UNL     1      -4.505  -2.976  23.551  0.00  0.00    -0.166 F 
ATOM     16  F   UNL     1      -3.500  -2.889  24.137  0.00  0.00    -0.166 F 
ATOM     17  F   UNL     1      -4.812  -1.912  23.921  0.00  0.00    -0.166 F 
ENDBRANCH  12  14
ENDBRANCH   7   8
ENDBRANCH   6   7
ENDBRANCH   5   6
TORSDOF 5
ENDMDL
MODEL 3
REMARK VINA RESULT:     -12.4      1.756      2.449
REMARK  Name = 
REMARK  5 active torsions:
REMARK  status: ('A' for Active; 'I' for Inactive)
REMARK    1  A    between atoms: C_4  and  C_20
REMARK    2  A    between atoms: C_5  and  N_6
REMARK    3  A    between atoms: N_6  and  C_7
REMARK    4  A    between atoms: C_7  and  C_8
REMARK    5  A    between atoms: C_12  and  C_14
REMARK                            x       y       z     vdW  Elec       q    Type
REMARK                         _______ _______ _______ _____ _____    ______ ____
ROOT
ATOM      1  O   UNL     1      -0.068   2.462  24.145  0.00  0.00    -0.220 OA
ATOM      2  C   UNL     1      -0.844   2.235  24.315  0.00  0.00    +0.184 C 
ATOM      3  C   UNL     1      -1.513   2.712  24.251  0.00  0.00    +0.041 C 
ATOM      4  C   UNL     1      -2.168   2.263  24.475  0.00  0.00    +0.044 C 
ATOM      5  C   UNL     1      -1.903   1.509  24.679  0.00  0.00    +0.110 C 
ATOM     18  C   UNL     1      -1.084   1.491  24.580  0.00  0.00    +0.198 C 
ATOM     19  O   UNL     1      -0.593   0.843  24.722  0.00  0.00    -0.219 OA
ENDROOT
BRANCH   4  20
ATOM     20  C   UNL     1      -2.952   2.523  24.493  0.00  0.00    -0.021 A 
ATOM     21  C   UNL     1      -3.269   2.824  25.192  0.00  0.00    -0.004 A 
ATOM     22  C   UNL     1      -4.053   3.083  25.210  0.00  0.00    -0.000 A 
ATOM     23  C   UNL     1      -4.517   3.042  24.531  0.00  0.00    -0.000 A 
ATOM     24  C   UNL     1      -4.199   2.741  23.831  0.00  0.00    -0.000 A 
ATOM     25  C   UNL     1      -3.415   2.481  23.813  0.00  0.00    -0.004 A 
ENDBRANCH   4  20
BRANCH   5   6
ATOM      6  N   UNL     1      -2.374   0.882  24.936  0.00  0.00    -0.212 NA
BRANCH   6   7
ATOM      7  C   UNL     1      -2.173   0.107  24.737  0.00  0.00    +0.115 C 
BRANCH   7   8
ATOM      8  C   UNL     1      -2.679  -0.514  24.939  0.00  0.00    -0.005 A 
ATOM      9  C   UNL     1      -2.724  -0.772  25.720  0.00  0.00    -0.003 A 
ATOM     10  C   UNL     1      -3.229  -1.393  25.921  0.00  0.00    -0.000 A 
ATOM     11  C   UNL     1      -3.688  -1.756  25.341  0.00  0.00    +0.004 A 
ATOM     12  C   UNL     1      -3.643  -1.497  24.558  0.00  0.00    +0.071 A 
ATOM     13  C   UNL     1      -3.139  -0.877  24.357  0.00  0.00    +0.001 A 
BRANCH  12  14
ATOM     14  C   UNL     1      -4.103  -1.860  23.977  0.00  0.00    +0.419 C 
ATOM     15  F   UNL     1      -4.564  -2.222  23.396  0.00  0.00    -0.166 F 
ATOM     16  F   UNL     1      -3.589  -2.504  23.973  0.00  0.00    -0.166 F 
ATOM     17  F   UNL     1      -4.618  -1.214  23.982  0.00  0.00    -0.166 F 
ENDBRANCH  12  14
ENDBRANCH   7   8
ENDBRANCH   6   7
ENDBRANCH   5   6
TORSDOF 5
ENDMDL
MODEL 4
REMARK VINA RESULT:     -12.3      2.515      4.104
REMARK  Name = 
REMARK  5 active torsions:
REMARK  status: ('A' for Active; 'I' for Inactive)
REMARK    1  A    between atoms: C_4  and  C_20
REMARK    2  A    between atoms: C_5  and  N_6
REMARK    3  A    between atoms: N_6  and  C_7
REMARK    4  A    between atoms: C_7  and  C_8
REMARK    5  A    between atoms: C_12  and  C_14
REMARK                            x       y       z     vdW  Elec       q    Type
REMARK                         _______ _______ _______ _____ _____    ______ ____
ROOT
ATOM      1  O   UNL     1      -5.983   2.295  25.052  0.00  0.00    -0.220 OA
ATOM      2  C   UNL     1      -5.296   1.846  24.957  0.00  0.00    +0.184 C 
ATOM      3  C   UNL     1      -5.249   1.024  24.974  0.00  0.00    +0.041 C 
ATOM      4  C   UNL     1      -4.461   0.811  24.856  0.00  0.00    +0.044 C 
ATOM      5  C   UNL     1      -4.021   1.503  24.766  0.00  0.00    +0.110 C 
ATOM     18  C   UNL     1      -4.538   2.144  24.829  0.00  0.00    +0.198 C 
ATOM     19  O   UNL     1      -4.331   2.940  24.772  0.00  0.00    -0.219 OA
ENDROOT
BRANCH   4  20
ATOM     20  C   UNL     1      -4.164   0.041  24.832  0.00  0.00    -0.021 A 
ATOM     21  C   UNL     1      -3.911  -0.324  25.527  0.00  0.00    -0.004 A 
ATOM     22  C   UNL     1      -3.614  -1.094  25.503  0.00  0.00    -0.000 A 
ATOM     23  C   UNL     1      -3.570  -1.497  24.785  0.00  0.00    -0.000 A 
ATOM     24  C   UNL     1      -3.823  -1.131  24.090  0.00  0.00    -0.000 A 
ATOM     25  C   UNL     1      -4.120  -0.361  24.114  0.00  0.00    -0.004 A 
ENDBRANCH   4  20
BRANCH   5   6
ATOM      6  N   UNL     1      -3.207   1.548  24.636  0.00  0.00    -0.212 NA
BRANCH   6   7
ATOM      7  C   UNL     1      -2.798   2.240  24.818  0.00  0.00    +0.115 C 
BRANCH   7   8
ATOM      8  C   UNL     1      -1.974   2.254  24.782  0.00  0.00    -0.005 A 
ATOM      9  C   UNL     1      -1.591   2.169  24.056  0.00  0.00    -0.003 A 
ATOM     10  C   UNL     1      -0.767   2.183  24.020  0.00  0.00    -0.000 A 
ATOM     11  C   UNL     1      -0.325   2.281  24.709  0.00  0.00    +0.004 A 
ATOM     12  C   UNL     1      -0.708   2.365  25.436  0.00  0.00    +0.071 A 
ATOM     13  C   UNL     1      -1.531   2.352  25.472  0.00  0.00    +0.001 A 
BRANCH  12  14
ATOM     14  C   UNL     1      -0.266   2.463  26.125  0.00  0.00    +0.419 C 
ATOM     15  F   UNL     1       0.176   2.561  26.815  0.00  0.00    -0.166 F 
ATOM     16  F   UNL     1      -0.305   1.651  26.265  0.00  0.00    -0.166 F 
ATOM     17  F   UNL     1      -0.227   3.275  25.985  0.00  0.00    -0.166 F 
ENDBRANCH  12  14
ENDBRANCH   7   8
ENDBRANCH   6   7
ENDBRANCH   5   6
TORSDOF 5
ENDMDL
MODEL 5
REMARK VINA RESULT:     -11.8      2.333      4.161
REMARK  Name = 
REMARK  5 active torsions:
REMARK  status: ('A' for Active; 'I' for Inactive)
REMARK    1  A    between atoms: C_4  and  C_20
REMARK    2  A    between atoms: C_5  and  N_6
REMARK    3  A    between atoms: N_6  and  C_7
REMARK    4  A    between atoms: C_7  and  C_8
REMARK    5  A    between atoms: C_12  and  C_14
REMARK                            x       y       z     vdW  Elec       q    Type
REMARK                         _______ _______ _______ _____ _____    ______ ____
ROOT
ATOM      1  O   UNL     1      -0.244   0.743  23.897  0.00  0.00    -0.220 OA
ATOM      2  C   UNL     1      -1.000   0.619  24.206  0.00  0.00    +0.184 C 
ATOM      3  C   UNL     1      -1.351  -0.113  24.348  0.00  0.00    +0.041 C 
ATOM      4  C   UNL     1      -2.105   0.021  24.656  0.00  0.00    +0.044 C 
ATOM      5  C   UNL     1      -2.219   0.837  24.704  0.00  0.00    +0.110 C 
ATOM     18  C   UNL     1      -1.536   1.207  24.425  0.00  0.00    +0.198 C 
ATOM     19  O   UNL     1      -1.412   2.021  24.376  0.00  0.00    -0.219 OA
ENDROOT
BRANCH   4  20
ATOM     20  C   UNL     1      -2.649  -0.559  24.877  0.00  0.00    -0.021 A 
ATOM     21  C   UNL     1      -3.129  -0.912  24.307  0.00  0.00    -0.004 A 
ATOM     22  C   UNL     1      -3.673  -1.492  24.528  0.00  0.00    -0.000 A 
ATOM     23  C   UNL     1      -3.737  -1.718  25.318  0.00  0.00    -0.000 A 
ATOM     24  C   UNL     1      -3.256  -1.364  25.889  0.00  0.00    -0.000 A 
ATOM     25  C   UNL     1      -2.712  -0.784  25.668  0.00  0.00    -0.004 A 
ENDBRANCH   4  20
BRANCH   5   6
ATOM      6  N   UNL     1      -2.898   1.216  24.982  0.00  0.00    -0.212 NA
BRANCH   6   7
ATOM      7  C   UNL     1      -3.130   1.937  24.655  0.00  0.00    +0.115 C 
BRANCH   7   8
ATOM      8  C   UNL     1      -3.807   2.317  24.934  0.00  0.00    -0.005 A 
ATOM      9  C   UNL     1      -3.745   3.050  25.305  0.00  0.00    -0.003 A 
ATOM     10  C   UNL     1      -4.423   3.430  25.584  0.00  0.00    -0.000 A 
ATOM     11  C   UNL     1      -5.162   3.076  25.492  0.00  0.00    +0.004 A 
ATOM     12  C   UNL     1      -5.224   2.342  25.120  0.00  0.00    +0.071 A 
ATOM     13  C   UNL     1      -4.547   1.962  24.841  0.00  0.00    +0.001 A 
BRANCH  12  14
ATOM     14  C   UNL     1      -5.963   1.987  25.028  0.00  0.00    +0.419 C 
ATOM     15  F   UNL     1      -6.703   1.633  24.935  0.00  0.00    -0.166 F 
ATOM     16  F   UNL     1      -5.955   1.763  25.821  0.00  0.00    -0.166 F 
ATOM     17  F   UNL     1      -5.971   2.212  24.233  0.00  0.00    -0.166 F 
ENDBRANCH  12  14
ENDBRANCH   7   8
ENDBRANCH   6   7
ENDBRANCH   5   6
TORSDOF 5
ENDMDL
