MODEL 1
REMARK VINA RESULT:     -15.0      0.000      0.000
REMARK  Name = 
REMARK  5 active torsions:
REMARK  status: ('A' for Active; 'I' for Inactive)
REMARK    1  A    between atoms: O_2  and  C_3
REMARK    2  A    between atoms: C_5  and  O_6
REMARK    3  A    between atoms: C_9  and  N_10
REMARK    4  A    between atoms: C_22  and  N_23
REMARK    5  A    between atoms: C_24  and  C_26
REMARK                            x       y       z     vdW  Elec       q    Type
REMARK                         _______ _______ _______ _____ _____    ______ ____
ROOT
ATOM     10  N   UNL     1      -3.246   0.086  24.343  0.00  0.00    -0.162 NA
ATOM     11  C   UNL     1      -3.881  -0.345  24.039  0.00  0.00    +0.327 C 
ATOM     12  O   UNL     1      -4.459   0.032  23.588  0.00  0.00    -0.250 OA
ATOM     13  N   UNL     1      -3.937  -1.156  24.187  0.00  0.00    -0.262 N 
ATOM     14  C   UNL     1      -4.246  -1.932  24.167  0.00  0.00    +0.097 C 
ATOM     15  C   UNL     1      -3.560  -2.397  24.706  0.00  0.00    +0.043 C 
ATOM     16  C   UNL     1      -3.091  -2.917  25.120  0.00  0.00    +0.011 C 
ATOM     17  C   UNL     1      -3.094  -2.233  24.964  0.00  0.00    +0.058 C 
ATOM     18  C   UNL     1      -3.764  -1.798  24.441  0.00  0.00    +0.101 C 
ATOM     19  C   UNL     1      -2.612  -1.462  25.094  0.00  0.00    +0.041 A 
ATOM     20  C   UNL     1      -1.927  -1.189  25.466  0.00  0.00    +0.014 A 
ATOM     21  C   UNL     1      -1.721  -0.392  25.416  0.00  0.00    +0.023 A 
ATOM     22  C   UNL     1      -2.199   0.133  24.995  0.00  0.00    +0.130 A 
ATOM     32  C   UNL     1      -2.883  -0.140  24.624  0.00  0.00    +0.276 A 
ATOM     33  O   UNL     1      -2.967   0.647  24.393  0.00  0.00    -0.266 OA
ATOM     34  N   UNL     1      -3.090  -0.937  24.674  0.00  0.00    -0.298 N 
ATOM     35  C   UNL     1      -3.063  -1.586  24.837  0.00  0.00    +0.110 C 
ENDROOT
BRANCH  10   9
ATOM      3  C   UNL     1      -2.730   1.977  23.383  0.00  0.00    +0.143 A 
ATOM      4  C   UNL     1      -3.081   2.516  23.901  0.00  0.00    +0.074 A 
ATOM      5  C   UNL     1      -3.486   2.245  24.566  0.00  0.00    +0.143 A 
ATOM      8  C   UNL     1      -3.542   1.434  24.713  0.00  0.00    +0.054 A 
ATOM      9  C   UNL     1      -3.191   0.896  24.196  0.00  0.00    +0.081 A 
ATOM     36  C   UNL     1      -2.785   1.168  23.531  0.00  0.00    +0.054 A 
BRANCH   3   2
ATOM      1  C   UNL     1      -2.725   2.362  22.007  0.00  0.00    +0.252 C 
ATOM      2  O   UNL     1      -2.324   2.249  22.719  0.00  0.00    -0.471 OA
ENDBRANCH   3   2
BRANCH   5   6
ATOM      6  O   UNL     1      -3.837   2.782  25.084  0.00  0.00    -0.471 OA
ATOM      7  C   UNL     1      -4.557   3.134  24.887  0.00  0.00    +0.252 C 
ENDBRANCH   5   6
ENDBRANCH  10   9
BRANCH  22  23
ATOM     23  N   UNL     1      -1.992   0.929  24.946  0.00  0.00    -0.171 NA
ATOM     24  C   UNL     1      -1.306   1.201  25.315  0.00  0.00    +0.269 C 
ATOM     25  O   UNL     1      -0.827   0.676  25.733  0.00  0.00    -0.268 OA
BRANCH  24  26
ATOM     26  C   UNL     1      -1.099   1.999  25.265  0.00  0.00    +0.055 A 
ATOM     27  C   UNL     1      -0.620   2.263  24.647  0.00  0.00    +0.005 A 
ATOM     28  C   UNL     1      -0.413   3.061  24.598  0.00  0.00    +0.000 A 
ATOM     29  C   UNL     1      -0.686   3.593  25.167  0.00  0.00    +0.000 A 
ATOM     30  C   UNL     1      -1.165   3.329  25.783  0.00  0.00    +0.000 A 
ATOM     31  C   UNL     1      -1.372   2.532  25.833  0.00  0.00    +0.005 A 
ENDBRANCH  24  26
ENDBRANCH  22  23
TORSDOF 5
ENDMDL
MODEL 2
REMARK VINA RESULT:     -14.7      1.001      2.266
REMARK  Name = 
REMARK  5 active torsions:
REMARK  status: ('A' for Active; 'I' for Inactive)
REMARK    1  A    between atoms: O_2  and  C_3
REMARK    2  A    between atoms: C_5  and  O_6
REMARK    3  A    between atoms: C_9  and  N_10
REMARK    4  A    between atoms: C_22  and  N_23
REMARK    5  A    between atoms: C_24  and  C_26
REMARK                            x       y       z     vdW  Elec       q    Type
REMARK                         _______ _______ _______ _____ _____    ______ ____
ROOT
ATOM     10  N   UNL     1      -2.308  -0.172  24.569  0.00  0.00    -0.162 NA
ATOM     11  C   UNL     1      -1.739  -0.768  24.516  0.00  0.00    +0.327 C 
ATOM     12  O   UNL     1      -0.941  -0.572  24.441  0.00  0.00    -0.250 OA
ATOM     13  N   UNL     1      -1.968  -1.561  24.537  0.00  0.00    -0.262 N 
ATOM     14  C   UNL     1      -1.896  -2.393  24.530  0.00  0.00    +0.097 C 
ATOM     15  C   UNL     1      -2.848  -2.642  24.620  0.00  0.00    +0.043 C 
ATOM     16  C   UNL     1      -3.574  -3.006  24.688  0.00  0.00    +0.011 C 
ATOM     17  C   UNL     1      -3.322  -2.352  24.665  0.00  0.00    +0.058 C 
ATOM     18  C   UNL     1      -2.398  -2.127  24.578  0.00  0.00    +0.101 C 
ATOM     19  C   UNL     1      -3.594  -1.474  24.690  0.00  0.00    +0.041 A 
ATOM     20  C   UNL     1      -4.277  -1.017  24.755  0.00  0.00    +0.014 A 
ATOM     21  C   UNL     1      -4.224  -0.193  24.750  0.00  0.00    +0.023 A 
ATOM     22  C   UNL     1      -3.488   0.173  24.680  0.00  0.00    +0.130 A 
ATOM     32  C   UNL     1      -2.804  -0.285  24.616  0.00  0.00    +0.276 A 
ATOM     33  O   UNL     1      -2.423   0.445  24.580  0.00  0.00    -0.266 OA
ATOM     34  N   UNL     1      -2.857  -1.108  24.621  0.00  0.00    -0.298 N 
ATOM     35  C   UNL     1      -3.122  -1.722  24.646  0.00  0.00    +0.110 C 
ENDROOT
BRANCH  10   9
ATOM      3  C   UNL     1      -1.821   1.814  23.807  0.00  0.00    +0.143 A 
ATOM      4  C   UNL     1      -1.618   2.204  24.506  0.00  0.00    +0.074 A 
ATOM      5  C   UNL     1      -1.644   1.801  25.226  0.00  0.00    +0.143 A 
ATOM      8  C   UNL     1      -1.874   1.009  25.247  0.00  0.00    +0.054 A 
ATOM      9  C   UNL     1      -2.078   0.619  24.548  0.00  0.00    +0.081 A 
ATOM     36  C   UNL     1      -2.051   1.023  23.829  0.00  0.00    +0.054 A 
BRANCH   3   2
ATOM      1  C   UNL     1      -1.072   2.343  22.712  0.00  0.00    +0.252 C 
ATOM      2  O   UNL     1      -1.794   2.218  23.089  0.00  0.00    -0.471 OA
ENDBRANCH   3   2
BRANCH   5   6
ATOM      6  O   UNL     1      -1.441   2.190  25.924  0.00  0.00    -0.471 OA
ATOM      7  C   UNL     1      -0.653   2.383  26.074  0.00  0.00    +0.252 C 
ENDBRANCH   5   6
ENDBRANCH  10   9
BRANCH  22  23
ATOM     23  N   UNL     1      -3.436   0.995  24.676  0.00  0.00    -0.171 NA
ATOM     24  C   UNL     1      -4.118   1.453  24.746  0.00  0.00    +0.269 C 
ATOM     25  O   UNL     1      -4.854   1.087  24.821  0.00  0.00    -0.268 OA
BRANCH  24  26
ATOM     26  C   UNL     1      -4.066   2.277  24.741  0.00  0.00    +0.055 A 
ATOM     27  C   UNL     1      -3.979   2.688  25.451  0.00  0.00    +0.005 A 
ATOM     28  C   UNL     1      -3.926   3.512  25.446  0.00  0.00    +0.000 A 
ATOM     29  C   UNL     1      -3.960   3.923  24.731  0.00  0.00    +0.000 A 
ATOM     30  C   UNL     1      -4.046   3.511  24.022  0.00  0.00    +0.000 A 
ATOM     31  C   UNL     1      -4.099   2.688  24.027  0.00  0.00    +0.005 A 
ENDBRANCH  24  26
ENDBRANCH  22  23
TORSDOF 5
ENDMDL
MODEL 3
REMARK VINA RESULT:     -14.7      1.001      2.479
REMARK  Name = 
REMARK  5 active torsions:
REMARK  status: ('A' for Active; 'I' for Inactive)
REMARK    1  A    between atoms: O_2  and  C_3
REMARK    2  A    between atoms: C_5  and  O_6
REMARK    3  A    between atoms: C_9  and  N_10
REMARK    4  A    between atoms: C_22  and  N_23
REMARK    5  A    between atoms: C_24  and  C_26
REMARK                            x       y       z     vdW  Elec       q    Type
REMARK                         _______ _______ _______ _____ _____    ______ ____
ROOT
ATOM     10  N   UNL     1      -2.308  -0.171  24.571  0.00  0.00    -0.162 NA
ATOM     11  C   UNL     1      -1.739  -0.767  24.517  0.00  0.00    +0.327 C 
ATOM     12  O   UNL     1      -0.941  -0.570  24.442  0.00  0.00    -0.250 OA
ATOM     13  N   UNL     1      -1.968  -1.560  24.538  0.00  0.00    -0.262 N 
ATOM     14  C   UNL     1      -1.896  -2.392  24.532  0.00  0.00    +0.097 C 
ATOM     15  C   UNL     1      -2.848  -2.641  24.621  0.00  0.00    +0.043 C 
ATOM     16  C   UNL     1      -3.573  -3.006  24.688  0.00  0.00    +0.011 C 
ATOM     17  C   UNL     1      -3.322  -2.351  24.665  0.00  0.00    +0.058 C 
ATOM     18  C   UNL     1      -2.398  -2.126  24.579  0.00  0.00    +0.101 C 
ATOM     19  C   UNL     1      -3.594  -1.473  24.691  0.00  0.00    +0.041 A 
ATOM     20  C   UNL     1      -4.277  -1.016  24.755  0.00  0.00    +0.014 A 
ATOM     21  C   UNL     1      -4.224  -0.193  24.750  0.00  0.00    +0.023 A 
ATOM     22  C   UNL     1      -3.488   0.173  24.681  0.00  0.00    +0.130 A 
ATOM     32  C   UNL     1      -2.805  -0.284  24.617  0.00  0.00    +0.276 A 
ATOM     33  O   UNL     1      -2.423   0.446  24.581  0.00  0.00    -0.266 OA
ATOM     34  N   UNL     1      -2.857  -1.107  24.622  0.00  0.00    -0.298 N 
ATOM     35  C   UNL     1      -3.122  -1.721  24.646  0.00  0.00    +0.110 C 
ENDROOT
BRANCH  10   9
ATOM      3  C   UNL     1      -1.646   1.803  25.225  0.00  0.00    +0.143 A 
ATOM      4  C   UNL     1      -1.619   2.205  24.505  0.00  0.00    +0.074 A 
ATOM      5  C   UNL     1      -1.821   1.815  23.807  0.00  0.00    +0.143 A 
ATOM      8  C   UNL     1      -2.051   1.022  23.829  0.00  0.00    +0.054 A 
ATOM      9  C   UNL     1      -2.078   0.620  24.549  0.00  0.00    +0.081 A 
ATOM     36  C   UNL     1      -1.876   1.011  25.246  0.00  0.00    +0.054 A 
BRANCH   3   2
ATOM      1  C   UNL     1      -0.657   2.386  26.075  0.00  0.00    +0.252 C 
ATOM      2  O   UNL     1      -1.444   2.194  25.922  0.00  0.00    -0.471 OA
ENDBRANCH   3   2
BRANCH   5   6
ATOM      6  O   UNL     1      -1.794   2.216  23.087  0.00  0.00    -0.471 OA
ATOM      7  C   UNL     1      -1.069   2.343  22.713  0.00  0.00    +0.252 C 
ENDBRANCH   5   6
ENDBRANCH  10   9
BRANCH  22  23
ATOM     23  N   UNL     1      -3.436   0.996  24.676  0.00  0.00    -0.171 NA
ATOM     24  C   UNL     1      -4.119   1.453  24.746  0.00  0.00    +0.269 C 
ATOM     25  O   UNL     1      -4.855   1.087  24.821  0.00  0.00    -0.268 OA
BRANCH  24  26
ATOM     26  C   UNL     1      -4.066   2.278  24.742  0.00  0.00    +0.055 A 
ATOM     27  C   UNL     1      -3.980   2.689  25.452  0.00  0.00    +0.005 A 
ATOM     28  C   UNL     1      -3.928   3.513  25.447  0.00  0.00    +0.000 A 
ATOM     29  C   UNL     1      -3.961   3.924  24.732  0.00  0.00    +0.000 A 
ATOM     30  C   UNL     1      -4.047   3.512  24.023  0.00  0.00    +0.000 A 
ATOM     31  C   UNL     1      -4.100   2.689  24.027  0.00  0.00    +0.005 A 
ENDBRANCH  24  26
ENDBRANCH  22  23
TORSDOF 5
ENDMDL
MODEL 4
REMARK VINA RESULT:     -14.1      1.312      4.658
REMARK  Name = 
REMARK  5 active torsions:
REMARK  status: ('A' for Active; 'I' for Inactive)
REMARK    1  A    between atoms: O_2  and  C_3
REMARK    2  A    between atoms: C_5  and  O_6
REMARK    3  A    between atoms: C_9  and  N_10
REMARK    4  A    between atoms: C_22  and  N_23
REMARK    5  A    between atoms: C_24  and  C_26
REMARK                            x       y       z     vdW  Elec       q    Type
REMARK                         _______ _______ _______ _____ _____    ______ ____
ROOT
ATOM     10  N   UNL     1      -1.410   2.078  25.046  0.00  0.00    -0.162 NA
ATOM     11  C   UNL     1      -0.731   2.528  25.178  0.00  0.00    +0.327 C 
ATOM     12  O   UNL     1       0.002   2.157  25.249  0.00  0.00    -0.250 OA
ATOM     13  N   UNL     1      -0.785   3.349  25.239  0.00  0.00    -0.262 N 
ATOM     14  C   UNL     1      -0.538   4.141  25.339  0.00  0.00    +0.097 C 
ATOM     15  C   UNL     1      -1.410   4.598  25.256  0.00  0.00    +0.043 C 
ATOM     16  C   UNL     1      -2.037   5.116  25.212  0.00  0.00    +0.011 C 
ATOM     17  C   UNL     1      -1.932   4.424  25.169  0.00  0.00    +0.058 C 
ATOM     18  C   UNL     1      -1.082   3.996  25.251  0.00  0.00    +0.101 C 
ATOM     19  C   UNL     1      -2.383   3.633  25.040  0.00  0.00    +0.041 A 
ATOM     20  C   UNL     1      -3.144   3.344  24.911  0.00  0.00    +0.014 A 
ATOM     21  C   UNL     1      -3.268   2.533  24.826  0.00  0.00    +0.023 A 
ATOM     22  C   UNL     1      -2.631   2.011  24.871  0.00  0.00    +0.130 A 
ATOM     32  C   UNL     1      -1.869   2.300  25.001  0.00  0.00    +0.276 A 
ATOM     33  O   UNL     1      -1.654   1.505  24.965  0.00  0.00    -0.266 OA
ATOM     34  N   UNL     1      -1.745   3.111  25.086  0.00  0.00    -0.298 N 
ATOM     35  C   UNL     1      -1.872   3.767  25.123  0.00  0.00    +0.110 C 
ENDROOT
BRANCH  10   9
ATOM      3  C   UNL     1      -1.396  -0.034  25.594  0.00  0.00    +0.143 A 
ATOM      4  C   UNL     1      -1.246  -0.384  24.862  0.00  0.00    +0.074 A 
ATOM      5  C   UNL     1      -1.151   0.086  24.192  0.00  0.00    +0.143 A 
ATOM      8  C   UNL     1      -1.205   0.908  24.253  0.00  0.00    +0.054 A 
ATOM      9  C   UNL     1      -1.356   1.258  24.985  0.00  0.00    +0.081 A 
ATOM     36  C   UNL     1      -1.451   0.786  25.655  0.00  0.00    +0.054 A 
BRANCH   3   2
ATOM      1  C   UNL     1      -0.849  -0.919  26.574  0.00  0.00    +0.252 C 
ATOM      2  O   UNL     1      -1.492  -0.506  26.264  0.00  0.00    -0.471 OA
ENDBRANCH   3   2
BRANCH   5   6
ATOM      6  O   UNL     1      -1.001  -0.263  23.460  0.00  0.00    -0.471 OA
ATOM      7  C   UNL     1      -0.240  -0.527  23.278  0.00  0.00    +0.252 C 
ENDBRANCH   5   6
ENDBRANCH  10   9
BRANCH  22  23
ATOM     23  N   UNL     1      -2.755   1.200  24.786  0.00  0.00    -0.171 NA
ATOM     24  C   UNL     1      -3.516   0.911  24.655  0.00  0.00    +0.269 C 
ATOM     25  O   UNL     1      -4.154   1.433  24.608  0.00  0.00    -0.268 OA
BRANCH  24  26
ATOM     26  C   UNL     1      -3.641   0.099  24.570  0.00  0.00    +0.055 A 
ATOM     27  C   UNL     1      -3.618  -0.245  23.820  0.00  0.00    +0.005 A 
ATOM     28  C   UNL     1      -3.742  -1.057  23.735  0.00  0.00    +0.000 A 
ATOM     29  C   UNL     1      -3.889  -1.523  24.401  0.00  0.00    +0.000 A 
ATOM     30  C   UNL     1      -3.911  -1.179  25.149  0.00  0.00    +0.000 A 
ATOM     31  C   UNL     1      -3.787  -0.368  25.234  0.00  0.00    +0.005 A 
ENDBRANCH  24  26
ENDBRANCH  22  23
TORSDOF 5
ENDMDL
MODEL 5
REMARK VINA RESULT:     -13.7      1.270      4.417
REMARK  Name = 
REMARK  5 active torsions:
REMARK  status: ('A' for Active; 'I' for Inactive)
REMARK    1  A    between atoms: O_2  and  C_3
REMARK    2  A    between atoms: C_5  and  O_6
REMARK    3  A    between atoms: C_9  and  N_10
REMARK    4  A    between atoms: C_22  and  N_23
REMARK    5  A    between atoms: C_24  and  C_26
REMARK                            x       y       z     vdW  Elec       q    Type
REMARK                         _______ _______ _______ _____ _____    ______ ____
ROOT
ATOM     10  N   UNL     1      -2.473   1.506  24.911  0.00  0.00    -0.162 NA
ATOM     11  C   UNL     1      -2.040   2.205  24.990  0.00  0.00    +0.327 C 
ATOM     12  O   UNL     1      -1.224   2.174  25.105  0.00  0.00    -0.250 OA
ATOM     13  N   UNL     1      -2.424   2.934  24.953  0.00  0.00    -0.262 N 
ATOM     14  C   UNL     1      -2.523   3.764  24.959  0.00  0.00    +0.097 C 
ATOM     15  C   UNL     1      -3.500   3.815  24.820  0.00  0.00    +0.043 C 
ATOM     16  C   UNL     1      -4.279   4.025  24.714  0.00  0.00    +0.011 C 
ATOM     17  C   UNL     1      -3.902   3.435  24.754  0.00  0.00    +0.058 C 
ATOM     18  C   UNL     1      -2.957   3.402  24.888  0.00  0.00    +0.101 C 
ATOM     19  C   UNL     1      -3.988   2.521  24.719  0.00  0.00    +0.041 A 
ATOM     20  C   UNL     1      -4.561   1.935  24.623  0.00  0.00    +0.014 A 
ATOM     21  C   UNL     1      -4.342   1.139  24.635  0.00  0.00    +0.023 A 
ATOM     22  C   UNL     1      -3.551   0.930  24.743  0.00  0.00    +0.130 A 
ATOM     32  C   UNL     1      -2.979   1.516  24.839  0.00  0.00    +0.276 A 
ATOM     33  O   UNL     1      -2.460   0.878  24.898  0.00  0.00    -0.266 OA
ATOM     34  N   UNL     1      -3.198   2.311  24.827  0.00  0.00    -0.298 N 
ATOM     35  C   UNL     1      -3.580   2.859  24.786  0.00  0.00    +0.110 C 
ENDROOT
BRANCH  10   9
ATOM      3  C   UNL     1      -1.631  -0.344  25.707  0.00  0.00    +0.143 A 
ATOM      4  C   UNL     1      -1.319  -0.681  25.021  0.00  0.00    +0.074 A 
ATOM      5  C   UNL     1      -1.392  -0.289  24.299  0.00  0.00    +0.143 A 
ATOM      8  C   UNL     1      -1.777   0.440  24.262  0.00  0.00    +0.054 A 
ATOM      9  C   UNL     1      -2.088   0.777  24.948  0.00  0.00    +0.081 A 
ATOM     36  C   UNL     1      -2.015   0.385  25.670  0.00  0.00    +0.054 A 
BRANCH   3   2
ATOM      1  C   UNL     1      -0.829  -0.764  26.812  0.00  0.00    +0.252 C 
ATOM      2  O   UNL     1      -1.558  -0.736  26.428  0.00  0.00    -0.471 OA
ENDBRANCH   3   2
BRANCH   5   6
ATOM      6  O   UNL     1      -1.081  -0.625  23.613  0.00  0.00    -0.471 OA
ATOM      7  C   UNL     1      -0.264  -0.646  23.498  0.00  0.00    +0.252 C 
ENDBRANCH   5   6
ENDBRANCH  10   9
BRANCH  22  23
ATOM     23  N   UNL     1      -3.334   0.135  24.755  0.00  0.00    -0.171 NA
ATOM     24  C   UNL     1      -3.906  -0.452  24.663  0.00  0.00    +0.269 C 
ATOM     25  O   UNL     1      -4.698  -0.242  24.558  0.00  0.00    -0.268 OA
BRANCH  24  26
ATOM     26  C   UNL     1      -3.688  -1.248  24.675  0.00  0.00    +0.055 A 
ATOM     27  C   UNL     1      -3.515  -1.638  23.968  0.00  0.00    +0.005 A 
ATOM     28  C   UNL     1      -3.297  -2.434  23.980  0.00  0.00    +0.000 A 
ATOM     29  C   UNL     1      -3.252  -2.839  24.698  0.00  0.00    +0.000 A 
ATOM     30  C   UNL     1      -3.424  -2.448  25.403  0.00  0.00    +0.000 A 
ATOM     31  C   UNL     1      -3.643  -1.652  25.392  0.00  0.00    +0.005 A 
ENDBRANCH  24  26
ENDBRANCH  22  23
TORSDOF 5
ENDMDL
MODEL 6
REMARK VINA RESULT:     -13.5      1.382      3.429
REMARK  Name = 
REMARK  5 active torsions:
REMARK  status: ('A' for Active; 'I' for Inactive)
REMARK    1  A    between atoms: O_2  and  C_3
REMARK    2  A    between atoms: C_5  and  O_6
REMARK    3  A    between atoms: C_9  and  N_10
REMARK    4  A    between atoms: C_22  and  N_23
REMARK    5  A    between atoms: C_24  and  C_26
REMARK                            x       y       z     vdW  Elec       q    Type
REMARK                         _______ _______ _______ _____ _____    ______ ____
ROOT
ATOM     10  N   UNL     1      -3.251   1.799  24.869  0.00  0.00    -0.162 NA
ATOM     11  C   UNL     1      -3.514   2.576  24.776  0.00  0.00    +0.327 C 
ATOM     12  O   UNL     1      -2.974   3.179  24.620  0.00  0.00    -0.250 OA
ATOM     13  N   UNL     1      -4.319   2.750  24.838  0.00  0.00    -0.262 N 
ATOM     14  C   UNL     1      -5.019   3.204  24.845  0.00  0.00    +0.097 C 
ATOM     15  C   UNL     1      -5.678   2.492  25.031  0.00  0.00    +0.043 C 
ATOM     16  C   UNL     1      -6.333   2.031  25.178  0.00  0.00    +0.011 C 
ATOM     17  C   UNL     1      -5.640   1.941  25.114  0.00  0.00    +0.058 C 
ATOM     18  C   UNL     1      -5.016   2.641  24.934  0.00  0.00    +0.101 C 
ATOM     19  C   UNL     1      -4.992   1.291  25.144  0.00  0.00    +0.041 A 
ATOM     20  C   UNL     1      -4.903   0.480  25.262  0.00  0.00    +0.014 A 
ATOM     21  C   UNL     1      -4.153   0.138  25.232  0.00  0.00    +0.023 A 
ATOM     22  C   UNL     1      -3.491   0.608  25.084  0.00  0.00    +0.130 A 
ATOM     32  C   UNL     1      -3.579   1.419  24.965  0.00  0.00    +0.276 A 
ATOM     33  O   UNL     1      -2.760   1.407  24.875  0.00  0.00    -0.266 OA
ATOM     34  N   UNL     1      -4.330   1.761  24.996  0.00  0.00    -0.298 N 
ATOM     35  C   UNL     1      -4.993   1.819  25.061  0.00  0.00    +0.110 C 
ENDROOT
BRANCH  10   9
ATOM      3  C   UNL     1      -1.323   1.235  24.015  0.00  0.00    +0.143 A 
ATOM      4  C   UNL     1      -0.838   1.281  24.682  0.00  0.00    +0.074 A 
ATOM      5  C   UNL     1      -1.158   1.500  25.410  0.00  0.00    +0.143 A 
ATOM      8  C   UNL     1      -1.962   1.673  25.472  0.00  0.00    +0.054 A 
ATOM      9  C   UNL     1      -2.447   1.627  24.806  0.00  0.00    +0.081 A 
ATOM     36  C   UNL     1      -2.127   1.408  24.078  0.00  0.00    +0.054 A 
BRANCH   3   2
ATOM      1  C   UNL     1      -0.554   1.556  22.855  0.00  0.00    +0.252 C 
ATOM      2  O   UNL     1      -1.003   1.017  23.288  0.00  0.00    -0.471 OA
ENDBRANCH   3   2
BRANCH   5   6
ATOM      6  O   UNL     1      -0.674   1.546  26.076  0.00  0.00    -0.471 OA
ATOM      7  C   UNL     1      -0.190   2.205  26.190  0.00  0.00    +0.252 C 
ENDBRANCH   5   6
ENDBRANCH  10   9
BRANCH  22  23
ATOM     23  N   UNL     1      -2.742   0.265  25.054  0.00  0.00    -0.171 NA
ATOM     24  C   UNL     1      -2.651  -0.543  25.188  0.00  0.00    +0.269 C 
ATOM     25  O   UNL     1      -3.311  -1.010  25.353  0.00  0.00    -0.268 OA
BRANCH  24  26
ATOM     26  C   UNL     1      -1.900  -0.886  25.158  0.00  0.00    +0.055 A 
ATOM     27  C   UNL     1      -1.617  -1.195  24.447  0.00  0.00    +0.005 A 
ATOM     28  C   UNL     1      -0.866  -1.537  24.417  0.00  0.00    +0.000 A 
ATOM     29  C   UNL     1      -0.401  -1.570  25.098  0.00  0.00    +0.000 A 
ATOM     30  C   UNL     1      -0.685  -1.261  25.808  0.00  0.00    +0.000 A 
ATOM     31  C   UNL     1      -1.435  -0.919  25.838  0.00  0.00    +0.005 A 
ENDBRANCH  24  26
ENDBRANCH  22  23
TORSDOF 5
ENDMDL
