MODEL 1
REMARK VINA RESULT:      -8.5      0.000      0.000
REMARK  Name = 
REMARK  6 active torsions:
REMARK  status: ('A' for Active; 'I' for Inactive)
REMARK    1  A    between atoms: O_2  and  C_3
REMARK    2  A    between atoms: C_3  and  C_4
REMARK    3  A    between atoms: N_6  and  C_7
REMARK    4  A    between atoms: C_11  and  N_15
REMARK    5  A    between atoms: C_18  and  C_22
REMARK    6  A    between atoms: C_25  and  N_28
REMARK                            x       y       z     vdW  Elec       q    Type
REMARK                         _______ _______ _______ _____ _____    ______ ____
ROOT
ATOM     15  N   UNL     1      -1.023   1.331  24.596  0.00  0.00    -0.200 NA
ATOM     16  C   UNL     1      -1.556   1.960  24.581  0.00  0.00    +0.237 A 
ATOM     17  N   UNL     1      -2.353   1.831  24.747  0.00  0.00    -0.212 NA
ATOM     18  C   UNL     1      -2.886   2.461  24.732  0.00  0.00    +0.086 A 
ATOM     19  C   UNL     1      -2.621   3.221  24.551  0.00  0.00    +0.040 A 
ATOM     20  C   UNL     1      -1.823   3.351  24.386  0.00  0.00    +0.103 A 
ATOM     21  N   UNL     1      -1.291   2.720  24.401  0.00  0.00    -0.211 NA
ENDROOT
BRANCH  15  11
ATOM      7  C   UNL     1       1.468   0.894  23.404  0.00  0.00    +0.154 C 
ATOM      8  C   UNL     1       0.998   0.297  23.084  0.00  0.00    +0.166 C 
ATOM      9  O   UNL     1       0.240   0.372  23.401  0.00  0.00    -0.350 OA
ATOM     10  C   UNL     1       0.241   1.015  23.916  0.00  0.00    +0.166 C 
ATOM     11  C   UNL     1      -0.225   1.461  24.430  0.00  0.00    +0.154 C 
ATOM     12  C   UNL     1       0.245   2.058  24.750  0.00  0.00    +0.166 C 
ATOM     13  O   UNL     1       1.002   1.983  24.433  0.00  0.00    -0.350 OA
ATOM     14  C   UNL     1       1.000   1.338  23.918  0.00  0.00    +0.166 C 
BRANCH   7   6
ATOM      4  C   UNL     1       2.704   0.450  22.839  0.00  0.00    +0.272 C 
ATOM      5  O   UNL     1       2.342  -0.255  22.606  0.00  0.00    -0.271 OA
ATOM      6  N   UNL     1       2.266   1.024  23.238  0.00  0.00    -0.200 NA
BRANCH   4   3
ATOM      3  C   UNL     1       3.501   0.580  22.674  0.00  0.00    +0.229 C 
BRANCH   3   2
ATOM      1  C   UNL     1       4.863   0.337  23.028  0.00  0.00    +0.175 C 
ATOM      2  O   UNL     1       4.077   0.092  23.008  0.00  0.00    -0.342 OA
ENDBRANCH   3   2
ENDBRANCH   4   3
ENDBRANCH   7   6
ENDBRANCH  15  11
BRANCH  18  22
ATOM     22  C   UNL     1      -3.683   2.331  24.897  0.00  0.00    +0.018 A 
ATOM     23  C   UNL     1      -4.118   2.902  25.307  0.00  0.00    +0.003 A 
ATOM     24  C   UNL     1      -4.916   2.772  25.472  0.00  0.00    +0.015 A 
ATOM     25  C   UNL     1      -5.279   2.073  25.229  0.00  0.00    +0.048 A 
ATOM     26  C   UNL     1      -4.845   1.503  24.820  0.00  0.00    +0.015 A 
ATOM     27  C   UNL     1      -4.047   1.632  24.655  0.00  0.00    +0.003 A 
BRANCH  25  28
ATOM     28  N   UNL     1      -6.077   1.943  25.394  0.00  0.00    -0.304 N 
ATOM     29  C   UNL     1      -6.610   1.816  24.778  0.00  0.00    +0.112 C 
ATOM     30  C   UNL     1      -6.341   1.940  26.176  0.00  0.00    +0.112 C 
ENDBRANCH  25  28
ENDBRANCH  18  22
TORSDOF 6
ENDMDL
MODEL 2
REMARK VINA RESULT:      -7.1      2.322      6.806
REMARK  Name = 
REMARK  6 active torsions:
REMARK  status: ('A' for Active; 'I' for Inactive)
REMARK    1  A    between atoms: O_2  and  C_3
REMARK    2  A    between atoms: C_3  and  C_4
REMARK    3  A    between atoms: N_6  and  C_7
REMARK    4  A    between atoms: C_11  and  N_15
REMARK    5  A    between atoms: C_18  and  C_22
REMARK    6  A    between atoms: C_25  and  N_28
REMARK                            x       y       z     vdW  Elec       q    Type
REMARK                         _______ _______ _______ _____ _____    ______ ____
ROOT
ATOM     15  N   UNL     1      -1.714   1.506  23.324  0.00  0.00    -0.200 NA
ATOM     16  C   UNL     1      -1.167   0.956  23.604  0.00  0.00    +0.237 A 
ATOM     17  N   UNL     1      -0.393   0.960  23.319  0.00  0.00    -0.212 NA
ATOM     18  C   UNL     1       0.154   0.410  23.600  0.00  0.00    +0.086 A 
ATOM     19  C   UNL     1      -0.074  -0.146  24.165  0.00  0.00    +0.040 A 
ATOM     20  C   UNL     1      -0.849  -0.152  24.450  0.00  0.00    +0.103 A 
ATOM     21  N   UNL     1      -1.395   0.400  24.169  0.00  0.00    -0.211 NA
ENDROOT
BRANCH  15  11
ATOM      7  C   UNL     1      -4.060   2.545  24.434  0.00  0.00    +0.154 C 
ATOM      8  C   UNL     1      -3.560   3.200  24.402  0.00  0.00    +0.166 C 
ATOM      9  O   UNL     1      -2.841   2.956  24.079  0.00  0.00    -0.350 OA
ATOM     10  C   UNL     1      -2.897   2.151  23.912  0.00  0.00    +0.166 C 
ATOM     11  C   UNL     1      -2.488   1.501  23.609  0.00  0.00    +0.154 C 
ATOM     12  C   UNL     1      -2.988   0.846  23.641  0.00  0.00    +0.166 C 
ATOM     13  O   UNL     1      -3.707   1.091  23.963  0.00  0.00    -0.350 OA
ATOM     14  C   UNL     1      -3.651   1.897  24.131  0.00  0.00    +0.166 C 
BRANCH   7   6
ATOM      4  C   UNL     1      -5.011   2.896  25.442  0.00  0.00    +0.272 C 
ATOM      5  O   UNL     1      -4.411   3.257  25.880  0.00  0.00    -0.271 OA
ATOM      6  N   UNL     1      -4.834   2.540  24.719  0.00  0.00    -0.200 NA
BRANCH   4   3
ATOM      3  C   UNL     1      -5.784   2.891  25.727  0.00  0.00    +0.229 C 
BRANCH   3   2
ATOM      1  C   UNL     1      -6.591   2.055  26.559  0.00  0.00    +0.175 C 
ATOM      2  O   UNL     1      -5.950   2.565  26.467  0.00  0.00    -0.342 OA
ENDBRANCH   3   2
ENDBRANCH   4   3
ENDBRANCH   7   6
ENDBRANCH  15  11
BRANCH  18  22
ATOM     22  C   UNL     1       0.927   0.414  23.315  0.00  0.00    +0.018 A 
ATOM     23  C   UNL     1       1.469   0.970  23.600  0.00  0.00    +0.003 A 
ATOM     24  C   UNL     1       2.242   0.975  23.316  0.00  0.00    +0.015 A 
ATOM     25  C   UNL     1       2.477   0.425  22.746  0.00  0.00    +0.048 A 
ATOM     26  C   UNL     1       1.936  -0.129  22.462  0.00  0.00    +0.015 A 
ATOM     27  C   UNL     1       1.162  -0.134  22.746  0.00  0.00    +0.003 A 
BRANCH  25  28
ATOM     28  N   UNL     1       3.250   0.430  22.462  0.00  0.00    -0.304 N 
ATOM     29  C   UNL     1       3.407   0.190  21.688  0.00  0.00    +0.112 C 
ATOM     30  C   UNL     1       3.869   0.675  22.950  0.00  0.00    +0.112 C 
ENDBRANCH  25  28
ENDBRANCH  18  22
TORSDOF 6
ENDMDL
MODEL 3
REMARK VINA RESULT:      -6.5      1.790      7.102
REMARK  Name = 
REMARK  6 active torsions:
REMARK  status: ('A' for Active; 'I' for Inactive)
REMARK    1  A    between atoms: O_2  and  C_3
REMARK    2  A    between atoms: C_3  and  C_4
REMARK    3  A    between atoms: N_6  and  C_7
REMARK    4  A    between atoms: C_11  and  N_15
REMARK    5  A    between atoms: C_18  and  C_22
REMARK    6  A    between atoms: C_25  and  N_28
REMARK                            x       y       z     vdW  Elec       q    Type
REMARK                         _______ _______ _______ _____ _____    ______ ____
ROOT
ATOM     15  N   UNL     1       0.315   0.929  24.063  0.00  0.00    -0.200 NA
ATOM     16  C   UNL     1       0.773   0.544  23.494  0.00  0.00    +0.237 A 
ATOM     17  N   UNL     1       1.595   0.550  23.553  0.00  0.00    -0.212 NA
ATOM     18  C   UNL     1       2.053   0.165  22.984  0.00  0.00    +0.086 A 
ATOM     19  C   UNL     1       1.688  -0.224  22.356  0.00  0.00    +0.040 A 
ATOM     20  C   UNL     1       0.864  -0.229  22.296  0.00  0.00    +0.103 A 
ATOM     21  N   UNL     1       0.408   0.155  22.865  0.00  0.00    -0.211 NA
ENDROOT
BRANCH  15  11
ATOM      7  C   UNL     1      -2.271   1.988  23.971  0.00  0.00    +0.154 C 
ATOM      8  C   UNL     1      -1.796   2.656  24.065  0.00  0.00    +0.166 C 
ATOM      9  O   UNL     1      -1.010   2.407  24.099  0.00  0.00    -0.350 OA
ATOM     10  C   UNL     1      -0.999   1.586  24.027  0.00  0.00    +0.166 C 
ATOM     11  C   UNL     1      -0.508   0.923  24.003  0.00  0.00    +0.154 C 
ATOM     12  C   UNL     1      -0.983   0.256  23.910  0.00  0.00    +0.166 C 
ATOM     13  O   UNL     1      -1.768   0.505  23.875  0.00  0.00    -0.350 OA
ATOM     14  C   UNL     1      -1.779   1.327  23.948  0.00  0.00    +0.166 C 
BRANCH   7   6
ATOM      4  C   UNL     1      -3.548   2.433  24.432  0.00  0.00    +0.272 C 
ATOM      5  O   UNL     1      -3.179   2.889  25.013  0.00  0.00    -0.271 OA
ATOM      6  N   UNL     1      -3.094   1.983  23.911  0.00  0.00    -0.200 NA
BRANCH   4   3
ATOM      3  C   UNL     1      -4.371   2.428  24.373  0.00  0.00    +0.229 C 
BRANCH   3   2
ATOM      1  C   UNL     1      -5.644   2.237  24.992  0.00  0.00    +0.175 C 
ATOM      2  O   UNL     1      -4.834   2.377  25.054  0.00  0.00    -0.342 OA
ENDBRANCH   3   2
ENDBRANCH   4   3
ENDBRANCH   7   6
ENDBRANCH  15  11
BRANCH  18  22
ATOM     22  C   UNL     1       2.875   0.171  23.044  0.00  0.00    +0.018 A 
ATOM     23  C   UNL     1       3.271  -0.489  23.346  0.00  0.00    +0.003 A 
ATOM     24  C   UNL     1       4.094  -0.483  23.406  0.00  0.00    +0.015 A 
ATOM     25  C   UNL     1       4.521   0.179  23.163  0.00  0.00    +0.048 A 
ATOM     26  C   UNL     1       4.126   0.837  22.861  0.00  0.00    +0.015 A 
ATOM     27  C   UNL     1       3.303   0.832  22.802  0.00  0.00    +0.003 A 
BRANCH  25  28
ATOM     28  N   UNL     1       5.344   0.184  23.223  0.00  0.00    -0.304 N 
ATOM     29  C   UNL     1       5.708   0.542  23.871  0.00  0.00    +0.112 C 
ATOM     30  C   UNL     1       5.803  -0.168  22.634  0.00  0.00    +0.112 C 
ENDBRANCH  25  28
ENDBRANCH  18  22
TORSDOF 6
ENDMDL
MODEL 4
REMARK VINA RESULT:      -6.4     16.922     17.814
REMARK  Name = 
REMARK  6 active torsions:
REMARK  status: ('A' for Active; 'I' for Inactive)
REMARK    1  A    between atoms: O_2  and  C_3
REMARK    2  A    between atoms: C_3  and  C_4
REMARK    3  A    between atoms: N_6  and  C_7
REMARK    4  A    between atoms: C_11  and  N_15
REMARK    5  A    between atoms: C_18  and  C_22
REMARK    6  A    between atoms: C_25  and  N_28
REMARK                            x       y       z     vdW  Elec       q    Type
REMARK                         _______ _______ _______ _____ _____    ______ ____
ROOT
ATOM     15  N   UNL     1      -5.031 -10.131  11.150  0.00  0.00    -0.200 NA
ATOM     16  C   UNL     1      -5.191  -9.475  10.676  0.00  0.00    +0.237 A 
ATOM     17  N   UNL     1      -5.925  -9.402  10.308  0.00  0.00    -0.212 NA
ATOM     18  C   UNL     1      -6.086  -8.746   9.833  0.00  0.00    +0.086 A 
ATOM     19  C   UNL     1      -5.512  -8.164   9.727  0.00  0.00    +0.040 A 
ATOM     20  C   UNL     1      -4.777  -8.237  10.096  0.00  0.00    +0.103 A 
ATOM     21  N   UNL     1      -4.617  -8.892  10.570  0.00  0.00    -0.211 NA
ENDROOT
BRANCH  15  11
ATOM      7  C   UNL     1      -3.226 -10.557  13.243  0.00  0.00    +0.154 C 
ATOM      8  C   UNL     1      -3.961 -10.637  13.608  0.00  0.00    +0.166 C 
ATOM      9  O   UNL     1      -4.543 -10.521  13.035  0.00  0.00    -0.350 OA
ATOM     10  C   UNL     1      -4.169 -10.369  12.317  0.00  0.00    +0.166 C 
ATOM     11  C   UNL     1      -4.296 -10.203  11.519  0.00  0.00    +0.154 C 
ATOM     12  C   UNL     1      -3.561 -10.123  11.154  0.00  0.00    +0.166 C 
ATOM     13  O   UNL     1      -2.978 -10.240  11.726  0.00  0.00    -0.350 OA
ATOM     14  C   UNL     1      -3.354 -10.392  12.445  0.00  0.00    +0.166 C 
BRANCH   7   6
ATOM      4  C   UNL     1      -2.429 -10.545  14.430  0.00  0.00    +0.272 C 
ATOM      5  O   UNL     1      -3.103 -10.387  14.879  0.00  0.00    -0.271 OA
ATOM      6  N   UNL     1      -2.491 -10.630  13.611  0.00  0.00    -0.200 NA
BRANCH   4   3
ATOM      3  C   UNL     1      -1.695 -10.618  14.798  0.00  0.00    +0.229 C 
BRANCH   3   2
ATOM      1  C   UNL     1      -0.905 -10.606  15.989  0.00  0.00    +0.175 C 
ATOM      2  O   UNL     1      -1.620 -10.460  15.604  0.00  0.00    -0.342 OA
ENDBRANCH   3   2
ENDBRANCH   4   3
ENDBRANCH   7   6
ENDBRANCH  15  11
BRANCH  18  22
ATOM     22  C   UNL     1      -6.820  -8.673   9.465  0.00  0.00    +0.018 A 
ATOM     23  C   UNL     1      -7.501  -8.562   9.920  0.00  0.00    +0.003 A 
ATOM     24  C   UNL     1      -8.235  -8.489   9.552  0.00  0.00    +0.015 A 
ATOM     25  C   UNL     1      -8.290  -8.527   8.729  0.00  0.00    +0.048 A 
ATOM     26  C   UNL     1      -7.611  -8.638   8.275  0.00  0.00    +0.015 A 
ATOM     27  C   UNL     1      -6.876  -8.711   8.644  0.00  0.00    +0.003 A 
BRANCH  25  28
ATOM     28  N   UNL     1      -9.024  -8.454   8.361  0.00  0.00    -0.304 N 
ATOM     29  C   UNL     1      -9.435  -9.128   8.124  0.00  0.00    +0.112 C 
ATOM     30  C   UNL     1      -9.348  -7.706   8.230  0.00  0.00    +0.112 C 
ENDBRANCH  25  28
ENDBRANCH  18  22
TORSDOF 6
ENDMDL
MODEL 5
REMARK VINA RESULT:      -6.3     14.832     15.645
REMARK  Name = 
REMARK  6 active torsions:
REMARK  status: ('A' for Active; 'I' for Inactive)
REMARK    1  A    between atoms: O_2  and  C_3
REMARK    2  A    between atoms: C_3  and  C_4
REMARK    3  A    between atoms: N_6  and  C_7
REMARK    4  A    between atoms: C_11  and  N_15
REMARK    5  A    between atoms: C_18  and  C_22
REMARK    6  A    between atoms: C_25  and  N_28
REMARK                            x       y       z     vdW  Elec       q    Type
REMARK                         _______ _______ _______ _____ _____    ______ ____
ROOT
ATOM     15  N   UNL     1      -5.663 -10.528  14.801  0.00  0.00    -0.200 NA
ATOM     16  C   UNL     1      -5.769 -10.247  15.570  0.00  0.00    +0.237 A 
ATOM     17  N   UNL     1      -6.527 -10.192  15.889  0.00  0.00    -0.212 NA
ATOM     18  C   UNL     1      -6.633  -9.911  16.657  0.00  0.00    +0.086 A 
ATOM     19  C   UNL     1      -5.979  -9.684  17.106  0.00  0.00    +0.040 A 
ATOM     20  C   UNL     1      -5.220  -9.738  16.787  0.00  0.00    +0.103 A 
ATOM     21  N   UNL     1      -5.115 -10.020  16.019  0.00  0.00    -0.211 NA
ENDROOT
BRANCH  15  11
ATOM      7  C   UNL     1      -3.681 -10.427  12.833  0.00  0.00    +0.154 C 
ATOM      8  C   UNL     1      -4.367 -10.229  12.420  0.00  0.00    +0.166 C 
ATOM      9  O   UNL     1      -4.996 -10.241  12.953  0.00  0.00    -0.350 OA
ATOM     10  C   UNL     1      -4.700 -10.447  13.694  0.00  0.00    +0.166 C 
ATOM     11  C   UNL     1      -4.904 -10.582  14.482  0.00  0.00    +0.154 C 
ATOM     12  C   UNL     1      -4.218 -10.781  14.894  0.00  0.00    +0.166 C 
ATOM     13  O   UNL     1      -3.589 -10.769  14.361  0.00  0.00    -0.350 OA
ATOM     14  C   UNL     1      -3.886 -10.562  13.620  0.00  0.00    +0.166 C 
BRANCH   7   6
ATOM      4  C   UNL     1      -2.740 -10.090  11.810  0.00  0.00    +0.272 C 
ATOM      5  O   UNL     1      -3.319  -9.643  11.427  0.00  0.00    -0.271 OA
ATOM      6  N   UNL     1      -2.921 -10.482  12.513  0.00  0.00    -0.200 NA
BRANCH   4   3
ATOM      3  C   UNL     1      -1.982 -10.144  11.491  0.00  0.00    +0.229 C 
BRANCH   3   2
ATOM      1  C   UNL     1      -0.871  -9.336  11.096  0.00  0.00    +0.175 C 
ATOM      2  O   UNL     1      -1.674  -9.518  11.050  0.00  0.00    -0.342 OA
ENDBRANCH   3   2
ENDBRANCH   4   3
ENDBRANCH   7   6
ENDBRANCH  15  11
BRANCH  18  22
ATOM     22  C   UNL     1      -7.391  -9.856  16.977  0.00  0.00    +0.018 A 
ATOM     23  C   UNL     1      -7.642 -10.407  17.539  0.00  0.00    +0.003 A 
ATOM     24  C   UNL     1      -8.401 -10.353  17.858  0.00  0.00    +0.015 A 
ATOM     25  C   UNL     1      -8.908  -9.749  17.617  0.00  0.00    +0.048 A 
ATOM     26  C   UNL     1      -8.657  -9.199  17.055  0.00  0.00    +0.015 A 
ATOM     27  C   UNL     1      -7.898  -9.253  16.736  0.00  0.00    +0.003 A 
BRANCH  25  28
ATOM     28  N   UNL     1      -9.666  -9.695  17.936  0.00  0.00    -0.304 N 
ATOM     29  C   UNL     1     -10.105  -9.002  17.841  0.00  0.00    +0.112 C 
ATOM     30  C   UNL     1      -9.987 -10.332  18.350  0.00  0.00    +0.112 C 
ENDBRANCH  25  28
ENDBRANCH  18  22
TORSDOF 6
ENDMDL
MODEL 6
REMARK VINA RESULT:      -6.3     15.352     16.188
REMARK  Name = 
REMARK  6 active torsions:
REMARK  status: ('A' for Active; 'I' for Inactive)
REMARK    1  A    between atoms: O_2  and  C_3
REMARK    2  A    between atoms: C_3  and  C_4
REMARK    3  A    between atoms: N_6  and  C_7
REMARK    4  A    between atoms: C_11  and  N_15
REMARK    5  A    between atoms: C_18  and  C_22
REMARK    6  A    between atoms: C_25  and  N_28
REMARK                            x       y       z     vdW  Elec       q    Type
REMARK                         _______ _______ _______ _____ _____    ______ ____
ROOT
ATOM     15  N   UNL     1      -6.855 -10.203  14.407  0.00  0.00    -0.200 NA
ATOM     16  C   UNL     1      -6.723 -10.044  15.206  0.00  0.00    +0.237 A 
ATOM     17  N   UNL     1      -7.340 -10.114  15.749  0.00  0.00    -0.212 NA
ATOM     18  C   UNL     1      -7.207  -9.955  16.547  0.00  0.00    +0.086 A 
ATOM     19  C   UNL     1      -6.458  -9.726  16.803  0.00  0.00    +0.040 A 
ATOM     20  C   UNL     1      -5.840  -9.655  16.260  0.00  0.00    +0.103 A 
ATOM     21  N   UNL     1      -5.973  -9.814  15.462  0.00  0.00    -0.211 NA
ENDROOT
BRANCH  15  11
ATOM      7  C   UNL     1      -5.546  -9.358  12.086  0.00  0.00    +0.154 C 
ATOM      8  C   UNL     1      -6.293  -9.014  12.018  0.00  0.00    +0.166 C 
ATOM      9  O   UNL     1      -6.733  -9.229  12.681  0.00  0.00    -0.350 OA
ATOM     10  C   UNL     1      -6.259  -9.705  13.159  0.00  0.00    +0.166 C 
ATOM     11  C   UNL     1      -6.237 -10.132  13.864  0.00  0.00    +0.154 C 
ATOM     12  C   UNL     1      -5.491 -10.477  13.932  0.00  0.00    +0.166 C 
ATOM     13  O   UNL     1      -5.051 -10.262  13.269  0.00  0.00    -0.350 OA
ATOM     14  C   UNL     1      -5.526  -9.785  12.791  0.00  0.00    +0.166 C 
BRANCH   7   6
ATOM      4  C   UNL     1      -5.067  -8.954  10.801  0.00  0.00    +0.272 C 
ATOM      5  O   UNL     1      -5.824  -8.691  10.602  0.00  0.00    -0.271 OA
ATOM      6  N   UNL     1      -4.929  -9.288  11.543  0.00  0.00    -0.200 NA
BRANCH   4   3
ATOM      3  C   UNL     1      -4.450  -8.883  10.258  0.00  0.00    +0.229 C 
BRANCH   3   2
ATOM      1  C   UNL     1      -4.019  -8.895   8.896  0.00  0.00    +0.175 C 
ATOM      2  O   UNL     1      -4.615  -8.787   9.456  0.00  0.00    -0.342 OA
ENDBRANCH   3   2
ENDBRANCH   4   3
ENDBRANCH   7   6
ENDBRANCH  15  11
BRANCH  18  22
ATOM     22  C   UNL     1      -7.824 -10.026  17.090  0.00  0.00    +0.018 A 
ATOM     23  C   UNL     1      -8.366  -9.409  17.181  0.00  0.00    +0.003 A 
ATOM     24  C   UNL     1      -8.983  -9.479  17.724  0.00  0.00    +0.015 A 
ATOM     25  C   UNL     1      -9.059 -10.165  18.176  0.00  0.00    +0.048 A 
ATOM     26  C   UNL     1      -8.518 -10.781  18.084  0.00  0.00    +0.015 A 
ATOM     27  C   UNL     1      -7.901 -10.711  17.541  0.00  0.00    +0.003 A 
BRANCH  25  28
ATOM     28  N   UNL     1      -9.676 -10.236  18.718  0.00  0.00    -0.304 N 
ATOM     29  C   UNL     1      -9.581 -10.702  19.392  0.00  0.00    +0.112 C 
ATOM     30  C   UNL     1     -10.389  -9.840  18.587  0.00  0.00    +0.112 C 
ENDBRANCH  25  28
ENDBRANCH  18  22
TORSDOF 6
ENDMDL
MODEL 7
REMARK VINA RESULT:      -6.1     15.731     17.338
REMARK  Name = 
REMARK  6 active torsions:
REMARK  status: ('A' for Active; 'I' for Inactive)
REMARK    1  A    between atoms: O_2  and  C_3
REMARK    2  A    between atoms: C_3  and  C_4
REMARK    3  A    between atoms: N_6  and  C_7
REMARK    4  A    between atoms: C_11  and  N_15
REMARK    5  A    between atoms: C_18  and  C_22
REMARK    6  A    between atoms: C_25  and  N_28
REMARK                            x       y       z     vdW  Elec       q    Type
REMARK                         _______ _______ _______ _____ _____    ______ ____
ROOT
ATOM     15  N   UNL     1      -6.553 -10.062  14.301  0.00  0.00    -0.200 NA
ATOM     16  C   UNL     1      -6.705  -9.842  13.520  0.00  0.00    +0.237 A 
ATOM     17  N   UNL     1      -6.081  -9.747  12.990  0.00  0.00    -0.212 NA
ATOM     18  C   UNL     1      -6.232  -9.527  12.209  0.00  0.00    +0.086 A 
ATOM     19  C   UNL     1      -7.008  -9.403  11.959  0.00  0.00    +0.040 A 
ATOM     20  C   UNL     1      -7.633  -9.498  12.490  0.00  0.00    +0.103 A 
ATOM     21  N   UNL     1      -7.481  -9.717  13.270  0.00  0.00    -0.211 NA
ENDROOT
BRANCH  15  11
ATOM      7  C   UNL     1      -7.965  -9.786  16.698  0.00  0.00    +0.154 C 
ATOM      8  C   UNL     1      -7.264  -9.376  16.844  0.00  0.00    +0.166 C 
ATOM      9  O   UNL     1      -6.798  -9.421  16.165  0.00  0.00    -0.350 OA
ATOM     10  C   UNL     1      -7.210  -9.858  15.600  0.00  0.00    +0.166 C 
ATOM     11  C   UNL     1      -7.178 -10.157  14.832  0.00  0.00    +0.154 C 
ATOM     12  C   UNL     1      -7.879 -10.566  14.687  0.00  0.00    +0.166 C 
ATOM     13  O   UNL     1      -8.345 -10.521  15.366  0.00  0.00    -0.350 OA
ATOM     14  C   UNL     1      -7.932 -10.084  15.930  0.00  0.00    +0.166 C 
BRANCH   7   6
ATOM      4  C   UNL     1      -8.437 -10.081  18.015  0.00  0.00    +0.272 C 
ATOM      5  O   UNL     1      -7.659 -10.186  18.270  0.00  0.00    -0.271 OA
ATOM      6  N   UNL     1      -8.590  -9.881  17.229  0.00  0.00    -0.200 NA
BRANCH   4   3
ATOM      3  C   UNL     1      -9.061 -10.176  18.546  0.00  0.00    +0.229 C 
BRANCH   3   2
ATOM      1  C   UNL     1      -9.602 -10.781  19.721  0.00  0.00    +0.175 C 
ATOM      2  O   UNL     1      -9.003 -10.726  19.158  0.00  0.00    -0.342 OA
ENDBRANCH   3   2
ENDBRANCH   4   3
ENDBRANCH   7   6
ENDBRANCH  15  11
BRANCH  18  22
ATOM     22  C   UNL     1      -5.608  -9.432  11.679  0.00  0.00    +0.018 A 
ATOM     23  C   UNL     1      -5.132 -10.078  11.481  0.00  0.00    +0.003 A 
ATOM     24  C   UNL     1      -4.508  -9.983  10.951  0.00  0.00    +0.015 A 
ATOM     25  C   UNL     1      -4.358  -9.243  10.617  0.00  0.00    +0.048 A 
ATOM     26  C   UNL     1      -4.834  -8.599  10.814  0.00  0.00    +0.015 A 
ATOM     27  C   UNL     1      -5.458  -8.694  11.345  0.00  0.00    +0.003 A 
BRANCH  25  28
ATOM     28  N   UNL     1      -3.734  -9.148  10.086  0.00  0.00    -0.304 N 
ATOM     29  C   UNL     1      -2.960  -9.294  10.331  0.00  0.00    +0.112 C 
ATOM     30  C   UNL     1      -3.884  -8.908   9.312  0.00  0.00    +0.112 C 
ENDBRANCH  25  28
ENDBRANCH  18  22
TORSDOF 6
ENDMDL
MODEL 8
REMARK VINA RESULT:      -6.1     15.328     16.274
REMARK  Name = 
REMARK  6 active torsions:
REMARK  status: ('A' for Active; 'I' for Inactive)
REMARK    1  A    between atoms: O_2  and  C_3
REMARK    2  A    between atoms: C_3  and  C_4
REMARK    3  A    between atoms: N_6  and  C_7
REMARK    4  A    between atoms: C_11  and  N_15
REMARK    5  A    between atoms: C_18  and  C_22
REMARK    6  A    between atoms: C_25  and  N_28
REMARK                            x       y       z     vdW  Elec       q    Type
REMARK                         _______ _______ _______ _____ _____    ______ ____
ROOT
ATOM     15  N   UNL     1      -5.221 -10.349  14.322  0.00  0.00    -0.200 NA
ATOM     16  C   UNL     1      -4.805 -10.431  15.030  0.00  0.00    +0.237 A 
ATOM     17  N   UNL     1      -5.207 -10.418  15.749  0.00  0.00    -0.212 NA
ATOM     18  C   UNL     1      -4.791 -10.499  16.457  0.00  0.00    +0.086 A 
ATOM     19  C   UNL     1      -3.972 -10.593  16.445  0.00  0.00    +0.040 A 
ATOM     20  C   UNL     1      -3.568 -10.605  15.726  0.00  0.00    +0.103 A 
ATOM     21  N   UNL     1      -3.985 -10.524  15.018  0.00  0.00    -0.211 NA
ENDROOT
BRANCH  15  11
ATOM      7  C   UNL     1      -4.776  -9.855  11.607  0.00  0.00    +0.154 C 
ATOM      8  C   UNL     1      -5.517  -9.520  11.741  0.00  0.00    +0.166 C 
ATOM      9  O   UNL     1      -5.708  -9.634  12.535  0.00  0.00    -0.350 OA
ATOM     10  C   UNL     1      -5.085 -10.040  12.892  0.00  0.00    +0.166 C 
ATOM     11  C   UNL     1      -4.817 -10.362  13.602  0.00  0.00    +0.154 C 
ATOM     12  C   UNL     1      -4.076 -10.697  13.468  0.00  0.00    +0.166 C 
ATOM     13  O   UNL     1      -3.885 -10.583  12.674  0.00  0.00    -0.350 OA
ATOM     14  C   UNL     1      -4.509 -10.177  12.317  0.00  0.00    +0.166 C 
BRANCH   7   6
ATOM      4  C   UNL     1      -4.622  -9.386  10.265  0.00  0.00    +0.272 C 
ATOM      5  O   UNL     1      -5.277  -8.892  10.364  0.00  0.00    -0.271 OA
ATOM      6  N   UNL     1      -4.372  -9.868  10.887  0.00  0.00    -0.200 NA
BRANCH   4   3
ATOM      3  C   UNL     1      -4.220  -9.398   9.546  0.00  0.00    +0.229 C 
BRANCH   3   2
ATOM      1  C   UNL     1      -4.692  -9.677   8.226  0.00  0.00    +0.175 C 
ATOM      2  O   UNL     1      -4.599  -9.152   8.855  0.00  0.00    -0.342 OA
ENDBRANCH   3   2
ENDBRANCH   4   3
ENDBRANCH   7   6
ENDBRANCH  15  11
BRANCH  18  22
ATOM     22  C   UNL     1      -5.194 -10.487  17.177  0.00  0.00    +0.018 A 
ATOM     23  C   UNL     1      -5.963 -10.188  17.214  0.00  0.00    +0.003 A 
ATOM     24  C   UNL     1      -6.366 -10.175  17.933  0.00  0.00    +0.015 A 
ATOM     25  C   UNL     1      -6.002 -10.462  18.616  0.00  0.00    +0.048 A 
ATOM     26  C   UNL     1      -5.234 -10.762  18.578  0.00  0.00    +0.015 A 
ATOM     27  C   UNL     1      -4.830 -10.774  17.858  0.00  0.00    +0.003 A 
BRANCH  25  28
ATOM     28  N   UNL     1      -6.404 -10.450  19.335  0.00  0.00    -0.304 N 
ATOM     29  C   UNL     1      -5.991 -10.321  20.037  0.00  0.00    +0.112 C 
ATOM     30  C   UNL     1      -7.221 -10.567  19.353  0.00  0.00    +0.112 C 
ENDBRANCH  25  28
ENDBRANCH  18  22
TORSDOF 6
ENDMDL
MODEL 9
REMARK VINA RESULT:      -5.7     16.996     18.669
REMARK  Name = 
REMARK  6 active torsions:
REMARK  status: ('A' for Active; 'I' for Inactive)
REMARK    1  A    between atoms: O_2  and  C_3
REMARK    2  A    between atoms: C_3  and  C_4
REMARK    3  A    between atoms: N_6  and  C_7
REMARK    4  A    between atoms: C_11  and  N_15
REMARK    5  A    between atoms: C_18  and  C_22
REMARK    6  A    between atoms: C_25  and  N_28
REMARK                            x       y       z     vdW  Elec       q    Type
REMARK                         _______ _______ _______ _____ _____    ______ ____
ROOT
ATOM     15  N   UNL     1      12.803  -5.479  31.380  0.00  0.00    -0.200 NA
ATOM     16  C   UNL     1      13.620  -5.451  31.268  0.00  0.00    +0.237 A 
ATOM     17  N   UNL     1      14.025  -4.739  31.358  0.00  0.00    -0.212 NA
ATOM     18  C   UNL     1      14.842  -4.711  31.247  0.00  0.00    +0.086 A 
ATOM     19  C   UNL     1      15.254  -5.397  31.045  0.00  0.00    +0.040 A 
ATOM     20  C   UNL     1      14.849  -6.110  30.955  0.00  0.00    +0.103 A 
ATOM     21  N   UNL     1      14.032  -6.137  31.067  0.00  0.00    -0.211 NA
ENDROOT
BRANCH  15  11
ATOM      7  C   UNL     1      11.086  -7.575  32.071  0.00  0.00    +0.154 C 
ATOM      8  C   UNL     1      11.045  -7.074  32.725  0.00  0.00    +0.166 C 
ATOM      9  O   UNL     1      11.537  -6.428  32.581  0.00  0.00    -0.350 OA
ATOM     10  C   UNL     1      11.881  -6.529  31.839  0.00  0.00    +0.166 C 
ATOM     11  C   UNL     1      12.398  -6.193  31.290  0.00  0.00    +0.154 C 
ATOM     12  C   UNL     1      12.439  -6.694  30.636  0.00  0.00    +0.166 C 
ATOM     13  O   UNL     1      11.947  -7.340  30.781  0.00  0.00    -0.350 OA
ATOM     14  C   UNL     1      11.602  -7.239  31.524  0.00  0.00    +0.166 C 
BRANCH   7   6
ATOM      4  C   UNL     1       9.903  -8.358  32.246  0.00  0.00    +0.272 C 
ATOM      5  O   UNL     1       9.530  -7.713  32.602  0.00  0.00    -0.271 OA
ATOM      6  N   UNL     1      10.681  -8.289  31.981  0.00  0.00    -0.200 NA
BRANCH   4   3
ATOM      3  C   UNL     1       9.498  -9.071  32.156  0.00  0.00    +0.229 C 
BRANCH   3   2
ATOM      1  C   UNL     1       8.274  -9.783  31.968  0.00  0.00    +0.175 C 
ATOM      2  O   UNL     1       8.677  -9.071  32.068  0.00  0.00    -0.342 OA
ENDBRANCH   3   2
ENDBRANCH   4   3
ENDBRANCH   7   6
ENDBRANCH  15  11
BRANCH  18  22
ATOM     22  C   UNL     1      15.247  -3.999  31.337  0.00  0.00    +0.018 A 
ATOM     23  C   UNL     1      15.244  -3.612  32.067  0.00  0.00    +0.003 A 
ATOM     24  C   UNL     1      15.649  -2.899  32.157  0.00  0.00    +0.015 A 
ATOM     25  C   UNL     1      16.057  -2.572  31.518  0.00  0.00    +0.048 A 
ATOM     26  C   UNL     1      16.059  -2.958  30.789  0.00  0.00    +0.015 A 
ATOM     27  C   UNL     1      15.654  -3.672  30.699  0.00  0.00    +0.003 A 
BRANCH  25  28
ATOM     28  N   UNL     1      16.462  -1.860  31.608  0.00  0.00    -0.304 N 
ATOM     29  C   UNL     1      16.628  -1.572  32.363  0.00  0.00    +0.112 C 
ATOM     30  C   UNL     1      16.701  -1.434  30.943  0.00  0.00    +0.112 C 
ENDBRANCH  25  28
ENDBRANCH  18  22
TORSDOF 6
ENDMDL
MODEL 10
REMARK VINA RESULT:      -5.4     16.143     18.143
REMARK  Name = 
REMARK  6 active torsions:
REMARK  status: ('A' for Active; 'I' for Inactive)
REMARK    1  A    between atoms: O_2  and  C_3
REMARK    2  A    between atoms: C_3  and  C_4
REMARK    3  A    between atoms: N_6  and  C_7
REMARK    4  A    between atoms: C_11  and  N_15
REMARK    5  A    between atoms: C_18  and  C_22
REMARK    6  A    between atoms: C_25  and  N_28
REMARK                            x       y       z     vdW  Elec       q    Type
REMARK                         _______ _______ _______ _____ _____    ______ ____
ROOT
ATOM     15  N   UNL     1      11.740  -7.374  32.390  0.00  0.00    -0.200 NA
ATOM     16  C   UNL     1      12.166  -7.008  31.785  0.00  0.00    +0.237 A 
ATOM     17  N   UNL     1      12.699  -6.404  31.963  0.00  0.00    -0.212 NA
ATOM     18  C   UNL     1      13.125  -6.039  31.358  0.00  0.00    +0.086 A 
ATOM     19  C   UNL     1      13.018  -6.278  30.576  0.00  0.00    +0.040 A 
ATOM     20  C   UNL     1      12.485  -6.882  30.398  0.00  0.00    +0.103 A 
ATOM     21  N   UNL     1      12.060  -7.247  31.003  0.00  0.00    -0.211 NA
ENDROOT
BRANCH  15  11
ATOM      7  C   UNL     1       9.278  -8.694  32.288  0.00  0.00    +0.154 C 
ATOM      8  C   UNL     1       9.097  -7.987  32.673  0.00  0.00    +0.166 C 
ATOM      9  O   UNL     1       9.792  -7.547  32.734  0.00  0.00    -0.350 OA
ATOM     10  C   UNL     1      10.401  -7.981  32.388  0.00  0.00    +0.166 C 
ATOM     11  C   UNL     1      11.207  -7.979  32.212  0.00  0.00    +0.154 C 
ATOM     12  C   UNL     1      11.387  -8.686  31.827  0.00  0.00    +0.166 C 
ATOM     13  O   UNL     1      10.693  -9.126  31.766  0.00  0.00    -0.350 OA
ATOM     14  C   UNL     1      10.083  -8.691  32.112  0.00  0.00    +0.166 C 
BRANCH   7   6
ATOM      4  C   UNL     1       8.034  -9.124  31.729  0.00  0.00    +0.272 C 
ATOM      5  O   UNL     1       7.857  -8.344  31.526  0.00  0.00    -0.271 OA
ATOM      6  N   UNL     1       8.745  -9.299  32.110  0.00  0.00    -0.200 NA
BRANCH   4   3
ATOM      3  C   UNL     1       7.502  -9.728  31.551  0.00  0.00    +0.229 C 
BRANCH   3   2
ATOM      1  C   UNL     1       6.718 -10.390  30.557  0.00  0.00    +0.175 C 
ATOM      2  O   UNL     1       7.069  -9.704  30.849  0.00  0.00    -0.342 OA
ENDBRANCH   3   2
ENDBRANCH   4   3
ENDBRANCH   7   6
ENDBRANCH  15  11
BRANCH  18  22
ATOM     22  C   UNL     1      13.657  -5.435  31.535  0.00  0.00    +0.018 A 
ATOM     23  C   UNL     1      13.422  -4.806  32.017  0.00  0.00    +0.003 A 
ATOM     24  C   UNL     1      13.955  -4.202  32.194  0.00  0.00    +0.015 A 
ATOM     25  C   UNL     1      14.722  -4.225  31.891  0.00  0.00    +0.048 A 
ATOM     26  C   UNL     1      14.956  -4.853  31.410  0.00  0.00    +0.015 A 
ATOM     27  C   UNL     1      14.423  -5.458  31.232  0.00  0.00    +0.003 A 
BRANCH  25  28
ATOM     28  N   UNL     1      15.254  -3.621  32.068  0.00  0.00    -0.304 N 
ATOM     29  C   UNL     1      15.495  -3.499  32.848  0.00  0.00    +0.112 C 
ATOM     30  C   UNL     1      15.546  -3.138  31.466  0.00  0.00    +0.112 C 
ENDBRANCH  25  28
ENDBRANCH  18  22
TORSDOF 6
ENDMDL
