MODEL 1
REMARK VINA RESULT:      -9.6      0.000      0.000
REMARK  Name = 
REMARK  5 active torsions:
REMARK  status: ('A' for Active; 'I' for Inactive)
REMARK    1  A    between atoms: O_2  and  C_3
REMARK    2  A    between atoms: C_3  and  C_4
REMARK    3  A    between atoms: C_10  and  C_13
REMARK    4  A    between atoms: C_16  and  C_18
REMARK    5  A    between atoms: N_22  and  C_23
REMARK                            x       y       z     vdW  Elec       q    Type
REMARK                         _______ _______ _______ _____ _____    ______ ____
ROOT
ATOM     13  C   UNL     1      -1.145   0.564  24.567  0.00  0.00    +0.205 A 
ATOM     14  N   UNL     1      -1.253   0.533  25.384  0.00  0.00    -0.056 NA
ATOM     15  O   UNL     1      -2.044   0.701  25.543  0.00  0.00    -0.336 OA
ATOM     16  C   UNL     1      -2.426   0.835  24.824  0.00  0.00    +0.251 A 
ATOM     17  N   UNL     1      -1.871   0.750  24.221  0.00  0.00    -0.190 NA
ENDROOT
BRANCH  13  10
ATOM      4  C   UNL     1       2.280   0.610  22.966  0.00  0.00    +0.277 C 
ATOM      5  O   UNL     1       2.161   1.319  23.371  0.00  0.00    -0.270 OA
ATOM      6  N   UNL     1       1.689   0.033  22.962  0.00  0.00    -0.158 NA
ATOM      7  C   UNL     1       0.981   0.166  23.363  0.00  0.00    +0.155 A 
ATOM      8  N   UNL     1       0.391  -0.410  23.359  0.00  0.00    -0.227 NA
ATOM      9  C   UNL     1      -0.318  -0.277  23.760  0.00  0.00    +0.103 A 
ATOM     10  C   UNL     1      -0.437   0.431  24.165  0.00  0.00    +0.058 A 
ATOM     11  C   UNL     1       0.154   1.008  24.169  0.00  0.00    +0.008 A 
ATOM     12  C   UNL     1       0.863   0.875  23.768  0.00  0.00    +0.036 A 
BRANCH   4   3
ATOM      3  C   UNL     1       2.989   0.477  22.565  0.00  0.00    +0.229 C 
BRANCH   3   2
ATOM      1  C   UNL     1       4.413   0.579  22.565  0.00  0.00    +0.175 C 
ATOM      2  O   UNL     1       3.677   0.862  22.806  0.00  0.00    -0.342 OA
ENDBRANCH   3   2
ENDBRANCH   4   3
ENDBRANCH  13  10
BRANCH  16  18
ATOM     18  C   UNL     1      -3.224   1.021  24.727  0.00  0.00    +0.138 C 
ATOM     19  C   UNL     1      -3.540   1.779  24.652  0.00  0.00    +0.027 C 
ATOM     20  C   UNL     1      -4.358   1.707  24.566  0.00  0.00    +0.019 C 
ATOM     21  C   UNL     1      -4.546   0.904  24.589  0.00  0.00    +0.072 C 
ATOM     22  N   UNL     1      -3.847   0.480  24.688  0.00  0.00    -0.268 NA
BRANCH  22  23
ATOM     23  C   UNL     1      -3.779  -0.341  24.739  0.00  0.00    +0.061 C 
ATOM     24  C   UNL     1      -3.775  -0.797  24.051  0.00  0.00    +0.033 C 
ATOM     25  C   UNL     1      -3.707  -1.618  24.101  0.00  0.00    +0.074 C 
ATOM     26  N   UNL     1      -3.643  -1.982  24.839  0.00  0.00    -0.271 NA
ATOM     27  C   UNL     1      -3.575  -2.802  24.889  0.00  0.00    +0.090 C 
ATOM     28  C   UNL     1      -3.646  -1.526  25.526  0.00  0.00    +0.074 C 
ATOM     29  C   UNL     1      -3.714  -0.705  25.475  0.00  0.00    +0.033 C 
ENDBRANCH  22  23
ENDBRANCH  16  18
TORSDOF 5
ENDMDL
MODEL 2
REMARK VINA RESULT:      -9.6      2.583      4.664
REMARK  Name = 
REMARK  5 active torsions:
REMARK  status: ('A' for Active; 'I' for Inactive)
REMARK    1  A    between atoms: O_2  and  C_3
REMARK    2  A    between atoms: C_3  and  C_4
REMARK    3  A    between atoms: C_10  and  C_13
REMARK    4  A    between atoms: C_16  and  C_18
REMARK    5  A    between atoms: N_22  and  C_23
REMARK                            x       y       z     vdW  Elec       q    Type
REMARK                         _______ _______ _______ _____ _____    ______ ____
ROOT
ATOM     13  C   UNL     1      -1.097   1.809  25.438  0.00  0.00    +0.205 A 
ATOM     14  N   UNL     1      -0.840   2.056  26.182  0.00  0.00    -0.056 NA
ATOM     15  O   UNL     1      -0.786   2.878  26.174  0.00  0.00    -0.336 OA
ATOM     16  C   UNL     1      -1.010   3.140  25.423  0.00  0.00    +0.251 A 
ATOM     17  N   UNL     1      -1.202   2.479  24.970  0.00  0.00    -0.190 NA
ENDROOT
BRANCH  13  10
ATOM      4  C   UNL     1      -2.308  -1.701  24.723  0.00  0.00    +0.277 C 
ATOM      5  O   UNL     1      -2.872  -1.308  25.179  0.00  0.00    -0.270 OA
ATOM      6  N   UNL     1      -1.614  -1.313  24.502  0.00  0.00    -0.158 NA
ATOM      7  C   UNL     1      -1.484  -0.533  24.736  0.00  0.00    +0.155 A 
ATOM      8  N   UNL     1      -0.791  -0.145  24.514  0.00  0.00    -0.227 NA
ATOM      9  C   UNL     1      -0.662   0.635  24.749  0.00  0.00    +0.103 A 
ATOM     10  C   UNL     1      -1.226   1.028  25.204  0.00  0.00    +0.058 A 
ATOM     11  C   UNL     1      -1.920   0.640  25.426  0.00  0.00    +0.008 A 
ATOM     12  C   UNL     1      -2.049  -0.140  25.192  0.00  0.00    +0.036 A 
BRANCH   4   3
ATOM      3  C   UNL     1      -2.437  -2.482  24.489  0.00  0.00    +0.229 C 
BRANCH   3   2
ATOM      1  C   UNL     1      -3.494  -3.387  24.168  0.00  0.00    +0.175 C 
ATOM      2  O   UNL     1      -3.138  -2.863  24.696  0.00  0.00    -0.342 OA
ENDBRANCH   3   2
ENDBRANCH   4   3
ENDBRANCH  13  10
BRANCH  16  18
ATOM     18  C   UNL     1      -1.036   3.926  25.173  0.00  0.00    +0.138 C 
ATOM     19  C   UNL     1      -0.393   4.380  24.930  0.00  0.00    +0.027 C 
ATOM     20  C   UNL     1      -0.671   5.130  24.729  0.00  0.00    +0.019 C 
ATOM     21  C   UNL     1      -1.487   5.139  24.848  0.00  0.00    +0.072 C 
ATOM     22  N   UNL     1      -1.714   4.396  25.123  0.00  0.00    -0.268 NA
BRANCH  22  23
ATOM     23  C   UNL     1      -2.481   4.161  25.314  0.00  0.00    +0.061 C 
ATOM     24  C   UNL     1      -2.989   3.893  24.721  0.00  0.00    +0.033 C 
ATOM     25  C   UNL     1      -3.757   3.658  24.912  0.00  0.00    +0.074 C 
ATOM     26  N   UNL     1      -4.016   3.691  25.695  0.00  0.00    -0.271 NA
ATOM     27  C   UNL     1      -4.784   3.456  25.885  0.00  0.00    +0.090 C 
ATOM     28  C   UNL     1      -3.508   3.959  26.287  0.00  0.00    +0.074 C 
ATOM     29  C   UNL     1      -2.740   4.194  26.096  0.00  0.00    +0.033 C 
ENDBRANCH  22  23
ENDBRANCH  16  18
TORSDOF 5
ENDMDL
MODEL 3
REMARK VINA RESULT:      -9.4      0.968      2.156
REMARK  Name = 
REMARK  5 active torsions:
REMARK  status: ('A' for Active; 'I' for Inactive)
REMARK    1  A    between atoms: O_2  and  C_3
REMARK    2  A    between atoms: C_3  and  C_4
REMARK    3  A    between atoms: C_10  and  C_13
REMARK    4  A    between atoms: C_16  and  C_18
REMARK    5  A    between atoms: N_22  and  C_23
REMARK                            x       y       z     vdW  Elec       q    Type
REMARK                         _______ _______ _______ _____ _____    ______ ____
ROOT
ATOM     13  C   UNL     1      -1.161  -0.571  24.613  0.00  0.00    +0.205 A 
ATOM     14  N   UNL     1      -1.361  -0.599  25.413  0.00  0.00    -0.056 NA
ATOM     15  O   UNL     1      -2.079  -0.998  25.484  0.00  0.00    -0.336 OA
ATOM     16  C   UNL     1      -2.324  -1.217  24.726  0.00  0.00    +0.251 A 
ATOM     17  N   UNL     1      -1.757  -0.953  24.189  0.00  0.00    -0.190 NA
ENDROOT
BRANCH  13  10
ATOM      4  C   UNL     1       2.098   0.358  22.937  0.00  0.00    +0.277 C 
ATOM      5  O   UNL     1       1.977  -0.455  22.861  0.00  0.00    -0.270 OA
ATOM      6  N   UNL     1       1.543   0.822  23.334  0.00  0.00    -0.158 NA
ATOM      7  C   UNL     1       0.867   0.474  23.654  0.00  0.00    +0.155 A 
ATOM      8  N   UNL     1       0.312   0.938  24.050  0.00  0.00    -0.227 NA
ATOM      9  C   UNL     1      -0.364   0.589  24.369  0.00  0.00    +0.103 A 
ATOM     10  C   UNL     1      -0.485  -0.223  24.293  0.00  0.00    +0.058 A 
ATOM     11  C   UNL     1       0.070  -0.687  23.896  0.00  0.00    +0.008 A 
ATOM     12  C   UNL     1       0.746  -0.339  23.577  0.00  0.00    +0.036 A 
BRANCH   4   3
ATOM      3  C   UNL     1       2.774   0.706  22.617  0.00  0.00    +0.229 C 
BRANCH   3   2
ATOM      1  C   UNL     1       4.201   0.768  22.615  0.00  0.00    +0.175 C 
ATOM      2  O   UNL     1       3.505   0.332  22.692  0.00  0.00    -0.342 OA
ENDBRANCH   3   2
ENDBRANCH   4   3
ENDBRANCH  13  10
BRANCH  16  18
ATOM     18  C   UNL     1      -3.015  -1.627  24.541  0.00  0.00    +0.138 C 
ATOM     19  C   UNL     1      -3.080  -2.440  24.422  0.00  0.00    +0.027 C 
ATOM     20  C   UNL     1      -3.869  -2.610  24.250  0.00  0.00    +0.019 C 
ATOM     21  C   UNL     1      -4.291  -1.902  24.262  0.00  0.00    +0.072 C 
ATOM     22  N   UNL     1      -3.765  -1.294  24.442  0.00  0.00    -0.268 NA
BRANCH  22  23
ATOM     23  C   UNL     1      -3.952  -0.494  24.511  0.00  0.00    +0.061 C 
ATOM     24  C   UNL     1      -4.206  -0.192  25.237  0.00  0.00    +0.033 C 
ATOM     25  C   UNL     1      -4.393   0.609  25.307  0.00  0.00    +0.074 C 
ATOM     26  N   UNL     1      -4.326   1.107  24.652  0.00  0.00    -0.271 NA
ATOM     27  C   UNL     1      -4.514   1.907  24.723  0.00  0.00    +0.090 C 
ATOM     28  C   UNL     1      -4.073   0.805  23.928  0.00  0.00    +0.074 C 
ATOM     29  C   UNL     1      -3.886   0.004  23.858  0.00  0.00    +0.033 C 
ENDBRANCH  22  23
ENDBRANCH  16  18
TORSDOF 5
ENDMDL
MODEL 4
REMARK VINA RESULT:      -9.0      1.398      2.742
REMARK  Name = 
REMARK  5 active torsions:
REMARK  status: ('A' for Active; 'I' for Inactive)
REMARK    1  A    between atoms: O_2  and  C_3
REMARK    2  A    between atoms: C_3  and  C_4
REMARK    3  A    between atoms: C_10  and  C_13
REMARK    4  A    between atoms: C_16  and  C_18
REMARK    5  A    between atoms: N_22  and  C_23
REMARK                            x       y       z     vdW  Elec       q    Type
REMARK                         _______ _______ _______ _____ _____    ______ ____
ROOT
ATOM     13  C   UNL     1      -1.450   0.787  24.659  0.00  0.00    +0.205 A 
ATOM     14  N   UNL     1      -1.572   0.780  25.475  0.00  0.00    -0.056 NA
ATOM     15  O   UNL     1      -2.344   1.030  25.620  0.00  0.00    -0.336 OA
ATOM     16  C   UNL     1      -2.700   1.192  24.893  0.00  0.00    +0.251 A 
ATOM     17  N   UNL     1      -2.148   1.042  24.300  0.00  0.00    -0.190 NA
ENDROOT
BRANCH  13  10
ATOM      4  C   UNL     1       1.963   0.482  23.060  0.00  0.00    +0.277 C 
ATOM      5  O   UNL     1       1.890   1.229  23.402  0.00  0.00    -0.270 OA
ATOM      6  N   UNL     1       1.337  -0.055  23.106  0.00  0.00    -0.158 NA
ATOM      7  C   UNL     1       0.640   0.156  23.495  0.00  0.00    +0.155 A 
ATOM      8  N   UNL     1       0.016  -0.381  23.541  0.00  0.00    -0.227 NA
ATOM      9  C   UNL     1      -0.681  -0.170  23.929  0.00  0.00    +0.103 A 
ATOM     10  C   UNL     1      -0.753   0.577  24.271  0.00  0.00    +0.058 A 
ATOM     11  C   UNL     1      -0.128   1.114  24.225  0.00  0.00    +0.008 A 
ATOM     12  C   UNL     1       0.569   0.903  23.836  0.00  0.00    +0.036 A 
BRANCH   4   3
ATOM      3  C   UNL     1       2.659   0.272  22.672  0.00  0.00    +0.229 C 
BRANCH   3   2
ATOM      1  C   UNL     1       4.046   0.511  22.427  0.00  0.00    +0.175 C 
ATOM      2  O   UNL     1       3.312   0.775  22.695  0.00  0.00    -0.342 OA
ENDBRANCH   3   2
ENDBRANCH   4   3
ENDBRANCH  13  10
BRANCH  16  18
ATOM     18  C   UNL     1      -3.473   1.457  24.781  0.00  0.00    +0.138 C 
ATOM     19  C   UNL     1      -4.131   0.985  24.629  0.00  0.00    +0.027 C 
ATOM     20  C   UNL     1      -4.789   1.479  24.555  0.00  0.00    +0.019 C 
ATOM     21  C   UNL     1      -4.535   2.257  24.662  0.00  0.00    +0.072 C 
ATOM     22  N   UNL     1      -3.723   2.244  24.801  0.00  0.00    -0.268 NA
BRANCH  22  23
ATOM     23  C   UNL     1      -3.243   2.901  24.938  0.00  0.00    +0.061 C 
ATOM     24  C   UNL     1      -2.909   3.306  24.300  0.00  0.00    +0.033 C 
ATOM     25  C   UNL     1      -2.429   3.964  24.436  0.00  0.00    +0.074 C 
ATOM     26  N   UNL     1      -2.283   4.216  25.208  0.00  0.00    -0.271 NA
ATOM     27  C   UNL     1      -1.802   4.872  25.343  0.00  0.00    +0.090 C 
ATOM     28  C   UNL     1      -2.616   3.811  25.844  0.00  0.00    +0.074 C 
ATOM     29  C   UNL     1      -3.097   3.153  25.709  0.00  0.00    +0.033 C 
ENDBRANCH  22  23
ENDBRANCH  16  18
TORSDOF 5
ENDMDL
MODEL 5
REMARK VINA RESULT:      -8.6      2.726      4.247
REMARK  Name = 
REMARK  5 active torsions:
REMARK  status: ('A' for Active; 'I' for Inactive)
REMARK    1  A    between atoms: O_2  and  C_3
REMARK    2  A    between atoms: C_3  and  C_4
REMARK    3  A    between atoms: C_10  and  C_13
REMARK    4  A    between atoms: C_16  and  C_18
REMARK    5  A    between atoms: N_22  and  C_23
REMARK                            x       y       z     vdW  Elec       q    Type
REMARK                         _______ _______ _______ _____ _____    ______ ____
ROOT
ATOM     13  C   UNL     1      -3.646   1.125  24.400  0.00  0.00    +0.205 A 
ATOM     14  N   UNL     1      -3.771   1.535  23.696  0.00  0.00    -0.056 NA
ATOM     15  O   UNL     1      -4.254   2.183  23.860  0.00  0.00    -0.336 OA
ATOM     16  C   UNL     1      -4.428   2.173  24.667  0.00  0.00    +0.251 A 
ATOM     17  N   UNL     1      -4.053   1.519  25.000  0.00  0.00    -0.190 NA
ENDROOT
BRANCH  13  10
ATOM      4  C   UNL     1      -1.040  -1.558  24.955  0.00  0.00    +0.277 C 
ATOM      5  O   UNL     1      -0.694  -0.818  25.065  0.00  0.00    -0.270 OA
ATOM      6  N   UNL     1      -1.840  -1.614  24.757  0.00  0.00    -0.158 NA
ATOM      7  C   UNL     1      -2.291  -0.929  24.668  0.00  0.00    +0.155 A 
ATOM      8  N   UNL     1      -3.090  -0.985  24.469  0.00  0.00    -0.227 NA
ATOM      9  C   UNL     1      -3.541  -0.300  24.380  0.00  0.00    +0.103 A 
ATOM     10  C   UNL     1      -3.195   0.440  24.489  0.00  0.00    +0.058 A 
ATOM     11  C   UNL     1      -2.395   0.496  24.688  0.00  0.00    +0.008 A 
ATOM     12  C   UNL     1      -1.943  -0.189  24.777  0.00  0.00    +0.036 A 
BRANCH   4   3
ATOM      3  C   UNL     1      -0.589  -2.243  25.044  0.00  0.00    +0.229 C 
BRANCH   3   2
ATOM      1  C   UNL     1       0.566  -2.905  25.564  0.00  0.00    +0.175 C 
ATOM      2  O   UNL     1       0.107  -2.223  25.487  0.00  0.00    -0.342 OA
ENDBRANCH   3   2
ENDBRANCH   4   3
ENDBRANCH  13  10
BRANCH  16  18
ATOM     18  C   UNL     1      -4.896   2.721  25.068  0.00  0.00    +0.138 C 
ATOM     19  C   UNL     1      -5.701   2.646  25.230  0.00  0.00    +0.027 C 
ATOM     20  C   UNL     1      -5.942   3.321  25.640  0.00  0.00    +0.019 C 
ATOM     21  C   UNL     1      -5.286   3.812  25.731  0.00  0.00    +0.072 C 
ATOM     22  N   UNL     1      -4.639   3.443  25.378  0.00  0.00    -0.268 NA
BRANCH  22  23
ATOM     23  C   UNL     1      -3.871   3.739  25.340  0.00  0.00    +0.061 C 
ATOM     24  C   UNL     1      -3.368   3.664  25.991  0.00  0.00    +0.033 C 
ATOM     25  C   UNL     1      -2.599   3.961  25.954  0.00  0.00    +0.074 C 
ATOM     26  N   UNL     1      -2.333   4.333  25.267  0.00  0.00    -0.271 NA
ATOM     27  C   UNL     1      -1.564   4.629  25.230  0.00  0.00    +0.090 C 
ATOM     28  C   UNL     1      -2.835   4.408  24.617  0.00  0.00    +0.074 C 
ATOM     29  C   UNL     1      -3.604   4.111  24.654  0.00  0.00    +0.033 C 
ENDBRANCH  22  23
ENDBRANCH  16  18
TORSDOF 5
ENDMDL
MODEL 6
REMARK VINA RESULT:      -8.5      2.826      4.143
REMARK  Name = 
REMARK  5 active torsions:
REMARK  status: ('A' for Active; 'I' for Inactive)
REMARK    1  A    between atoms: O_2  and  C_3
REMARK    2  A    between atoms: C_3  and  C_4
REMARK    3  A    between atoms: C_10  and  C_13
REMARK    4  A    between atoms: C_16  and  C_18
REMARK    5  A    between atoms: N_22  and  C_23
REMARK                            x       y       z     vdW  Elec       q    Type
REMARK                         _______ _______ _______ _____ _____    ______ ____
ROOT
ATOM     13  C   UNL     1      -3.722   0.512  24.912  0.00  0.00    +0.205 A 
ATOM     14  N   UNL     1      -4.058   0.162  25.579  0.00  0.00    -0.056 NA
ATOM     15  O   UNL     1      -4.180  -0.637  25.414  0.00  0.00    -0.336 OA
ATOM     16  C   UNL     1      -3.918  -0.781  24.644  0.00  0.00    +0.251 A 
ATOM     17  N   UNL     1      -3.635  -0.071  24.335  0.00  0.00    -0.190 NA
ENDROOT
BRANCH  13  10
ATOM      4  C   UNL     1      -2.237   3.987  25.043  0.00  0.00    +0.277 C 
ATOM      5  O   UNL     1      -1.816   3.494  25.553  0.00  0.00    -0.270 OA
ATOM      6  N   UNL     1      -2.871   3.686  24.608  0.00  0.00    -0.158 NA
ATOM      7  C   UNL     1      -3.084   2.892  24.684  0.00  0.00    +0.155 A 
ATOM      8  N   UNL     1      -3.717   2.592  24.250  0.00  0.00    -0.227 NA
ATOM      9  C   UNL     1      -3.930   1.799  24.326  0.00  0.00    +0.103 A 
ATOM     10  C   UNL     1      -3.509   1.305  24.836  0.00  0.00    +0.058 A 
ATOM     11  C   UNL     1      -2.875   1.606  25.271  0.00  0.00    +0.008 A 
ATOM     12  C   UNL     1      -2.662   2.400  25.195  0.00  0.00    +0.036 A 
BRANCH   4   3
ATOM      3  C   UNL     1      -2.024   4.780  24.967  0.00  0.00    +0.229 C 
BRANCH   3   2
ATOM      1  C   UNL     1      -0.971   5.734  24.824  0.00  0.00    +0.175 C 
ATOM      2  O   UNL     1      -1.249   5.015  25.118  0.00  0.00    -0.342 OA
ENDBRANCH   3   2
ENDBRANCH   4   3
ENDBRANCH  13  10
BRANCH  16  18
ATOM     18  C   UNL     1      -3.937  -1.508  24.254  0.00  0.00    +0.138 C 
ATOM     19  C   UNL     1      -4.584  -1.828  23.856  0.00  0.00    +0.027 C 
ATOM     20  C   UNL     1      -4.357  -2.561  23.550  0.00  0.00    +0.019 C 
ATOM     21  C   UNL     1      -3.570  -2.692  23.760  0.00  0.00    +0.072 C 
ATOM     22  N   UNL     1      -3.310  -2.042  24.195  0.00  0.00    -0.268 NA
BRANCH  22  23
ATOM     23  C   UNL     1      -2.556  -1.941  24.515  0.00  0.00    +0.061 C 
ATOM     24  C   UNL     1      -1.952  -1.622  24.052  0.00  0.00    +0.033 C 
ATOM     25  C   UNL     1      -1.197  -1.521  24.372  0.00  0.00    +0.074 C 
ATOM     26  N   UNL     1      -1.048  -1.740  25.154  0.00  0.00    -0.271 NA
ATOM     27  C   UNL     1      -0.294  -1.639  25.473  0.00  0.00    +0.090 C 
ATOM     28  C   UNL     1      -1.652  -2.058  25.616  0.00  0.00    +0.074 C 
ATOM     29  C   UNL     1      -2.407  -2.159  25.296  0.00  0.00    +0.033 C 
ENDBRANCH  22  23
ENDBRANCH  16  18
TORSDOF 5
ENDMDL
MODEL 7
REMARK VINA RESULT:      -8.3      2.681      5.204
REMARK  Name = 
REMARK  5 active torsions:
REMARK  status: ('A' for Active; 'I' for Inactive)
REMARK    1  A    between atoms: O_2  and  C_3
REMARK    2  A    between atoms: C_3  and  C_4
REMARK    3  A    between atoms: C_10  and  C_13
REMARK    4  A    between atoms: C_16  and  C_18
REMARK    5  A    between atoms: N_22  and  C_23
REMARK                            x       y       z     vdW  Elec       q    Type
REMARK                         _______ _______ _______ _____ _____    ______ ____
ROOT
ATOM     13  C   UNL     1      -3.553   1.982  24.396  0.00  0.00    +0.205 A 
ATOM     14  N   UNL     1      -3.558   2.494  23.750  0.00  0.00    -0.056 NA
ATOM     15  O   UNL     1      -3.295   3.232  24.007  0.00  0.00    -0.336 OA
ATOM     16  C   UNL     1      -3.128   3.175  24.813  0.00  0.00    +0.251 A 
ATOM     17  N   UNL     1      -3.287   2.403  25.053  0.00  0.00    -0.190 NA
ENDROOT
BRANCH  13  10
ATOM      4  C   UNL     1      -3.901  -1.774  24.127  0.00  0.00    +0.277 C 
ATOM      5  O   UNL     1      -3.137  -1.556  23.904  0.00  0.00    -0.270 OA
ATOM      6  N   UNL     1      -4.443  -1.196  24.359  0.00  0.00    -0.158 NA
ATOM      7  C   UNL     1      -4.221  -0.402  24.368  0.00  0.00    +0.155 A 
ATOM      8  N   UNL     1      -4.762   0.175  24.600  0.00  0.00    -0.227 NA
ATOM      9  C   UNL     1      -4.540   0.970  24.609  0.00  0.00    +0.103 A 
ATOM     10  C   UNL     1      -3.776   1.187  24.387  0.00  0.00    +0.058 A 
ATOM     11  C   UNL     1      -3.234   0.609  24.155  0.00  0.00    +0.008 A 
ATOM     12  C   UNL     1      -3.456  -0.185  24.145  0.00  0.00    +0.036 A 
BRANCH   4   3
ATOM      3  C   UNL     1      -4.124  -2.568  24.118  0.00  0.00    +0.229 C 
BRANCH   3   2
ATOM      1  C   UNL     1      -3.771  -3.952  24.152  0.00  0.00    +0.175 C 
ATOM      2  O   UNL     1      -3.549  -3.158  24.166  0.00  0.00    -0.342 OA
ENDBRANCH   3   2
ENDBRANCH   4   3
ENDBRANCH  13  10
BRANCH  16  18
ATOM     18  C   UNL     1      -2.849   3.786  25.294  0.00  0.00    +0.138 C 
ATOM     19  C   UNL     1      -3.311   4.356  25.670  0.00  0.00    +0.027 C 
ATOM     20  C   UNL     1      -2.806   4.855  26.091  0.00  0.00    +0.019 C 
ATOM     21  C   UNL     1      -2.032   4.593  25.974  0.00  0.00    +0.072 C 
ATOM     22  N   UNL     1      -2.058   3.932  25.482  0.00  0.00    -0.268 NA
BRANCH  22  23
ATOM     23  C   UNL     1      -1.410   3.494  25.222  0.00  0.00    +0.061 C 
ATOM     24  C   UNL     1      -1.099   2.897  25.700  0.00  0.00    +0.033 C 
ATOM     25  C   UNL     1      -0.450   2.458  25.440  0.00  0.00    +0.074 C 
ATOM     26  N   UNL     1      -0.112   2.615  24.703  0.00  0.00    -0.271 NA
ATOM     27  C   UNL     1       0.536   2.176  24.445  0.00  0.00    +0.090 C 
ATOM     28  C   UNL     1      -0.424   3.212  24.227  0.00  0.00    +0.074 C 
ATOM     29  C   UNL     1      -1.073   3.651  24.486  0.00  0.00    +0.033 C 
ENDBRANCH  22  23
ENDBRANCH  16  18
TORSDOF 5
ENDMDL
