MODEL 1
REMARK VINA RESULT:     -12.4      0.000      0.000
REMARK  Name = 
REMARK  6 active torsions:
REMARK  status: ('A' for Active; 'I' for Inactive)
REMARK    1  A    between atoms: C_3  and  C_4
REMARK    2  A    between atoms: C_4  and  N_5
REMARK    3  A    between atoms: N_5  and  C_6
REMARK    4  A    between atoms: C_6  and  C_7
REMARK    5  A    between atoms: C_7  and  C_8
REMARK    6  A    between atoms: C_11  and  C_13
REMARK                            x       y       z     vdW  Elec       q    Type
REMARK                         _______ _______ _______ _____ _____    ______ ____
ROOT
ATOM      6  C   UNL     1      -4.259   2.855  25.156  0.00  0.00    +0.120 C 
ATOM     20  C   UNL     1      -4.362   3.460  25.707  0.00  0.00    +0.161 C 
ATOM     21  O   UNL     1      -5.176   3.448  25.568  0.00  0.00    -0.351 OA
ATOM     22  C   UNL     1      -5.072   2.842  25.016  0.00  0.00    +0.161 C 
ENDROOT
BRANCH   6   5
ATOM      5  N   UNL     1      -3.445   2.867  25.296  0.00  0.00    -0.211 NA
BRANCH   5   4
ATOM      4  C   UNL     1      -3.035   3.581  25.285  0.00  0.00    +0.118 C 
BRANCH   4   3
ATOM      1  O   UNL     1      -2.162   4.849  24.692  0.00  0.00    -0.287 OA
ATOM      2  C   UNL     1      -1.777   4.222  25.065  0.00  0.00    +0.193 A 
ATOM      3  C   UNL     1      -2.213   3.587  25.361  0.00  0.00    +0.034 A 
ATOM     23  C   UNL     1      -1.829   2.960  25.734  0.00  0.00    +0.000 A 
ATOM     24  C   UNL     1      -1.007   2.967  25.810  0.00  0.00    -0.000 A 
ATOM     25  C   UNL     1      -0.570   3.601  25.514  0.00  0.00    +0.003 A 
ATOM     26  C   UNL     1      -0.955   4.228  25.141  0.00  0.00    +0.042 A 
ENDBRANCH   4   3
ENDBRANCH   5   4
ENDBRANCH   6   5
BRANCH   6   7
ATOM      7  C   UNL     1      -4.155   2.249  24.605  0.00  0.00    +0.070 C 
BRANCH   7   8
ATOM      8  C   UNL     1      -4.325   1.470  24.813  0.00  0.00    +0.102 A 
ATOM      9  N   UNL     1      -4.912   1.224  25.337  0.00  0.00    -0.081 NA
ATOM     10  O   UNL     1      -4.887   0.400  25.381  0.00  0.00    -0.354 OA
ATOM     11  C   UNL     1      -4.283   0.137  24.884  0.00  0.00    +0.177 A 
ATOM     12  C   UNL     1      -3.936   0.797  24.533  0.00  0.00    +0.058 A 
BRANCH  11  13
ATOM     13  C   UNL     1      -4.065  -0.649  24.760  0.00  0.00    +0.037 A 
ATOM     14  C   UNL     1      -3.609  -1.044  25.323  0.00  0.00    +0.005 A 
ATOM     15  C   UNL     1      -3.390  -1.829  25.199  0.00  0.00    +0.030 A 
ATOM     16  C   UNL     1      -3.629  -2.221  24.513  0.00  0.00    +0.140 A 
ATOM     17  F   UNL     1      -3.411  -3.006  24.389  0.00  0.00    -0.204 F 
ATOM     18  C   UNL     1      -4.085  -1.826  23.950  0.00  0.00    +0.030 A 
ATOM     19  C   UNL     1      -4.303  -1.040  24.075  0.00  0.00    +0.005 A 
ENDBRANCH  11  13
ENDBRANCH   7   8
ENDBRANCH   6   7
TORSDOF 6
ENDMDL
MODEL 2
REMARK VINA RESULT:     -12.3      1.994      4.873
REMARK  Name = 
REMARK  6 active torsions:
REMARK  status: ('A' for Active; 'I' for Inactive)
REMARK    1  A    between atoms: C_3  and  C_4
REMARK    2  A    between atoms: C_4  and  N_5
REMARK    3  A    between atoms: N_5  and  C_6
REMARK    4  A    between atoms: C_6  and  C_7
REMARK    5  A    between atoms: C_7  and  C_8
REMARK    6  A    between atoms: C_11  and  C_13
REMARK                            x       y       z     vdW  Elec       q    Type
REMARK                         _______ _______ _______ _____ _____    ______ ____
ROOT
ATOM      6  C   UNL     1      -4.780   1.502  24.822  0.00  0.00    +0.120 C 
ATOM     20  C   UNL     1      -5.449   1.167  25.168  0.00  0.00    +0.161 C 
ATOM     21  O   UNL     1      -5.887   1.839  24.973  0.00  0.00    -0.351 OA
ATOM     22  C   UNL     1      -5.216   2.175  24.627  0.00  0.00    +0.161 C 
ENDROOT
BRANCH   6   5
ATOM      5  N   UNL     1      -4.342   0.831  25.018  0.00  0.00    -0.211 NA
BRANCH   5   4
ATOM      4  C   UNL     1      -4.507   0.110  24.653  0.00  0.00    +0.118 C 
BRANCH   4   3
ATOM      1  O   UNL     1      -4.346  -1.134  23.583  0.00  0.00    -0.287 OA
ATOM      2  C   UNL     1      -4.008  -1.190  24.333  0.00  0.00    +0.193 A 
ATOM      3  C   UNL     1      -4.088  -0.568  24.869  0.00  0.00    +0.034 A 
ATOM     23  C   UNL     1      -3.751  -0.623  25.620  0.00  0.00    +0.000 A 
ATOM     24  C   UNL     1      -3.333  -1.301  25.835  0.00  0.00    -0.000 A 
ATOM     25  C   UNL     1      -3.252  -1.924  25.300  0.00  0.00    +0.003 A 
ATOM     26  C   UNL     1      -3.590  -1.868  24.549  0.00  0.00    +0.042 A 
ENDBRANCH   4   3
ENDBRANCH   5   4
ENDBRANCH   6   5
BRANCH   6   7
ATOM      7  C   UNL     1      -4.109   1.838  24.476  0.00  0.00    +0.070 C 
BRANCH   7   8
ATOM      8  C   UNL     1      -3.707   2.446  24.861  0.00  0.00    +0.102 A 
ATOM      9  N   UNL     1      -3.915   2.783  25.585  0.00  0.00    -0.081 NA
ATOM     10  O   UNL     1      -3.362   3.370  25.761  0.00  0.00    -0.354 OA
ATOM     11  C   UNL     1      -2.813   3.396  25.145  0.00  0.00    +0.177 A 
ATOM     12  C   UNL     1      -3.026   2.826  24.590  0.00  0.00    +0.058 A 
BRANCH  11  13
ATOM     13  C   UNL     1      -2.165   3.904  25.095  0.00  0.00    +0.037 A 
ATOM     14  C   UNL     1      -2.273   4.719  25.171  0.00  0.00    +0.005 A 
ATOM     15  C   UNL     1      -1.624   5.226  25.121  0.00  0.00    +0.030 A 
ATOM     16  C   UNL     1      -0.869   4.920  24.993  0.00  0.00    +0.140 A 
ATOM     17  F   UNL     1      -0.221   5.428  24.943  0.00  0.00    -0.204 F 
ATOM     18  C   UNL     1      -0.762   4.106  24.917  0.00  0.00    +0.030 A 
ATOM     19  C   UNL     1      -1.410   3.598  24.968  0.00  0.00    +0.005 A 
ENDBRANCH  11  13
ENDBRANCH   7   8
ENDBRANCH   6   7
TORSDOF 6
ENDMDL
MODEL 3
REMARK VINA RESULT:     -11.3      2.713      5.655
REMARK  Name = 
REMARK  6 active torsions:
REMARK  status: ('A' for Active; 'I' for Inactive)
REMARK    1  A    between atoms: C_3  and  C_4
REMARK    2  A    between atoms: C_4  and  N_5
REMARK    3  A    between atoms: N_5  and  C_6
REMARK    4  A    between atoms: C_6  and  C_7
REMARK    5  A    between atoms: C_7  and  C_8
REMARK    6  A    between atoms: C_11  and  C_13
REMARK                            x       y       z     vdW  Elec       q    Type
REMARK                         _______ _______ _______ _____ _____    ______ ____
ROOT
ATOM      6  C   UNL     1      -1.273  -0.137  24.757  0.00  0.00    +0.120 C 
ATOM     20  C   UNL     1      -0.879  -0.766  24.399  0.00  0.00    +0.161 C 
ATOM     21  O   UNL     1      -0.156  -0.453  24.644  0.00  0.00    -0.351 OA
ATOM     22  C   UNL     1      -0.551   0.178  25.002  0.00  0.00    +0.161 C 
ENDROOT
BRANCH   6   5
ATOM      5  N   UNL     1      -1.997  -0.450  24.512  0.00  0.00    -0.211 NA
BRANCH   5   4
ATOM      4  C   UNL     1      -2.249  -1.179  24.799  0.00  0.00    +0.118 C 
BRANCH   4   3
ATOM      1  O   UNL     1      -2.497  -2.806  24.917  0.00  0.00    -0.287 OA
ATOM      2  C   UNL     1      -3.078  -2.323  24.586  0.00  0.00    +0.193 A 
ATOM      3  C   UNL     1      -2.955  -1.509  24.527  0.00  0.00    +0.034 A 
ATOM     23  C   UNL     1      -3.536  -1.026  24.195  0.00  0.00    +0.000 A 
ATOM     24  C   UNL     1      -4.241  -1.357  23.923  0.00  0.00    -0.000 A 
ATOM     25  C   UNL     1      -4.365  -2.171  23.982  0.00  0.00    +0.003 A 
ATOM     26  C   UNL     1      -3.784  -2.653  24.313  0.00  0.00    +0.042 A 
ENDBRANCH   4   3
ENDBRANCH   5   4
ENDBRANCH   6   5
BRANCH   6   7
ATOM      7  C   UNL     1      -1.669   0.494  25.115  0.00  0.00    +0.070 C 
BRANCH   7   8
ATOM      8  C   UNL     1      -1.617   1.250  24.790  0.00  0.00    +0.102 A 
ATOM      9  N   UNL     1      -1.569   1.431  23.986  0.00  0.00    -0.081 NA
ATOM     10  O   UNL     1      -1.528   2.251  23.911  0.00  0.00    -0.354 OA
ATOM     11  C   UNL     1      -1.550   2.578  24.668  0.00  0.00    +0.177 A 
ATOM     12  C   UNL     1      -1.605   1.960  25.211  0.00  0.00    +0.058 A 
BRANCH  11  13
ATOM     13  C   UNL     1      -1.521   3.382  24.851  0.00  0.00    +0.037 A 
ATOM     14  C   UNL     1      -0.828   3.810  24.719  0.00  0.00    +0.005 A 
ATOM     15  C   UNL     1      -0.800   4.614  24.902  0.00  0.00    +0.030 A 
ATOM     16  C   UNL     1      -1.464   4.990  25.216  0.00  0.00    +0.140 A 
ATOM     17  F   UNL     1      -1.436   5.794  25.399  0.00  0.00    -0.204 F 
ATOM     18  C   UNL     1      -2.156   4.562  25.348  0.00  0.00    +0.030 A 
ATOM     19  C   UNL     1      -2.185   3.758  25.165  0.00  0.00    +0.005 A 
ENDBRANCH  11  13
ENDBRANCH   7   8
ENDBRANCH   6   7
TORSDOF 6
ENDMDL
MODEL 4
REMARK VINA RESULT:     -11.2      1.906      2.549
REMARK  Name = 
REMARK  6 active torsions:
REMARK  status: ('A' for Active; 'I' for Inactive)
REMARK    1  A    between atoms: C_3  and  C_4
REMARK    2  A    between atoms: C_4  and  N_5
REMARK    3  A    between atoms: N_5  and  C_6
REMARK    4  A    between atoms: C_6  and  C_7
REMARK    5  A    between atoms: C_7  and  C_8
REMARK    6  A    between atoms: C_11  and  C_13
REMARK                            x       y       z     vdW  Elec       q    Type
REMARK                         _______ _______ _______ _____ _____    ______ ____
ROOT
ATOM      6  C   UNL     1      -0.744   1.614  24.793  0.00  0.00    +0.120 C 
ATOM     20  C   UNL     1      -0.059   1.882  25.165  0.00  0.00    +0.161 C 
ATOM     21  O   UNL     1       0.363   1.249  24.845  0.00  0.00    -0.351 OA
ATOM     22  C   UNL     1      -0.323   0.981  24.472  0.00  0.00    +0.161 C 
ENDROOT
BRANCH   6   5
ATOM      5  N   UNL     1      -1.166   2.246  25.113  0.00  0.00    -0.211 NA
BRANCH   5   4
ATOM      4  C   UNL     1      -0.909   3.019  24.990  0.00  0.00    +0.118 C 
BRANCH   4   3
ATOM      1  O   UNL     1      -0.525   4.551  24.513  0.00  0.00    -0.287 OA
ATOM      2  C   UNL     1      -1.187   4.421  24.987  0.00  0.00    +0.193 A 
ATOM      3  C   UNL     1      -1.380   3.655  25.226  0.00  0.00    +0.034 A 
ATOM     23  C   UNL     1      -2.042   3.524  25.700  0.00  0.00    +0.000 A 
ATOM     24  C   UNL     1      -2.512   4.160  25.936  0.00  0.00    -0.000 A 
ATOM     25  C   UNL     1      -2.320   4.926  25.697  0.00  0.00    +0.003 A 
ATOM     26  C   UNL     1      -1.658   5.056  25.223  0.00  0.00    +0.042 A 
ENDBRANCH   4   3
ENDBRANCH   5   4
ENDBRANCH   6   5
BRANCH   6   7
ATOM      7  C   UNL     1      -1.431   1.345  24.421  0.00  0.00    +0.070 C 
BRANCH   7   8
ATOM      8  C   UNL     1      -1.805   0.662  24.690  0.00  0.00    +0.102 A 
ATOM      9  N   UNL     1      -1.745   0.343  25.448  0.00  0.00    -0.081 NA
ATOM     10  O   UNL     1      -2.208  -0.340  25.475  0.00  0.00    -0.354 OA
ATOM     11  C   UNL     1      -2.554  -0.443  24.733  0.00  0.00    +0.177 A 
ATOM     12  C   UNL     1      -2.305   0.176  24.248  0.00  0.00    +0.058 A 
BRANCH  11  13
ATOM     13  C   UNL     1      -3.060  -1.057  24.514  0.00  0.00    +0.037 A 
ATOM     14  C   UNL     1      -2.837  -1.841  24.645  0.00  0.00    +0.005 A 
ATOM     15  C   UNL     1      -3.343  -2.454  24.426  0.00  0.00    +0.030 A 
ATOM     16  C   UNL     1      -4.072  -2.284  24.077  0.00  0.00    +0.140 A 
ATOM     17  F   UNL     1      -4.578  -2.898  23.858  0.00  0.00    -0.204 F 
ATOM     18  C   UNL     1      -4.294  -1.501  23.947  0.00  0.00    +0.030 A 
ATOM     19  C   UNL     1      -3.788  -0.887  24.166  0.00  0.00    +0.005 A 
ENDBRANCH  11  13
ENDBRANCH   7   8
ENDBRANCH   6   7
TORSDOF 6
ENDMDL
MODEL 5
REMARK VINA RESULT:     -11.1      1.588      2.747
REMARK  Name = 
REMARK  6 active torsions:
REMARK  status: ('A' for Active; 'I' for Inactive)
REMARK    1  A    between atoms: C_3  and  C_4
REMARK    2  A    between atoms: C_4  and  N_5
REMARK    3  A    between atoms: N_5  and  C_6
REMARK    4  A    between atoms: C_6  and  C_7
REMARK    5  A    between atoms: C_7  and  C_8
REMARK    6  A    between atoms: C_11  and  C_13
REMARK                            x       y       z     vdW  Elec       q    Type
REMARK                         _______ _______ _______ _____ _____    ______ ____
ROOT
ATOM      6  C   UNL     1      -2.289   1.960  24.329  0.00  0.00    +0.120 C 
ATOM     20  C   UNL     1      -2.419   2.485  23.706  0.00  0.00    +0.161 C 
ATOM     21  O   UNL     1      -1.626   2.421  23.486  0.00  0.00    -0.351 OA
ATOM     22  C   UNL     1      -1.496   1.896  24.110  0.00  0.00    +0.161 C 
ENDROOT
BRANCH   6   5
ATOM      5  N   UNL     1      -3.082   2.024  24.548  0.00  0.00    -0.211 NA
BRANCH   5   4
ATOM      4  C   UNL     1      -3.393   2.757  24.761  0.00  0.00    +0.118 C 
BRANCH   4   3
ATOM      1  O   UNL     1      -3.819   3.884  25.887  0.00  0.00    -0.287 OA
ATOM      2  C   UNL     1      -4.391   3.380  25.572  0.00  0.00    +0.193 A 
ATOM      3  C   UNL     1      -4.178   2.816  25.009  0.00  0.00    +0.034 A 
ATOM     23  C   UNL     1      -4.750   2.311  24.693  0.00  0.00    +0.000 A 
ATOM     24  C   UNL     1      -5.535   2.371  24.941  0.00  0.00    -0.000 A 
ATOM     25  C   UNL     1      -5.748   2.935  25.504  0.00  0.00    +0.003 A 
ATOM     26  C   UNL     1      -5.176   3.439  25.819  0.00  0.00    +0.042 A 
ENDBRANCH   4   3
ENDBRANCH   5   4
ENDBRANCH   6   5
BRANCH   6   7
ATOM      7  C   UNL     1      -2.159   1.435  24.952  0.00  0.00    +0.070 C 
BRANCH   7   8
ATOM      8  C   UNL     1      -2.084   0.628  24.801  0.00  0.00    +0.102 A 
ATOM      9  N   UNL     1      -1.380   0.225  24.652  0.00  0.00    -0.081 NA
ATOM     10  O   UNL     1      -1.562  -0.571  24.532  0.00  0.00    -0.354 OA
ATOM     11  C   UNL     1      -2.379  -0.661  24.607  0.00  0.00    +0.177 A 
ATOM     12  C   UNL     1      -2.701   0.080  24.773  0.00  0.00    +0.058 A 
BRANCH  11  13
ATOM     13  C   UNL     1      -2.799  -1.366  24.529  0.00  0.00    +0.037 A 
ATOM     14  C   UNL     1      -2.442  -2.083  24.730  0.00  0.00    +0.005 A 
ATOM     15  C   UNL     1      -2.862  -2.788  24.652  0.00  0.00    +0.030 A 
ATOM     16  C   UNL     1      -3.639  -2.777  24.374  0.00  0.00    +0.140 A 
ATOM     17  F   UNL     1      -4.059  -3.483  24.296  0.00  0.00    -0.204 F 
ATOM     18  C   UNL     1      -3.995  -2.061  24.173  0.00  0.00    +0.030 A 
ATOM     19  C   UNL     1      -3.575  -1.355  24.251  0.00  0.00    +0.005 A 
ENDBRANCH  11  13
ENDBRANCH   7   8
ENDBRANCH   6   7
TORSDOF 6
ENDMDL
