MODEL 1
REMARK VINA RESULT:      -8.2      0.000      0.000
REMARK  Name = 
REMARK  11 active torsions:
REMARK  status: ('A' for Active; 'I' for Inactive)
REMARK    1  A    between atoms: O_2  and  C_3
REMARK    2  A    between atoms: C_3  and  C_5
REMARK    3  A    between atoms: C_10  and  C_11
REMARK    4  A    between atoms: C_11  and  C_12
REMARK    5  A    between atoms: C_14  and  C_15
REMARK    6  A    between atoms: C_18  and  C_19
REMARK    7  A    between atoms: C_19  and  N_20
REMARK    8  A    between atoms: C_21  and  C_23
REMARK    9  A    between atoms: C_23  and  C_24
REMARK   10  A    between atoms: C_24  and  C_27
REMARK   11  A    between atoms: C_27  and  C_28
REMARK                            x       y       z     vdW  Elec       q    Type
REMARK                         _______ _______ _______ _____ _____    ______ ____
ROOT
ATOM     12  C   UNL     1      -0.844  -0.208  24.589  0.00  0.00    +0.026 C 
ATOM     13  C   UNL     1      -0.754   0.611  24.620  0.00  0.00    +0.005 C 
ATOM     14  C   UNL     1      -0.097   0.966  24.268  0.00  0.00    +0.006 C 
ATOM     18  C   UNL     1       0.467   0.504  23.885  0.00  0.00    +0.043 C 
ATOM     31  C   UNL     1       0.377  -0.316  23.854  0.00  0.00    -0.033 C 
ATOM     32  C   UNL     1      -0.279  -0.672  24.206  0.00  0.00    -0.048 C 
ATOM     33  C   UNL     1      -0.370  -1.492  24.175  0.00  0.00    +0.026 C 
ENDROOT
BRANCH  14  15
ATOM     15  C   UNL     1      -0.007   1.786  24.299  0.00  0.00    +0.000 C 
ATOM     16  C   UNL     1       0.354   2.137  24.953  0.00  0.00    +0.000 C 
ATOM     17  C   UNL     1      -0.277   2.255  23.676  0.00  0.00    +0.000 C 
ENDBRANCH  14  15
BRANCH  12  11
ATOM     11  C   UNL     1      -1.500  -0.565  24.940  0.00  0.00    +0.070 C 
BRANCH  11  10
ATOM      5  C   UNL     1      -4.612   1.136  24.980  0.00  0.00    +0.077 A 
ATOM      6  C   UNL     1      -3.895   1.060  25.379  0.00  0.00    +0.027 A 
ATOM      7  C   UNL     1      -3.321   0.537  25.102  0.00  0.00    +0.100 A 
ATOM      8  C   UNL     1      -3.464   0.089  24.423  0.00  0.00    +0.100 A 
ATOM      9  N   UNL     1      -2.800  -0.377  24.281  0.00  0.00    -0.229 NA
ATOM     10  C   UNL     1      -2.246  -0.219  24.870  0.00  0.00    +0.139 A 
ATOM     34  N   UNL     1      -2.568   0.346  25.377  0.00  0.00    -0.229 NA
ATOM     35  C   UNL     1      -4.182   0.165  24.023  0.00  0.00    +0.021 A 
ATOM     36  C   UNL     1      -4.756   0.689  24.302  0.00  0.00    +0.008 A 
BRANCH   5   3
ATOM      3  C   UNL     1      -5.186   1.659  25.258  0.00  0.00    +0.341 C 
ATOM      4  O   UNL     1      -5.815   1.377  25.711  0.00  0.00    -0.245 OA
BRANCH   3   2
ATOM      1  C   UNL     1      -5.585   3.009  25.503  0.00  0.00    +0.256 C 
ATOM      2  O   UNL     1      -5.131   2.463  25.083  0.00  0.00    -0.441 OA
ENDBRANCH   3   2
ENDBRANCH   5   3
ENDBRANCH  11  10
ENDBRANCH  12  11
BRANCH  18  19
ATOM     19  C   UNL     1       1.124   0.859  23.533  0.00  0.00    +0.119 C 
BRANCH  19  20
ATOM     20  N   UNL     1       1.748   0.395  23.260  0.00  0.00    -0.205 NA
ATOM     21  C   UNL     1       2.471   0.744  23.073  0.00  0.00    +0.241 C 
ATOM     22  O   UNL     1       2.570   1.559  23.160  0.00  0.00    -0.273 OA
BRANCH  21  23
ATOM     23  C   UNL     1       3.095   0.280  22.799  0.00  0.00    +0.087 C 
BRANCH  23  24
ATOM     24  C   UNL     1       3.873   0.480  22.990  0.00  0.00    +0.019 C 
ATOM     25  C   UNL     1       3.908  -0.154  23.516  0.00  0.00    +0.001 C 
ATOM     26  C   UNL     1       3.839   1.114  22.463  0.00  0.00    +0.001 C 
BRANCH  24  27
ATOM     27  C   UNL     1       4.651   0.680  23.179  0.00  0.00    +0.115 C 
BRANCH  27  28
ATOM     28  C   UNL     1       5.200   0.087  23.347  0.00  0.00    +0.365 C 
ATOM     29  O   UNL     1       5.336  -0.138  24.129  0.00  0.00    -0.246 OA
ATOM     30  O   UNL     1       5.612  -0.280  22.734  0.00  0.00    -0.246 OA
ENDBRANCH  27  28
ENDBRANCH  24  27
ENDBRANCH  23  24
ENDBRANCH  21  23
ENDBRANCH  19  20
ENDBRANCH  18  19
TORSDOF 11
ENDMDL
MODEL 2
REMARK VINA RESULT:      -8.1      1.333      2.096
REMARK  Name = 
REMARK  11 active torsions:
REMARK  status: ('A' for Active; 'I' for Inactive)
REMARK    1  A    between atoms: O_2  and  C_3
REMARK    2  A    between atoms: C_3  and  C_5
REMARK    3  A    between atoms: C_10  and  C_11
REMARK    4  A    between atoms: C_11  and  C_12
REMARK    5  A    between atoms: C_14  and  C_15
REMARK    6  A    between atoms: C_18  and  C_19
REMARK    7  A    between atoms: C_19  and  N_20
REMARK    8  A    between atoms: C_21  and  C_23
REMARK    9  A    between atoms: C_23  and  C_24
REMARK   10  A    between atoms: C_24  and  C_27
REMARK   11  A    between atoms: C_27  and  C_28
REMARK                            x       y       z     vdW  Elec       q    Type
REMARK                         _______ _______ _______ _____ _____    ______ ____
ROOT
ATOM     12  C   UNL     1      -0.713   2.205  24.855  0.00  0.00    +0.026 C 
ATOM     13  C   UNL     1      -0.938   1.412  24.829  0.00  0.00    +0.005 C 
ATOM     14  C   UNL     1      -0.476   0.866  24.417  0.00  0.00    +0.006 C 
ATOM     18  C   UNL     1       0.210   1.113  24.032  0.00  0.00    +0.043 C 
ATOM     31  C   UNL     1       0.435   1.906  24.058  0.00  0.00    -0.033 C 
ATOM     32  C   UNL     1      -0.026   2.453  24.469  0.00  0.00    -0.048 C 
ATOM     33  C   UNL     1       0.199   3.246  24.496  0.00  0.00    +0.026 C 
ENDROOT
BRANCH  14  15
ATOM     15  C   UNL     1      -0.701   0.073  24.390  0.00  0.00    +0.000 C 
ATOM     16  C   UNL     1      -0.463  -0.444  24.988  0.00  0.00    +0.000 C 
ATOM     17  C   UNL     1      -1.164  -0.205  23.766  0.00  0.00    +0.000 C 
ENDBRANCH  14  15
BRANCH  12  11
ATOM     11  C   UNL     1      -1.174   2.752  25.266  0.00  0.00    +0.070 C 
BRANCH  11  10
ATOM      5  C   UNL     1      -4.702   2.807  24.905  0.00  0.00    +0.077 A 
ATOM      6  C   UNL     1      -4.090   2.522  25.379  0.00  0.00    +0.027 A 
ATOM      7  C   UNL     1      -3.306   2.692  25.187  0.00  0.00    +0.100 A 
ATOM      8  C   UNL     1      -3.134   3.147  24.520  0.00  0.00    +0.100 A 
ATOM      9  N   UNL     1      -2.315   3.224  24.469  0.00  0.00    -0.229 NA
ATOM     10  C   UNL     1      -1.980   2.818  25.104  0.00  0.00    +0.139 A 
ATOM     34  N   UNL     1      -2.593   2.489  25.547  0.00  0.00    -0.229 NA
ATOM     35  C   UNL     1      -3.746   3.432  24.046  0.00  0.00    +0.021 A 
ATOM     36  C   UNL     1      -4.530   3.261  24.239  0.00  0.00    +0.008 A 
BRANCH   5   3
ATOM      3  C   UNL     1      -5.485   2.637  25.097  0.00  0.00    +0.341 C 
ATOM      4  O   UNL     1      -5.901   3.131  25.611  0.00  0.00    -0.245 OA
BRANCH   3   2
ATOM      1  C   UNL     1      -6.576   1.714  25.080  0.00  0.00    +0.256 C 
ATOM      2  O   UNL     1      -5.855   1.972  24.776  0.00  0.00    -0.441 OA
ENDBRANCH   3   2
ENDBRANCH   5   3
ENDBRANCH  11  10
ENDBRANCH  12  11
BRANCH  18  19
ATOM     19  C   UNL     1       0.672   0.567  23.620  0.00  0.00    +0.119 C 
BRANCH  19  20
ATOM     20  N   UNL     1       1.398   0.796  23.303  0.00  0.00    -0.205 NA
ATOM     21  C   UNL     1       1.852   0.255  22.877  0.00  0.00    +0.241 C 
ATOM     22  O   UNL     1       1.580  -0.516  22.768  0.00  0.00    -0.273 OA
BRANCH  21  23
ATOM     23  C   UNL     1       2.578   0.484  22.561  0.00  0.00    +0.087 C 
BRANCH  23  24
ATOM     24  C   UNL     1       3.281   0.232  22.913  0.00  0.00    +0.019 C 
ATOM     25  C   UNL     1       3.044  -0.552  22.827  0.00  0.00    +0.001 C 
ATOM     26  C   UNL     1       3.518   1.019  22.999  0.00  0.00    +0.001 C 
BRANCH  24  27
ATOM     27  C   UNL     1       3.983  -0.017  23.266  0.00  0.00    +0.115 C 
BRANCH  27  28
ATOM     28  C   UNL     1       4.690   0.377  23.101  0.00  0.00    +0.365 C 
ATOM     29  O   UNL     1       5.037   0.856  23.676  0.00  0.00    -0.246 OA
ATOM     30  O   UNL     1       5.048   0.292  22.363  0.00  0.00    -0.246 OA
ENDBRANCH  27  28
ENDBRANCH  24  27
ENDBRANCH  23  24
ENDBRANCH  21  23
ENDBRANCH  19  20
ENDBRANCH  18  19
TORSDOF 11
ENDMDL
MODEL 3
REMARK VINA RESULT:      -8.1      1.173      7.013
REMARK  Name = 
REMARK  11 active torsions:
REMARK  status: ('A' for Active; 'I' for Inactive)
REMARK    1  A    between atoms: O_2  and  C_3
REMARK    2  A    between atoms: C_3  and  C_5
REMARK    3  A    between atoms: C_10  and  C_11
REMARK    4  A    between atoms: C_11  and  C_12
REMARK    5  A    between atoms: C_14  and  C_15
REMARK    6  A    between atoms: C_18  and  C_19
REMARK    7  A    between atoms: C_19  and  N_20
REMARK    8  A    between atoms: C_21  and  C_23
REMARK    9  A    between atoms: C_23  and  C_24
REMARK   10  A    between atoms: C_24  and  C_27
REMARK   11  A    between atoms: C_27  and  C_28
REMARK                            x       y       z     vdW  Elec       q    Type
REMARK                         _______ _______ _______ _____ _____    ______ ____
ROOT
ATOM     12  C   UNL     1      -0.795   0.327  24.313  0.00  0.00    +0.026 C 
ATOM     13  C   UNL     1      -0.473   1.064  24.497  0.00  0.00    +0.005 C 
ATOM     14  C   UNL     1      -0.970   1.705  24.648  0.00  0.00    +0.006 C 
ATOM     18  C   UNL     1      -1.788   1.610  24.616  0.00  0.00    +0.043 C 
ATOM     31  C   UNL     1      -2.110   0.873  24.433  0.00  0.00    -0.033 C 
ATOM     32  C   UNL     1      -1.614   0.231  24.281  0.00  0.00    -0.048 C 
ATOM     33  C   UNL     1      -1.937  -0.506  24.098  0.00  0.00    +0.026 C 
ENDROOT
BRANCH  14  15
ATOM     15  C   UNL     1      -0.648   2.442  24.831  0.00  0.00    +0.000 C 
ATOM     16  C   UNL     1      -0.521   2.997  24.235  0.00  0.00    +0.000 C 
ATOM     17  C   UNL     1      -0.453   2.625  25.613  0.00  0.00    +0.000 C 
ENDBRANCH  14  15
BRANCH  12  11
ATOM     11  C   UNL     1      -0.299  -0.314  24.162  0.00  0.00    +0.070 C 
BRANCH  11  10
ATOM      5  C   UNL     1       2.838   0.243  22.602  0.00  0.00    +0.077 A 
ATOM      6  C   UNL     1       2.448   0.262  23.328  0.00  0.00    +0.027 A 
ATOM      7  C   UNL     1       1.648   0.062  23.373  0.00  0.00    +0.100 A 
ATOM      8  C   UNL     1       1.240  -0.157  22.691  0.00  0.00    +0.100 A 
ATOM      9  N   UNL     1       0.461  -0.325  22.903  0.00  0.00    -0.229 NA
ATOM     10  C   UNL     1       0.388  -0.209  23.717  0.00  0.00    +0.139 A 
ATOM     34  N   UNL     1       1.122   0.030  24.007  0.00  0.00    -0.229 NA
ATOM     35  C   UNL     1       1.630  -0.176  21.964  0.00  0.00    +0.021 A 
ATOM     36  C   UNL     1       2.429   0.024  21.920  0.00  0.00    +0.008 A 
BRANCH   5   3
ATOM      3  C   UNL     1       3.636   0.444  22.558  0.00  0.00    +0.341 C 
ATOM      4  O   UNL     1       3.883   1.044  22.048  0.00  0.00    -0.245 OA
BRANCH   3   2
ATOM      1  C   UNL     1       4.968   0.313  23.060  0.00  0.00    +0.256 C 
ATOM      2  O   UNL     1       4.189   0.044  23.022  0.00  0.00    -0.441 OA
ENDBRANCH   3   2
ENDBRANCH   5   3
ENDBRANCH  11  10
ENDBRANCH  12  11
BRANCH  18  19
ATOM     19  C   UNL     1      -2.286   2.251  24.768  0.00  0.00    +0.119 C 
BRANCH  19  20
ATOM     20  N   UNL     1      -3.081   2.215  24.555  0.00  0.00    -0.205 NA
ATOM     21  C   UNL     1      -3.620   2.751  24.877  0.00  0.00    +0.241 C 
ATOM     22  O   UNL     1      -3.361   3.322  25.414  0.00  0.00    -0.273 OA
BRANCH  21  23
ATOM     23  C   UNL     1      -4.415   2.716  24.665  0.00  0.00    +0.087 C 
BRANCH  23  24
ATOM     24  C   UNL     1      -4.998   2.684  25.248  0.00  0.00    +0.019 C 
ATOM     25  C   UNL     1      -4.993   1.861  25.209  0.00  0.00    +0.001 C 
ATOM     26  C   UNL     1      -5.003   3.509  25.286  0.00  0.00    +0.001 C 
BRANCH  24  27
ATOM     27  C   UNL     1      -5.581   2.655  25.831  0.00  0.00    +0.115 C 
BRANCH  27  28
ATOM     28  C   UNL     1      -6.213   2.128  25.756  0.00  0.00    +0.365 C 
ATOM     29  O   UNL     1      -6.634   2.089  25.047  0.00  0.00    -0.246 OA
ATOM     30  O   UNL     1      -6.422   1.642  26.388  0.00  0.00    -0.246 OA
ENDBRANCH  27  28
ENDBRANCH  24  27
ENDBRANCH  23  24
ENDBRANCH  21  23
ENDBRANCH  19  20
ENDBRANCH  18  19
TORSDOF 11
ENDMDL
MODEL 4
REMARK VINA RESULT:      -7.8      3.782      5.278
REMARK  Name = 
REMARK  11 active torsions:
REMARK  status: ('A' for Active; 'I' for Inactive)
REMARK    1  A    between atoms: O_2  and  C_3
REMARK    2  A    between atoms: C_3  and  C_5
REMARK    3  A    between atoms: C_10  and  C_11
REMARK    4  A    between atoms: C_11  and  C_12
REMARK    5  A    between atoms: C_14  and  C_15
REMARK    6  A    between atoms: C_18  and  C_19
REMARK    7  A    between atoms: C_19  and  N_20
REMARK    8  A    between atoms: C_21  and  C_23
REMARK    9  A    between atoms: C_23  and  C_24
REMARK   10  A    between atoms: C_24  and  C_27
REMARK   11  A    between atoms: C_27  and  C_28
REMARK                            x       y       z     vdW  Elec       q    Type
REMARK                         _______ _______ _______ _____ _____    ______ ____
ROOT
ATOM     12  C   UNL     1      -4.849   1.541  24.749  0.00  0.00    +0.026 C 
ATOM     13  C   UNL     1      -4.431   1.706  24.057  0.00  0.00    +0.005 C 
ATOM     14  C   UNL     1      -4.033   2.425  23.978  0.00  0.00    +0.006 C 
ATOM     18  C   UNL     1      -4.053   2.977  24.590  0.00  0.00    +0.043 C 
ATOM     31  C   UNL     1      -4.472   2.812  25.281  0.00  0.00    -0.033 C 
ATOM     32  C   UNL     1      -4.870   2.094  25.361  0.00  0.00    -0.048 C 
ATOM     33  C   UNL     1      -5.288   1.929  26.053  0.00  0.00    +0.026 C 
ENDROOT
BRANCH  14  15
ATOM     15  C   UNL     1      -3.615   2.590  23.287  0.00  0.00    +0.000 C 
ATOM     16  C   UNL     1      -3.914   3.133  22.743  0.00  0.00    +0.000 C 
ATOM     17  C   UNL     1      -2.896   2.212  23.138  0.00  0.00    +0.000 C 
ENDBRANCH  14  15
BRANCH  12  11
ATOM     11  C   UNL     1      -5.248   0.823  24.829  0.00  0.00    +0.070 C 
BRANCH  11  10
ATOM      5  C   UNL     1      -3.280  -2.121  24.618  0.00  0.00    +0.077 A 
ATOM      6  C   UNL     1      -3.373  -1.416  25.035  0.00  0.00    +0.027 A 
ATOM      7  C   UNL     1      -3.975  -0.890  24.830  0.00  0.00    +0.100 A 
ATOM      8  C   UNL     1      -4.485  -1.071  24.207  0.00  0.00    +0.100 A 
ATOM      9  N   UNL     1      -5.023  -0.451  24.131  0.00  0.00    -0.229 NA
ATOM     10  C   UNL     1      -4.847   0.112  24.707  0.00  0.00    +0.139 A 
ATOM     34  N   UNL     1      -4.199  -0.159  25.138  0.00  0.00    -0.229 NA
ATOM     35  C   UNL     1      -4.393  -1.777  23.790  0.00  0.00    +0.021 A 
ATOM     36  C   UNL     1      -3.790  -2.302  23.996  0.00  0.00    +0.008 A 
BRANCH   5   3
ATOM      3  C   UNL     1      -2.679  -2.646  24.824  0.00  0.00    +0.341 C 
ATOM      4  O   UNL     1      -2.838  -3.279  25.328  0.00  0.00    -0.245 OA
BRANCH   3   2
ATOM      1  C   UNL     1      -1.267  -2.833  24.937  0.00  0.00    +0.256 C 
ATOM      2  O   UNL     1      -1.917  -2.539  24.525  0.00  0.00    -0.441 OA
ENDBRANCH   3   2
ENDBRANCH   5   3
ENDBRANCH  11  10
ENDBRANCH  12  11
BRANCH  18  19
ATOM     19  C   UNL     1      -3.655   3.696  24.511  0.00  0.00    +0.119 C 
BRANCH  19  20
ATOM     20  N   UNL     1      -3.031   3.880  25.017  0.00  0.00    -0.205 NA
ATOM     21  C   UNL     1      -2.696   4.634  25.002  0.00  0.00    +0.241 C 
ATOM     22  O   UNL     1      -2.985   5.203  24.479  0.00  0.00    -0.273 OA
BRANCH  21  23
ATOM     23  C   UNL     1      -2.072   4.818  25.508  0.00  0.00    +0.087 C 
BRANCH  23  24
ATOM     24  C   UNL     1      -1.292   4.756  25.244  0.00  0.00    +0.019 C 
ATOM     25  C   UNL     1      -1.382   5.453  24.813  0.00  0.00    +0.001 C 
ATOM     26  C   UNL     1      -1.203   4.058  25.675  0.00  0.00    +0.001 C 
BRANCH  24  27
ATOM     27  C   UNL     1      -0.513   4.693  24.980  0.00  0.00    +0.115 C 
BRANCH  27  28
ATOM     28  C   UNL     1      -0.167   3.948  24.891  0.00  0.00    +0.365 C 
ATOM     29  O   UNL     1      -0.084   3.620  24.139  0.00  0.00    -0.246 OA
ATOM     30  O   UNL     1       0.094   3.533  25.555  0.00  0.00    -0.246 OA
ENDBRANCH  27  28
ENDBRANCH  24  27
ENDBRANCH  23  24
ENDBRANCH  21  23
ENDBRANCH  19  20
ENDBRANCH  18  19
TORSDOF 11
ENDMDL
MODEL 5
REMARK VINA RESULT:      -7.8      1.463      6.976
REMARK  Name = 
REMARK  11 active torsions:
REMARK  status: ('A' for Active; 'I' for Inactive)
REMARK    1  A    between atoms: O_2  and  C_3
REMARK    2  A    between atoms: C_3  and  C_5
REMARK    3  A    between atoms: C_10  and  C_11
REMARK    4  A    between atoms: C_11  and  C_12
REMARK    5  A    between atoms: C_14  and  C_15
REMARK    6  A    between atoms: C_18  and  C_19
REMARK    7  A    between atoms: C_19  and  N_20
REMARK    8  A    between atoms: C_21  and  C_23
REMARK    9  A    between atoms: C_23  and  C_24
REMARK   10  A    between atoms: C_24  and  C_27
REMARK   11  A    between atoms: C_27  and  C_28
REMARK                            x       y       z     vdW  Elec       q    Type
REMARK                         _______ _______ _______ _____ _____    ______ ____
ROOT
ATOM     12  C   UNL     1      -1.984  -0.963  25.091  0.00  0.00    +0.026 C 
ATOM     13  C   UNL     1      -2.467  -1.129  24.444  0.00  0.00    +0.005 C 
ATOM     14  C   UNL     1      -3.251  -0.871  24.438  0.00  0.00    +0.006 C 
ATOM     18  C   UNL     1      -3.551  -0.448  25.078  0.00  0.00    +0.043 C 
ATOM     31  C   UNL     1      -3.068  -0.282  25.726  0.00  0.00    -0.033 C 
ATOM     32  C   UNL     1      -2.284  -0.539  25.733  0.00  0.00    -0.048 C 
ATOM     33  C   UNL     1      -1.801  -0.373  26.381  0.00  0.00    +0.026 C 
ENDROOT
BRANCH  14  15
ATOM     15  C   UNL     1      -3.734  -1.037  23.790  0.00  0.00    +0.000 C 
ATOM     16  C   UNL     1      -4.215  -1.707  23.795  0.00  0.00    +0.000 C 
ATOM     17  C   UNL     1      -3.737  -0.532  23.137  0.00  0.00    +0.000 C 
ENDBRANCH  14  15
BRANCH  12  11
ATOM     11  C   UNL     1      -1.200  -1.220  25.098  0.00  0.00    +0.070 C 
BRANCH  11  10
ATOM      5  C   UNL     1       1.316   0.046  22.943  0.00  0.00    +0.077 A 
ATOM      6  C   UNL     1       0.935  -0.645  23.180  0.00  0.00    +0.027 A 
ATOM      7  C   UNL     1       0.339  -0.614  23.750  0.00  0.00    +0.100 A 
ATOM      8  C   UNL     1       0.125   0.109  24.083  0.00  0.00    +0.100 A 
ATOM      9  N   UNL     1      -0.478  -0.029  24.628  0.00  0.00    -0.229 NA
ATOM     10  C   UNL     1      -0.636  -0.839  24.633  0.00  0.00    +0.139 A 
ATOM     34  N   UNL     1      -0.131  -1.200  24.090  0.00  0.00    -0.229 NA
ATOM     35  C   UNL     1       0.506   0.802  23.846  0.00  0.00    +0.021 A 
ATOM     36  C   UNL     1       1.102   0.770  23.276  0.00  0.00    +0.008 A 
BRANCH   5   3
ATOM      3  C   UNL     1       1.912   0.015  22.374  0.00  0.00    +0.341 C 
ATOM      4  O   UNL     1       1.735  -0.228  21.605  0.00  0.00    -0.245 OA
BRANCH   3   2
ATOM      1  C   UNL     1       3.275   0.218  21.997  0.00  0.00    +0.256 C 
ATOM      2  O   UNL     1       2.684   0.226  22.572  0.00  0.00    -0.441 OA
ENDBRANCH   3   2
ENDBRANCH   5   3
ENDBRANCH  11  10
ENDBRANCH  12  11
BRANCH  18  19
ATOM     19  C   UNL     1      -4.335  -0.190  25.072  0.00  0.00    +0.119 C 
BRANCH  19  20
ATOM     20  N   UNL     1      -4.552   0.484  25.495  0.00  0.00    -0.205 NA
ATOM     21  C   UNL     1      -5.255   0.877  25.316  0.00  0.00    +0.241 C 
ATOM     22  O   UNL     1      -5.742   0.595  24.712  0.00  0.00    -0.273 OA
BRANCH  21  23
ATOM     23  C   UNL     1      -5.471   1.550  25.739  0.00  0.00    +0.087 C 
BRANCH  23  24
ATOM     24  C   UNL     1      -5.492   2.285  25.364  0.00  0.00    +0.019 C 
ATOM     25  C   UNL     1      -4.778   2.489  25.722  0.00  0.00    +0.001 C 
ATOM     26  C   UNL     1      -6.208   2.080  25.005  0.00  0.00    +0.001 C 
BRANCH  24  27
ATOM     27  C   UNL     1      -5.515   3.019  24.988  0.00  0.00    +0.115 C 
BRANCH  27  28
ATOM     28  C   UNL     1      -5.417   3.710  25.428  0.00  0.00    +0.365 C 
ATOM     29  O   UNL     1      -6.064   4.047  25.815  0.00  0.00    -0.246 OA
ATOM     30  O   UNL     1      -4.674   4.064  25.482  0.00  0.00    -0.246 OA
ENDBRANCH  27  28
ENDBRANCH  24  27
ENDBRANCH  23  24
ENDBRANCH  21  23
ENDBRANCH  19  20
ENDBRANCH  18  19
TORSDOF 11
ENDMDL
MODEL 6
REMARK VINA RESULT:      -7.5      1.606      2.448
REMARK  Name = 
REMARK  11 active torsions:
REMARK  status: ('A' for Active; 'I' for Inactive)
REMARK    1  A    between atoms: O_2  and  C_3
REMARK    2  A    between atoms: C_3  and  C_5
REMARK    3  A    between atoms: C_10  and  C_11
REMARK    4  A    between atoms: C_11  and  C_12
REMARK    5  A    between atoms: C_14  and  C_15
REMARK    6  A    between atoms: C_18  and  C_19
REMARK    7  A    between atoms: C_19  and  N_20
REMARK    8  A    between atoms: C_21  and  C_23
REMARK    9  A    between atoms: C_23  and  C_24
REMARK   10  A    between atoms: C_24  and  C_27
REMARK   11  A    between atoms: C_27  and  C_28
REMARK                            x       y       z     vdW  Elec       q    Type
REMARK                         _______ _______ _______ _____ _____    ______ ____
ROOT
ATOM     12  C   UNL     1      -2.247   2.354  23.502  0.00  0.00    +0.026 C 
ATOM     13  C   UNL     1      -1.855   2.350  24.228  0.00  0.00    +0.005 C 
ATOM     14  C   UNL     1      -1.187   1.877  24.332  0.00  0.00    +0.006 C 
ATOM     18  C   UNL     1      -0.912   1.408  23.713  0.00  0.00    +0.043 C 
ATOM     31  C   UNL     1      -1.304   1.411  22.987  0.00  0.00    -0.033 C 
ATOM     32  C   UNL     1      -1.972   1.884  22.881  0.00  0.00    -0.048 C 
ATOM     33  C   UNL     1      -2.364   1.887  22.156  0.00  0.00    +0.026 C 
ENDROOT
BRANCH  14  15
ATOM     15  C   UNL     1      -0.794   1.873  25.058  0.00  0.00    +0.000 C 
ATOM     16  C   UNL     1      -0.941   1.273  25.604  0.00  0.00    +0.000 C 
ATOM     17  C   UNL     1      -0.254   2.471  25.238  0.00  0.00    +0.000 C 
ENDBRANCH  14  15
BRANCH  12  11
ATOM     11  C   UNL     1      -2.915   2.826  23.396  0.00  0.00    +0.070 C 
BRANCH  11  10
ATOM      5  C   UNL     1      -5.620   2.389  25.649  0.00  0.00    +0.077 A 
ATOM      6  C   UNL     1      -5.199   2.023  25.042  0.00  0.00    +0.027 A 
ATOM      7  C   UNL     1      -4.566   2.413  24.684  0.00  0.00    +0.100 A 
ATOM      8  C   UNL     1      -4.353   3.170  24.934  0.00  0.00    +0.100 A 
ATOM      9  N   UNL     1      -3.709   3.417  24.483  0.00  0.00    -0.229 NA
ATOM     10  C   UNL     1      -3.523   2.813  23.953  0.00  0.00    +0.139 A 
ATOM     34  N   UNL     1      -4.053   2.193  24.078  0.00  0.00    -0.229 NA
ATOM     35  C   UNL     1      -4.774   3.537  25.542  0.00  0.00    +0.021 A 
ATOM     36  C   UNL     1      -5.407   3.146  25.899  0.00  0.00    +0.008 A 
BRANCH   5   3
ATOM      3  C   UNL     1      -6.252   2.000  26.005  0.00  0.00    +0.341 C 
ATOM      4  O   UNL     1      -6.828   1.636  25.540  0.00  0.00    -0.245 OA
BRANCH   3   2
ATOM      1  C   UNL     1      -6.846   1.460  27.188  0.00  0.00    +0.256 C 
ATOM      2  O   UNL     1      -6.310   1.973  26.828  0.00  0.00    -0.441 OA
ENDBRANCH   3   2
ENDBRANCH   5   3
ENDBRANCH  11  10
ENDBRANCH  12  11
BRANCH  18  19
ATOM     19  C   UNL     1      -0.244   0.934  23.818  0.00  0.00    +0.119 C 
BRANCH  19  20
ATOM     20  N   UNL     1       0.348   0.922  23.244  0.00  0.00    -0.205 NA
ATOM     21  C   UNL     1       0.873   0.287  23.205  0.00  0.00    +0.241 C 
ATOM     22  O   UNL     1       0.805  -0.337  23.741  0.00  0.00    -0.273 OA
BRANCH  21  23
ATOM     23  C   UNL     1       1.465   0.275  22.632  0.00  0.00    +0.087 C 
BRANCH  23  24
ATOM     24  C   UNL     1       2.255   0.196  22.855  0.00  0.00    +0.019 C 
ATOM     25  C   UNL     1       2.278   0.994  23.060  0.00  0.00    +0.001 C 
ATOM     26  C   UNL     1       2.232  -0.604  22.650  0.00  0.00    +0.001 C 
BRANCH  24  27
ATOM     27  C   UNL     1       3.045   0.115  23.078  0.00  0.00    +0.115 C 
BRANCH  27  28
ATOM     28  C   UNL     1       3.629   0.557  22.696  0.00  0.00    +0.365 C 
ATOM     29  O   UNL     1       4.135   1.037  23.136  0.00  0.00    -0.246 OA
ATOM     30  O   UNL     1       3.705   0.519  21.875  0.00  0.00    -0.246 OA
ENDBRANCH  27  28
ENDBRANCH  24  27
ENDBRANCH  23  24
ENDBRANCH  21  23
ENDBRANCH  19  20
ENDBRANCH  18  19
TORSDOF 11
ENDMDL
MODEL 7
REMARK VINA RESULT:      -7.3      4.049      5.761
REMARK  Name = 
REMARK  11 active torsions:
REMARK  status: ('A' for Active; 'I' for Inactive)
REMARK    1  A    between atoms: O_2  and  C_3
REMARK    2  A    between atoms: C_3  and  C_5
REMARK    3  A    between atoms: C_10  and  C_11
REMARK    4  A    between atoms: C_11  and  C_12
REMARK    5  A    between atoms: C_14  and  C_15
REMARK    6  A    between atoms: C_18  and  C_19
REMARK    7  A    between atoms: C_19  and  N_20
REMARK    8  A    between atoms: C_21  and  C_23
REMARK    9  A    between atoms: C_23  and  C_24
REMARK   10  A    between atoms: C_24  and  C_27
REMARK   11  A    between atoms: C_27  and  C_28
REMARK                            x       y       z     vdW  Elec       q    Type
REMARK                         _______ _______ _______ _____ _____    ______ ____
ROOT
ATOM     12  C   UNL     1      -4.661   1.967  24.744  0.00  0.00    +0.026 C 
ATOM     13  C   UNL     1      -4.032   1.790  24.241  0.00  0.00    +0.005 C 
ATOM     14  C   UNL     1      -3.908   1.013  23.994  0.00  0.00    +0.006 C 
ATOM     18  C   UNL     1      -4.413   0.413  24.249  0.00  0.00    +0.043 C 
ATOM     31  C   UNL     1      -5.042   0.590  24.752  0.00  0.00    -0.033 C 
ATOM     32  C   UNL     1      -5.167   1.367  25.000  0.00  0.00    -0.048 C 
ATOM     33  C   UNL     1      -5.796   1.544  25.503  0.00  0.00    +0.026 C 
ENDROOT
BRANCH  14  15
ATOM     15  C   UNL     1      -3.279   0.835  23.491  0.00  0.00    +0.000 C 
ATOM     16  C   UNL     1      -3.409   0.750  22.681  0.00  0.00    +0.000 C 
ATOM     17  C   UNL     1      -2.518   0.743  23.798  0.00  0.00    +0.000 C 
ENDBRANCH  14  15
BRANCH  12  11
ATOM     11  C   UNL     1      -4.786   2.744  24.992  0.00  0.00    +0.070 C 
BRANCH  11  10
ATOM      5  C   UNL     1      -1.973   4.877  25.333  0.00  0.00    +0.077 A 
ATOM      6  C   UNL     1      -2.463   4.514  24.780  0.00  0.00    +0.027 A 
ATOM      7  C   UNL     1      -3.087   4.035  25.031  0.00  0.00    +0.100 A 
ATOM      8  C   UNL     1      -3.219   3.921  25.837  0.00  0.00    +0.100 A 
ATOM      9  N   UNL     1      -3.871   3.423  25.921  0.00  0.00    -0.229 NA
ATOM     10  C   UNL     1      -4.143   3.230  25.166  0.00  0.00    +0.139 A 
ATOM     34  N   UNL     1      -3.658   3.609  24.617  0.00  0.00    -0.229 NA
ATOM     35  C   UNL     1      -2.728   4.285  26.392  0.00  0.00    +0.021 A 
ATOM     36  C   UNL     1      -2.105   4.763  26.140  0.00  0.00    +0.008 A 
BRANCH   5   3
ATOM      3  C   UNL     1      -1.350   5.355  25.082  0.00  0.00    +0.341 C 
ATOM      4  O   UNL     1      -1.463   6.168  24.994  0.00  0.00    -0.245 OA
BRANCH   3   2
ATOM      1  C   UNL     1      -0.123   5.363  24.349  0.00  0.00    +0.256 C 
ATOM      2  O   UNL     1      -0.613   5.022  24.917  0.00  0.00    -0.441 OA
ENDBRANCH   3   2
ENDBRANCH   5   3
ENDBRANCH  11  10
ENDBRANCH  12  11
BRANCH  18  19
ATOM     19  C   UNL     1      -4.289  -0.365  24.002  0.00  0.00    +0.119 C 
BRANCH  19  20
ATOM     20  N   UNL     1      -4.050  -0.937  24.544  0.00  0.00    -0.205 NA
ATOM     21  C   UNL     1      -4.120  -1.738  24.358  0.00  0.00    +0.241 C 
ATOM     22  O   UNL     1      -4.431  -1.966  23.629  0.00  0.00    -0.273 OA
BRANCH  21  23
ATOM     23  C   UNL     1      -3.880  -2.311  24.901  0.00  0.00    +0.087 C 
BRANCH  23  24
ATOM     24  C   UNL     1      -3.171  -2.717  24.786  0.00  0.00    +0.019 C 
ATOM     25  C   UNL     1      -2.879  -2.407  25.492  0.00  0.00    +0.001 C 
ATOM     26  C   UNL     1      -3.465  -3.028  24.080  0.00  0.00    +0.001 C 
BRANCH  24  27
ATOM     27  C   UNL     1      -2.463  -3.124  24.671  0.00  0.00    +0.115 C 
BRANCH  27  28
ATOM     28  C   UNL     1      -1.749  -2.710  24.644  0.00  0.00    +0.365 C 
ATOM     29  O   UNL     1      -1.381  -2.481  25.346  0.00  0.00    -0.246 OA
ATOM     30  O   UNL     1      -1.406  -2.527  23.917  0.00  0.00    -0.246 OA
ENDBRANCH  27  28
ENDBRANCH  24  27
ENDBRANCH  23  24
ENDBRANCH  21  23
ENDBRANCH  19  20
ENDBRANCH  18  19
TORSDOF 11
ENDMDL
MODEL 8
REMARK VINA RESULT:      -6.8      3.323      5.695
REMARK  Name = 
REMARK  11 active torsions:
REMARK  status: ('A' for Active; 'I' for Inactive)
REMARK    1  A    between atoms: O_2  and  C_3
REMARK    2  A    between atoms: C_3  and  C_5
REMARK    3  A    between atoms: C_10  and  C_11
REMARK    4  A    between atoms: C_11  and  C_12
REMARK    5  A    between atoms: C_14  and  C_15
REMARK    6  A    between atoms: C_18  and  C_19
REMARK    7  A    between atoms: C_19  and  N_20
REMARK    8  A    between atoms: C_21  and  C_23
REMARK    9  A    between atoms: C_23  and  C_24
REMARK   10  A    between atoms: C_24  and  C_27
REMARK   11  A    between atoms: C_27  and  C_28
REMARK                            x       y       z     vdW  Elec       q    Type
REMARK                         _______ _______ _______ _____ _____    ______ ____
ROOT
ATOM     12  C   UNL     1      -0.427   1.172  24.244  0.00  0.00    +0.026 C 
ATOM     13  C   UNL     1      -0.251   1.390  25.020  0.00  0.00    +0.005 C 
ATOM     14  C   UNL     1      -0.493   2.126  25.305  0.00  0.00    +0.006 C 
ATOM     18  C   UNL     1      -0.910   2.642  24.816  0.00  0.00    +0.043 C 
ATOM     31  C   UNL     1      -1.086   2.423  24.040  0.00  0.00    -0.033 C 
ATOM     32  C   UNL     1      -0.844   1.688  23.754  0.00  0.00    -0.048 C 
ATOM     33  C   UNL     1      -1.020   1.470  22.978  0.00  0.00    +0.026 C 
ENDROOT
BRANCH  14  15
ATOM     15  C   UNL     1      -0.318   2.344  26.081  0.00  0.00    +0.000 C 
ATOM     16  C   UNL     1      -0.797   2.086  26.702  0.00  0.00    +0.000 C 
ATOM     17  C   UNL     1       0.337   2.822  26.238  0.00  0.00    +0.000 C 
ENDBRANCH  14  15
BRANCH  12  11
ATOM     11  C   UNL     1      -0.185   0.437  23.957  0.00  0.00    +0.070 C 
BRANCH  11  10
ATOM      5  C   UNL     1      -2.323  -2.297  24.691  0.00  0.00    +0.077 A 
ATOM      6  C   UNL     1      -2.308  -1.534  24.378  0.00  0.00    +0.027 A 
ATOM      7  C   UNL     1      -1.597  -1.118  24.338  0.00  0.00    +0.100 A 
ATOM      8  C   UNL     1      -0.900  -1.465  24.611  0.00  0.00    +0.100 A 
ATOM      9  N   UNL     1      -0.287  -0.925  24.502  0.00  0.00    -0.229 NA
ATOM     10  C   UNL     1      -0.604  -0.244  24.161  0.00  0.00    +0.139 A 
ATOM     34  N   UNL     1      -1.414  -0.364  24.060  0.00  0.00    -0.229 NA
ATOM     35  C   UNL     1      -0.915  -2.228  24.924  0.00  0.00    +0.021 A 
ATOM     36  C   UNL     1      -1.626  -2.644  24.964  0.00  0.00    +0.008 A 
BRANCH   5   3
ATOM      3  C   UNL     1      -3.033  -2.713  24.731  0.00  0.00    +0.341 C 
ATOM      4  O   UNL     1      -3.376  -2.875  25.464  0.00  0.00    -0.245 OA
BRANCH   3   2
ATOM      1  C   UNL     1      -4.221  -3.064  24.019  0.00  0.00    +0.256 C 
ATOM      2  O   UNL     1      -3.403  -2.968  24.039  0.00  0.00    -0.441 OA
ENDBRANCH   3   2
ENDBRANCH   5   3
ENDBRANCH  11  10
ENDBRANCH  12  11
BRANCH  18  19
ATOM     19  C   UNL     1      -1.152   3.377  25.102  0.00  0.00    +0.119 C 
BRANCH  19  20
ATOM     20  N   UNL     1      -1.936   3.617  25.013  0.00  0.00    -0.205 NA
ATOM     21  C   UNL     1      -2.160   4.384  25.220  0.00  0.00    +0.241 C 
ATOM     22  O   UNL     1      -1.598   4.911  25.516  0.00  0.00    -0.273 OA
BRANCH  21  23
ATOM     23  C   UNL     1      -2.943   4.624  25.131  0.00  0.00    +0.087 C 
BRANCH  23  24
ATOM     24  C   UNL     1      -3.549   4.206  25.506  0.00  0.00    +0.019 C 
ATOM     25  C   UNL     1      -3.804   3.921  24.776  0.00  0.00    +0.001 C 
ATOM     26  C   UNL     1      -3.292   4.491  26.237  0.00  0.00    +0.001 C 
BRANCH  24  27
ATOM     27  C   UNL     1      -4.153   3.788  25.881  0.00  0.00    +0.115 C 
BRANCH  27  28
ATOM     28  C   UNL     1      -4.902   3.749  25.536  0.00  0.00    +0.365 C 
ATOM     29  O   UNL     1      -5.153   3.052  25.174  0.00  0.00    -0.246 OA
ATOM     30  O   UNL     1      -5.400   4.407  25.555  0.00  0.00    -0.246 OA
ENDBRANCH  27  28
ENDBRANCH  24  27
ENDBRANCH  23  24
ENDBRANCH  21  23
ENDBRANCH  19  20
ENDBRANCH  18  19
TORSDOF 11
ENDMDL
MODEL 9
REMARK VINA RESULT:      -5.4     16.996     17.953
REMARK  Name = 
REMARK  11 active torsions:
REMARK  status: ('A' for Active; 'I' for Inactive)
REMARK    1  A    between atoms: O_2  and  C_3
REMARK    2  A    between atoms: C_3  and  C_5
REMARK    3  A    between atoms: C_10  and  C_11
REMARK    4  A    between atoms: C_11  and  C_12
REMARK    5  A    between atoms: C_14  and  C_15
REMARK    6  A    between atoms: C_18  and  C_19
REMARK    7  A    between atoms: C_19  and  N_20
REMARK    8  A    between atoms: C_21  and  C_23
REMARK    9  A    between atoms: C_23  and  C_24
REMARK   10  A    between atoms: C_24  and  C_27
REMARK   11  A    between atoms: C_27  and  C_28
REMARK                            x       y       z     vdW  Elec       q    Type
REMARK                         _______ _______ _______ _____ _____    ______ ____
ROOT
ATOM     12  C   UNL     1      -6.009  -9.444   8.977  0.00  0.00    +0.026 C 
ATOM     13  C   UNL     1      -6.131  -9.077   9.705  0.00  0.00    +0.005 C 
ATOM     14  C   UNL     1      -5.575  -9.165  10.309  0.00  0.00    +0.006 C 
ATOM     18  C   UNL     1      -4.899  -9.620  10.185  0.00  0.00    +0.043 C 
ATOM     31  C   UNL     1      -4.778  -9.988   9.456  0.00  0.00    -0.033 C 
ATOM     32  C   UNL     1      -5.332  -9.900   8.852  0.00  0.00    -0.048 C 
ATOM     33  C   UNL     1      -5.211 -10.268   8.124  0.00  0.00    +0.026 C 
ENDROOT
BRANCH  14  15
ATOM     15  C   UNL     1      -5.697  -8.797  11.038  0.00  0.00    +0.000 C 
ATOM     16  C   UNL     1      -5.486  -8.007  11.141  0.00  0.00    +0.000 C 
ATOM     17  C   UNL     1      -6.030  -9.221  11.663  0.00  0.00    +0.000 C 
ENDBRANCH  14  15
BRANCH  12  11
ATOM     11  C   UNL     1      -6.564  -9.357   8.372  0.00  0.00    +0.070 C 
BRANCH  11  10
ATOM      5  C   UNL     1      -9.284  -7.125   8.822  0.00  0.00    +0.077 A 
ATOM      6  C   UNL     1      -8.487  -7.163   8.613  0.00  0.00    +0.027 A 
ATOM      7  C   UNL     1      -8.098  -7.890   8.600  0.00  0.00    +0.100 A 
ATOM      8  C   UNL     1      -8.506  -8.580   8.796  0.00  0.00    +0.100 A 
ATOM      9  N   UNL     1      -7.981  -9.213   8.735  0.00  0.00    -0.229 NA
ATOM     10  C   UNL     1      -7.248  -8.915   8.501  0.00  0.00    +0.139 A 
ATOM     34  N   UNL     1      -7.321  -8.098   8.417  0.00  0.00    -0.229 NA
ATOM     35  C   UNL     1      -9.303  -8.542   9.006  0.00  0.00    +0.021 A 
ATOM     36  C   UNL     1      -9.692  -7.815   9.019  0.00  0.00    +0.008 A 
BRANCH   5   3
ATOM      3  C   UNL     1      -9.673  -6.399   8.835  0.00  0.00    +0.341 C 
ATOM      4  O   UNL     1     -10.343  -6.298   9.306  0.00  0.00    -0.245 OA
BRANCH   3   2
ATOM      1  C   UNL     1      -9.704  -5.015   8.480  0.00  0.00    +0.256 C 
ATOM      2  O   UNL     1      -9.392  -5.771   8.378  0.00  0.00    -0.441 OA
ENDBRANCH   3   2
ENDBRANCH   5   3
ENDBRANCH  11  10
ENDBRANCH  12  11
BRANCH  18  19
ATOM     19  C   UNL     1      -4.344  -9.709  10.789  0.00  0.00    +0.119 C 
BRANCH  19  20
ATOM     20  N   UNL     1      -3.542  -9.772  10.607  0.00  0.00    -0.205 NA
ATOM     21  C   UNL     1      -3.002  -9.993  11.190  0.00  0.00    +0.241 C 
ATOM     22  O   UNL     1      -3.265 -10.150  11.956  0.00  0.00    -0.273 OA
BRANCH  21  23
ATOM     23  C   UNL     1      -2.201 -10.057  11.008  0.00  0.00    +0.087 C 
BRANCH  23  24
ATOM     24  C   UNL     1      -1.644  -9.625  11.437  0.00  0.00    +0.019 C 
ATOM     25  C   UNL     1      -1.603 -10.231  11.995  0.00  0.00    +0.001 C 
ATOM     26  C   UNL     1      -1.685  -9.018  10.879  0.00  0.00    +0.001 C 
BRANCH  24  27
ATOM     27  C   UNL     1      -1.087  -9.193  11.866  0.00  0.00    +0.115 C 
BRANCH  27  28
ATOM     28  C   UNL     1      -0.425  -8.881  11.484  0.00  0.00    +0.365 C 
ATOM     29  O   UNL     1      -0.044  -8.218  11.795  0.00  0.00    -0.246 OA
ATOM     30  O   UNL     1      -0.144  -9.231  10.792  0.00  0.00    -0.246 OA
ENDBRANCH  27  28
ENDBRANCH  24  27
ENDBRANCH  23  24
ENDBRANCH  21  23
ENDBRANCH  19  20
ENDBRANCH  18  19
TORSDOF 11
ENDMDL
MODEL 10
REMARK VINA RESULT:      -5.3     14.595     15.581
REMARK  Name = 
REMARK  11 active torsions:
REMARK  status: ('A' for Active; 'I' for Inactive)
REMARK    1  A    between atoms: O_2  and  C_3
REMARK    2  A    between atoms: C_3  and  C_5
REMARK    3  A    between atoms: C_10  and  C_11
REMARK    4  A    between atoms: C_11  and  C_12
REMARK    5  A    between atoms: C_14  and  C_15
REMARK    6  A    between atoms: C_18  and  C_19
REMARK    7  A    between atoms: C_19  and  N_20
REMARK    8  A    between atoms: C_21  and  C_23
REMARK    9  A    between atoms: C_23  and  C_24
REMARK   10  A    between atoms: C_24  and  C_27
REMARK   11  A    between atoms: C_27  and  C_28
REMARK                            x       y       z     vdW  Elec       q    Type
REMARK                         _______ _______ _______ _____ _____    ______ ____
ROOT
ATOM     12  C   UNL     1      -5.857 -10.572  15.008  0.00  0.00    +0.026 C 
ATOM     13  C   UNL     1      -6.339 -10.415  14.357  0.00  0.00    +0.005 C 
ATOM     14  C   UNL     1      -6.004 -10.313  13.611  0.00  0.00    +0.006 C 
ATOM     18  C   UNL     1      -5.187 -10.366  13.514  0.00  0.00    +0.043 C 
ATOM     31  C   UNL     1      -4.704 -10.522  14.165  0.00  0.00    -0.033 C 
ATOM     32  C   UNL     1      -5.038 -10.625  14.912  0.00  0.00    -0.048 C 
ATOM     33  C   UNL     1      -4.556 -10.781  15.562  0.00  0.00    +0.026 C 
ENDROOT
BRANCH  14  15
ATOM     15  C   UNL     1      -6.486 -10.156  12.960  0.00  0.00    +0.000 C 
ATOM     16  C   UNL     1      -6.622  -9.378  12.724  0.00  0.00    +0.000 C 
ATOM     17  C   UNL     1      -6.835 -10.780  12.545  0.00  0.00    +0.000 C 
ENDBRANCH  14  15
BRANCH  12  11
ATOM     11  C   UNL     1      -6.191 -10.675  15.755  0.00  0.00    +0.070 C 
BRANCH  11  10
ATOM      5  C   UNL     1      -9.189  -8.959  16.562  0.00  0.00    +0.077 A 
ATOM      6  C   UNL     1      -8.371  -8.872  16.510  0.00  0.00    +0.027 A 
ATOM      7  C   UNL     1      -7.902  -9.508  16.272  0.00  0.00    +0.100 A 
ATOM      8  C   UNL     1      -8.252 -10.232  16.087  0.00  0.00    +0.100 A 
ATOM      9  N   UNL     1      -7.654 -10.756  15.871  0.00  0.00    -0.229 NA
ATOM     10  C   UNL     1      -6.934 -10.358  15.922  0.00  0.00    +0.139 A 
ATOM     34  N   UNL     1      -7.088  -9.587  16.171  0.00  0.00    -0.229 NA
ATOM     35  C   UNL     1      -9.072 -10.319  16.139  0.00  0.00    +0.021 A 
ATOM     36  C   UNL     1      -9.539  -9.683  16.377  0.00  0.00    +0.008 A 
BRANCH   5   3
ATOM      3  C   UNL     1      -9.657  -8.324  16.799  0.00  0.00    +0.341 C 
ATOM      4  O   UNL     1      -9.739  -7.666  16.309  0.00  0.00    -0.245 OA
BRANCH   3   2
ATOM      1  C   UNL     1     -10.535  -7.722  17.753  0.00  0.00    +0.256 C 
ATOM      2  O   UNL     1     -10.045  -8.345  17.528  0.00  0.00    -0.441 OA
ENDBRANCH   3   2
ENDBRANCH   5   3
ENDBRANCH  11  10
ENDBRANCH  12  11
BRANCH  18  19
ATOM     19  C   UNL     1      -4.851 -10.263  12.767  0.00  0.00    +0.119 C 
BRANCH  19  20
ATOM     20  N   UNL     1      -4.057 -10.444  12.643  0.00  0.00    -0.205 NA
ATOM     21  C   UNL     1      -3.700 -10.267  11.920  0.00  0.00    +0.241 C 
ATOM     22  O   UNL     1      -4.140  -9.908  11.321  0.00  0.00    -0.273 OA
BRANCH  21  23
ATOM     23  C   UNL     1      -2.906 -10.448  11.796  0.00  0.00    +0.087 C 
BRANCH  23  24
ATOM     24  C   UNL     1      -2.396  -9.879  11.483  0.00  0.00    +0.019 C 
ATOM     25  C   UNL     1      -2.062  -9.767  12.228  0.00  0.00    +0.001 C 
ATOM     26  C   UNL     1      -2.731  -9.991  10.737  0.00  0.00    +0.001 C 
BRANCH  24  27
ATOM     27  C   UNL     1      -1.888  -9.311  11.169  0.00  0.00    +0.115 C 
BRANCH  27  28
ATOM     28  C   UNL     1      -1.070  -9.420  11.213  0.00  0.00    +0.365 C 
ATOM     29  O   UNL     1      -0.764 -10.099  11.566  0.00  0.00    -0.246 OA
ATOM     30  O   UNL     1      -0.561  -8.850  10.903  0.00  0.00    -0.246 OA
ENDBRANCH  27  28
ENDBRANCH  24  27
ENDBRANCH  23  24
ENDBRANCH  21  23
ENDBRANCH  19  20
ENDBRANCH  18  19
TORSDOF 11
ENDMDL
