REMARK  Name = 
REMARK  8 active torsions:
REMARK  status: ('A' for Active; 'I' for Inactive)
REMARK    1  A    between atoms: C_2  and  C_3
REMARK    2  A    between atoms: N_5  and  S_21
REMARK    3  A    between atoms: C_8  and  C_9
REMARK    4  A    between atoms: C_9  and  C_10
REMARK    5  A    between atoms: N_12  and  C_13
REMARK    6  A    between atoms: C_13  and  C_14
REMARK    7  A    between atoms: S_21  and  C_24
REMARK    8  A    between atoms: C_27  and  O_28
REMARK                            x       y       z     vdW  Elec       q    Type
REMARK                         _______ _______ _______ _____ _____    ______ ____
ROOT
ATOM      3  C   UNL     1      -0.715  -5.362   0.000  0.00  0.00    +0.018 C 
ATOM      4  C   UNL     1      -1.429  -4.950   0.000  0.00  0.00    +0.096 C 
ATOM      5  N   UNL     1      -1.429  -4.125   0.000  0.00  0.00    -0.156 NA
ATOM      6  C   UNL     1      -0.715  -3.712   0.000  0.00  0.00    +0.096 C 
ATOM      7  C   UNL     1       0.000  -4.125   0.000  0.00  0.00    +0.020 C 
ATOM      8  C   UNL     1       0.000  -4.950   0.000  0.00  0.00    +0.012 C 
ENDROOT
BRANCH   5  21
ATOM     21  S   UNL     1      -2.143  -3.712   0.000  0.00  0.00    +0.063 S 
ATOM     22  O   UNL     1      -1.731  -2.998   0.000  0.00  0.00    -0.153 OA
ATOM     23  O   UNL     1      -2.556  -4.427   0.000  0.00  0.00    -0.153 OA
BRANCH  21  24
ATOM     24  C   UNL     1      -2.858  -3.300   0.000  0.00  0.00    +0.122 A 
ATOM     25  C   UNL     1      -3.572  -3.712   0.000  0.00  0.00    +0.023 A 
ATOM     26  C   UNL     1      -4.287  -3.300   0.000  0.00  0.00    +0.038 A 
ATOM     27  C   UNL     1      -4.287  -2.475   0.000  0.00  0.00    +0.139 A 
ATOM     30  C   UNL     1      -3.572  -2.062   0.000  0.00  0.00    +0.038 A 
ATOM     31  C   UNL     1      -2.858  -2.475   0.000  0.00  0.00    +0.023 A 
BRANCH  27  28
ATOM     28  O   UNL     1      -5.001  -2.062   0.000  0.00  0.00    -0.471 OA
ATOM     29  C   UNL     1      -5.716  -2.475   0.000  0.00  0.00    +0.252 C 
ENDBRANCH  27  28
ENDBRANCH  21  24
ENDBRANCH   5  21
BRANCH   3   2
ATOM      1  C   UNL     1       0.000  -6.600   0.000  0.00  0.00    +0.000 C 
ATOM      2  C   UNL     1      -0.715  -6.188   0.000  0.00  0.00    +0.001 C 
ENDBRANCH   3   2
BRANCH   8   9
ATOM      9  C   UNL     1       0.715  -5.362   0.000  0.00  0.00    +0.087 C 
BRANCH   9  10
ATOM     10  C   UNL     1       1.429  -4.950   0.000  0.00  0.00    +0.242 C 
ATOM     11  O   UNL     1       1.429  -4.125   0.000  0.00  0.00    -0.273 OA
ATOM     12  N   UNL     1       2.143  -5.362   0.000  0.00  0.00    -0.201 NA
BRANCH  12  13
ATOM     13  C   UNL     1       2.858  -4.950   0.000  0.00  0.00    +0.141 C 
BRANCH  13  14
ATOM     14  C   UNL     1       3.572  -5.362   0.000  0.00  0.00    -0.000 A 
ATOM     15  C   UNL     1       4.287  -4.950   0.000  0.00  0.00    -0.000 A 
ATOM     16  C   UNL     1       5.001  -5.362   0.000  0.00  0.00    +0.029 A 
ATOM     17  C   UNL     1       5.001  -6.188   0.000  0.00  0.00    +0.140 A 
ATOM     18  F   UNL     1       5.716  -6.600   0.000  0.00  0.00    -0.204 F 
ATOM     19  C   UNL     1       4.287  -6.600   0.000  0.00  0.00    +0.029 A 
ATOM     20  C   UNL     1       3.572  -6.188   0.000  0.00  0.00    -0.000 A 
ENDBRANCH  13  14
ENDBRANCH  12  13
ENDBRANCH   9  10
ENDBRANCH   8   9
TORSDOF 8
