MODEL 1
REMARK VINA RESULT:      -9.3      0.000      0.000
REMARK  Name = 
REMARK  7 active torsions:
REMARK  status: ('A' for Active; 'I' for Inactive)
REMARK    1  A    between atoms: O_2  and  C_3
REMARK    2  A    between atoms: C_6  and  C_7
REMARK    3  A    between atoms: C_7  and  N_8
REMARK    4  A    between atoms: N_8  and  C_9
REMARK    5  A    between atoms: C_12  and  C_13
REMARK    6  A    between atoms: C_13  and  N_14
REMARK    7  A    between atoms: C_15  and  C_17
REMARK                            x       y       z     vdW  Elec       q    Type
REMARK                         _______ _______ _______ _____ _____    ______ ____
ROOT
ATOM      9  C   UNL     1      -0.980   0.237  25.034  0.00  0.00    +0.135 C 
ATOM     10  C   UNL     1      -0.827   0.493  25.803  0.00  0.00    +0.162 C 
ATOM     11  O   UNL     1      -0.583   1.281  25.765  0.00  0.00    -0.350 OA
ATOM     12  C   UNL     1      -0.584   1.511  24.973  0.00  0.00    +0.169 C 
ATOM     22  C   UNL     1      -0.830   0.865  24.521  0.00  0.00    +0.199 C 
ATOM     23  O   UNL     1      -0.911   0.851  23.700  0.00  0.00    -0.219 OA
ENDROOT
BRANCH   9   8
ATOM      8  N   UNL     1      -1.238  -0.516  24.816  0.00  0.00    -0.209 NA
BRANCH   8   7
ATOM      7  C   UNL     1      -1.655  -0.981  25.354  0.00  0.00    +0.115 C 
BRANCH   7   6
ATOM      3  C   UNL     1      -3.325  -2.617  24.541  0.00  0.00    +0.139 A 
ATOM      4  C   UNL     1      -3.568  -1.968  24.991  0.00  0.00    +0.037 A 
ATOM      5  C   UNL     1      -3.011  -1.423  25.261  0.00  0.00    +0.000 A 
ATOM      6  C   UNL     1      -2.212  -1.526  25.083  0.00  0.00    -0.005 A 
ATOM     24  C   UNL     1      -1.970  -2.174  24.634  0.00  0.00    +0.000 A 
ATOM     25  C   UNL     1      -2.527  -2.720  24.363  0.00  0.00    +0.037 A 
BRANCH   3   2
ATOM      1  C   UNL     1      -4.417  -2.947  23.680  0.00  0.00    +0.252 C 
ATOM      2  O   UNL     1      -3.882  -3.162  24.270  0.00  0.00    -0.471 OA
ENDBRANCH   3   2
ENDBRANCH   7   6
ENDBRANCH   8   7
ENDBRANCH   9   8
BRANCH  12  13
ATOM     13  C   UNL     1      -0.377   2.255  24.684  0.00  0.00    +0.147 C 
BRANCH  13  14
ATOM     14  N   UNL     1      -0.798   2.922  24.922  0.00  0.00    -0.203 NA
ATOM     15  C   UNL     1      -0.602   3.664  24.618  0.00  0.00    +0.241 C 
ATOM     16  O   UNL     1       0.014   3.737  24.075  0.00  0.00    -0.273 OA
BRANCH  15  17
ATOM     17  C   UNL     1      -1.024   4.331  24.857  0.00  0.00    +0.078 C 
ATOM     18  C   UNL     1      -0.793   5.115  24.747  0.00  0.00    +0.009 C 
ATOM     19  C   UNL     1      -1.376   5.602  25.069  0.00  0.00    +0.001 C 
ATOM     20  C   UNL     1      -1.969   5.117  25.379  0.00  0.00    +0.001 C 
ATOM     21  C   UNL     1      -1.750   4.333  25.248  0.00  0.00    +0.009 C 
ENDBRANCH  15  17
ENDBRANCH  13  14
ENDBRANCH  12  13
TORSDOF 7
ENDMDL
MODEL 2
REMARK VINA RESULT:      -9.1      1.019      5.834
REMARK  Name = 
REMARK  7 active torsions:
REMARK  status: ('A' for Active; 'I' for Inactive)
REMARK    1  A    between atoms: O_2  and  C_3
REMARK    2  A    between atoms: C_6  and  C_7
REMARK    3  A    between atoms: C_7  and  N_8
REMARK    4  A    between atoms: N_8  and  C_9
REMARK    5  A    between atoms: C_12  and  C_13
REMARK    6  A    between atoms: C_13  and  N_14
REMARK    7  A    between atoms: C_15  and  C_17
REMARK                            x       y       z     vdW  Elec       q    Type
REMARK                         _______ _______ _______ _____ _____    ______ ____
ROOT
ATOM      9  C   UNL     1      -0.846   1.001  25.267  0.00  0.00    +0.135 C 
ATOM     10  C   UNL     1      -0.914   0.637  26.004  0.00  0.00    +0.162 C 
ATOM     11  O   UNL     1      -1.089  -0.160  25.880  0.00  0.00    -0.350 OA
ATOM     12  C   UNL     1      -1.129  -0.288  25.066  0.00  0.00    +0.169 C 
ATOM     22  C   UNL     1      -0.979   0.430  24.687  0.00  0.00    +0.199 C 
ATOM     23  O   UNL     1      -0.965   0.554  23.872  0.00  0.00    -0.219 OA
ENDROOT
BRANCH   9   8
ATOM      8  N   UNL     1      -0.675   1.797  25.134  0.00  0.00    -0.209 NA
BRANCH   8   7
ATOM      7  C   UNL     1      -0.804   2.352  25.730  0.00  0.00    +0.115 C 
BRANCH   7   6
ATOM      3  C   UNL     1      -1.174   4.729  25.149  0.00  0.00    +0.139 A 
ATOM      4  C   UNL     1      -1.759   4.307  25.551  0.00  0.00    +0.037 A 
ATOM      5  C   UNL     1      -1.635   3.515  25.744  0.00  0.00    +0.000 A 
ATOM      6  C   UNL     1      -0.927   3.144  25.536  0.00  0.00    -0.005 A 
ATOM     24  C   UNL     1      -0.344   3.567  25.134  0.00  0.00    +0.000 A 
ATOM     25  C   UNL     1      -0.467   4.359  24.941  0.00  0.00    +0.037 A 
BRANCH   3   2
ATOM      1  C   UNL     1      -2.040   5.863  25.067  0.00  0.00    +0.252 C 
ATOM      2  O   UNL     1      -1.297   5.521  24.955  0.00  0.00    -0.471 OA
ENDBRANCH   3   2
ENDBRANCH   7   6
ENDBRANCH   8   7
ENDBRANCH   9   8
BRANCH  12  13
ATOM     13  C   UNL     1      -1.291  -1.007  24.695  0.00  0.00    +0.147 C 
BRANCH  13  14
ATOM     14  N   UNL     1      -2.070  -1.265  24.617  0.00  0.00    -0.203 NA
ATOM     15  C   UNL     1      -2.227  -2.038  24.375  0.00  0.00    +0.241 C 
ATOM     16  O   UNL     1      -1.603  -2.553  24.211  0.00  0.00    -0.273 OA
BRANCH  15  17
ATOM     17  C   UNL     1      -3.006  -2.295  24.296  0.00  0.00    +0.078 C 
ATOM     18  C   UNL     1      -3.627  -1.864  23.966  0.00  0.00    +0.009 C 
ATOM     19  C   UNL     1      -4.308  -2.330  24.000  0.00  0.00    +0.001 C 
ATOM     20  C   UNL     1      -4.107  -3.049  24.351  0.00  0.00    +0.001 C 
ATOM     21  C   UNL     1      -3.303  -3.027  24.534  0.00  0.00    +0.009 C 
ENDBRANCH  15  17
ENDBRANCH  13  14
ENDBRANCH  12  13
TORSDOF 7
ENDMDL
MODEL 3
REMARK VINA RESULT:      -9.0      2.011      6.204
REMARK  Name = 
REMARK  7 active torsions:
REMARK  status: ('A' for Active; 'I' for Inactive)
REMARK    1  A    between atoms: O_2  and  C_3
REMARK    2  A    between atoms: C_6  and  C_7
REMARK    3  A    between atoms: C_7  and  N_8
REMARK    4  A    between atoms: N_8  and  C_9
REMARK    5  A    between atoms: C_12  and  C_13
REMARK    6  A    between atoms: C_13  and  N_14
REMARK    7  A    between atoms: C_15  and  C_17
REMARK                            x       y       z     vdW  Elec       q    Type
REMARK                         _______ _______ _______ _____ _____    ______ ____
ROOT
ATOM      9  C   UNL     1      -3.974   1.852  24.741  0.00  0.00    +0.135 C 
ATOM     10  C   UNL     1      -4.495   1.591  25.324  0.00  0.00    +0.162 C 
ATOM     11  O   UNL     1      -4.688   0.805  25.162  0.00  0.00    -0.350 OA
ATOM     12  C   UNL     1      -4.286   0.580  24.478  0.00  0.00    +0.169 C 
ATOM     22  C   UNL     1      -3.844   1.227  24.217  0.00  0.00    +0.199 C 
ATOM     23  O   UNL     1      -3.359   1.245  23.551  0.00  0.00    -0.219 OA
ENDROOT
BRANCH   9   8
ATOM      8  N   UNL     1      -3.640   2.604  24.689  0.00  0.00    -0.209 NA
BRANCH   8   7
ATOM      7  C   UNL     1      -3.410   3.001  25.374  0.00  0.00    +0.115 C 
BRANCH   7   6
ATOM      3  C   UNL     1      -1.694   4.781  25.256  0.00  0.00    +0.139 A 
ATOM      4  C   UNL     1      -2.454   4.921  24.967  0.00  0.00    +0.037 A 
ATOM      5  C   UNL     1      -3.026   4.328  25.007  0.00  0.00    +0.000 A 
ATOM      6  C   UNL     1      -2.838   3.594  25.335  0.00  0.00    -0.005 A 
ATOM     24  C   UNL     1      -2.078   3.455  25.623  0.00  0.00    +0.000 A 
ATOM     25  C   UNL     1      -1.506   4.048  25.584  0.00  0.00    +0.037 A 
BRANCH   3   2
ATOM      1  C   UNL     1      -0.550   5.358  24.623  0.00  0.00    +0.252 C 
ATOM      2  O   UNL     1      -1.122   5.374  25.217  0.00  0.00    -0.471 OA
ENDBRANCH   3   2
ENDBRANCH   7   6
ENDBRANCH   8   7
ENDBRANCH   9   8
BRANCH  12  13
ATOM     13  C   UNL     1      -4.320  -0.161  24.117  0.00  0.00    +0.147 C 
BRANCH  13  14
ATOM     14  N   UNL     1      -3.859  -0.781  24.405  0.00  0.00    -0.203 NA
ATOM     15  C   UNL     1      -3.926  -1.534  24.073  0.00  0.00    +0.241 C 
ATOM     16  O   UNL     1      -4.454  -1.665  23.453  0.00  0.00    -0.273 OA
BRANCH  15  17
ATOM     17  C   UNL     1      -3.465  -2.153  24.361  0.00  0.00    +0.078 C 
ATOM     18  C   UNL     1      -2.641  -2.191  24.348  0.00  0.00    +0.009 C 
ATOM     19  C   UNL     1      -2.412  -2.905  24.692  0.00  0.00    +0.001 C 
ATOM     20  C   UNL     1      -3.095  -3.309  24.918  0.00  0.00    +0.001 C 
ATOM     21  C   UNL     1      -3.745  -2.845  24.714  0.00  0.00    +0.009 C 
ENDBRANCH  15  17
ENDBRANCH  13  14
ENDBRANCH  12  13
TORSDOF 7
ENDMDL
MODEL 4
REMARK VINA RESULT:      -8.9      2.094      2.484
REMARK  Name = 
REMARK  7 active torsions:
REMARK  status: ('A' for Active; 'I' for Inactive)
REMARK    1  A    between atoms: O_2  and  C_3
REMARK    2  A    between atoms: C_6  and  C_7
REMARK    3  A    between atoms: C_7  and  N_8
REMARK    4  A    between atoms: N_8  and  C_9
REMARK    5  A    between atoms: C_12  and  C_13
REMARK    6  A    between atoms: C_13  and  N_14
REMARK    7  A    between atoms: C_15  and  C_17
REMARK                            x       y       z     vdW  Elec       q    Type
REMARK                         _______ _______ _______ _____ _____    ______ ____
ROOT
ATOM      9  C   UNL     1      -4.314   1.189  24.605  0.00  0.00    +0.135 C 
ATOM     10  C   UNL     1      -4.697   1.488  25.272  0.00  0.00    +0.162 C 
ATOM     11  O   UNL     1      -4.536   2.297  25.317  0.00  0.00    -0.350 OA
ATOM     12  C   UNL     1      -4.054   2.497  24.678  0.00  0.00    +0.169 C 
ATOM     22  C   UNL     1      -3.917   1.813  24.238  0.00  0.00    +0.199 C 
ATOM     23  O   UNL     1      -3.462   1.761  23.552  0.00  0.00    -0.219 OA
ENDROOT
BRANCH   9   8
ATOM      8  N   UNL     1      -4.326   0.405  24.350  0.00  0.00    -0.209 NA
BRANCH   8   7
ATOM      7  C   UNL     1      -4.443  -0.204  24.894  0.00  0.00    +0.115 C 
BRANCH   7   6
ATOM      3  C   UNL     1      -3.536  -2.461  24.439  0.00  0.00    +0.139 A 
ATOM      4  C   UNL     1      -3.296  -2.048  25.112  0.00  0.00    +0.037 A 
ATOM      5  C   UNL     1      -3.599  -1.296  25.264  0.00  0.00    +0.000 A 
ATOM      6  C   UNL     1      -4.141  -0.956  24.742  0.00  0.00    -0.005 A 
ATOM     24  C   UNL     1      -4.380  -1.369  24.069  0.00  0.00    +0.000 A 
ATOM     25  C   UNL     1      -4.078  -2.122  23.918  0.00  0.00    +0.037 A 
BRANCH   3   2
ATOM      1  C   UNL     1      -2.429  -3.312  24.137  0.00  0.00    +0.252 C 
ATOM      2  O   UNL     1      -3.234  -3.213  24.287  0.00  0.00    -0.471 OA
ENDBRANCH   3   2
ENDBRANCH   7   6
ENDBRANCH   8   7
ENDBRANCH   9   8
BRANCH  12  13
ATOM     13  C   UNL     1      -3.761   3.249  24.509  0.00  0.00    +0.147 C 
BRANCH  13  14
ATOM     14  N   UNL     1      -2.981   3.440  24.697  0.00  0.00    -0.203 NA
ATOM     15  C   UNL     1      -2.751   4.231  24.751  0.00  0.00    +0.241 C 
ATOM     16  O   UNL     1      -3.301   4.830  24.617  0.00  0.00    -0.273 OA
BRANCH  15  17
ATOM     17  C   UNL     1      -1.970   4.420  24.938  0.00  0.00    +0.078 C 
ATOM     18  C   UNL     1      -1.599   5.143  24.794  0.00  0.00    +0.009 C 
ATOM     19  C   UNL     1      -0.823   5.091  25.069  0.00  0.00    +0.001 C 
ATOM     20  C   UNL     1      -0.714   4.336  25.384  0.00  0.00    +0.001 C 
ATOM     21  C   UNL     1      -1.423   3.922  25.303  0.00  0.00    +0.009 C 
ENDBRANCH  15  17
ENDBRANCH  13  14
ENDBRANCH  12  13
TORSDOF 7
ENDMDL
MODEL 5
REMARK VINA RESULT:      -8.3      3.344      5.722
REMARK  Name = 
REMARK  7 active torsions:
REMARK  status: ('A' for Active; 'I' for Inactive)
REMARK    1  A    between atoms: O_2  and  C_3
REMARK    2  A    between atoms: C_6  and  C_7
REMARK    3  A    between atoms: C_7  and  N_8
REMARK    4  A    between atoms: N_8  and  C_9
REMARK    5  A    between atoms: C_12  and  C_13
REMARK    6  A    between atoms: C_13  and  N_14
REMARK    7  A    between atoms: C_15  and  C_17
REMARK                            x       y       z     vdW  Elec       q    Type
REMARK                         _______ _______ _______ _____ _____    ______ ____
ROOT
ATOM      9  C   UNL     1       0.816   0.423  23.417  0.00  0.00    +0.135 C 
ATOM     10  C   UNL     1       0.455  -0.274  23.164  0.00  0.00    +0.162 C 
ATOM     11  O   UNL     1      -0.322  -0.275  23.441  0.00  0.00    -0.350 OA
ATOM     12  C   UNL     1      -0.442   0.423  23.866  0.00  0.00    +0.169 C 
ATOM     22  C   UNL     1       0.262   0.854  23.850  0.00  0.00    +0.199 C 
ATOM     23  O   UNL     1       0.389   1.587  24.206  0.00  0.00    -0.219 OA
ENDROOT
BRANCH   9   8
ATOM      8  N   UNL     1       1.594   0.650  23.263  0.00  0.00    -0.209 NA
BRANCH   8   7
ATOM      7  C   UNL     1       2.078   0.173  22.796  0.00  0.00    +0.115 C 
BRANCH   7   6
ATOM      3  C   UNL     1       4.539   0.318  23.014  0.00  0.00    +0.139 A 
ATOM      4  C   UNL     1       4.146  -0.375  23.230  0.00  0.00    +0.037 A 
ATOM      5  C   UNL     1       3.326  -0.423  23.158  0.00  0.00    +0.000 A 
ATOM      6  C   UNL     1       2.898   0.221  22.869  0.00  0.00    -0.005 A 
ATOM     24  C   UNL     1       3.292   0.913  22.652  0.00  0.00    +0.000 A 
ATOM     25  C   UNL     1       4.112   0.961  22.725  0.00  0.00    +0.037 A 
BRANCH   3   2
ATOM      1  C   UNL     1       5.724   0.164  23.798  0.00  0.00    +0.252 C 
ATOM      2  O   UNL     1       5.360   0.366  23.086  0.00  0.00    -0.471 OA
ENDBRANCH   3   2
ENDBRANCH   7   6
ENDBRANCH   8   7
ENDBRANCH   9   8
BRANCH  12  13
ATOM     13  C   UNL     1      -1.141   0.649  24.239  0.00  0.00    +0.147 C 
BRANCH  13  14
ATOM     14  N   UNL     1      -1.773   0.122  24.288  0.00  0.00    -0.203 NA
ATOM     15  C   UNL     1      -2.480   0.356  24.644  0.00  0.00    +0.241 C 
ATOM     16  O   UNL     1      -2.554   1.117  24.951  0.00  0.00    -0.273 OA
BRANCH  15  17
ATOM     17  C   UNL     1      -3.111  -0.173  24.692  0.00  0.00    +0.078 C 
ATOM     18  C   UNL     1      -3.725  -0.244  24.146  0.00  0.00    +0.009 C 
ATOM     19  C   UNL     1      -4.234  -0.838  24.409  0.00  0.00    +0.001 C 
ATOM     20  C   UNL     1      -3.933  -1.134  25.119  0.00  0.00    +0.001 C 
ATOM     21  C   UNL     1      -3.240  -0.723  25.293  0.00  0.00    +0.009 C 
ENDBRANCH  15  17
ENDBRANCH  13  14
ENDBRANCH  12  13
TORSDOF 7
ENDMDL
MODEL 6
REMARK VINA RESULT:      -8.3      3.145      4.584
REMARK  Name = 
REMARK  7 active torsions:
REMARK  status: ('A' for Active; 'I' for Inactive)
REMARK    1  A    between atoms: O_2  and  C_3
REMARK    2  A    between atoms: C_6  and  C_7
REMARK    3  A    between atoms: C_7  and  N_8
REMARK    4  A    between atoms: N_8  and  C_9
REMARK    5  A    between atoms: C_12  and  C_13
REMARK    6  A    between atoms: C_13  and  N_14
REMARK    7  A    between atoms: C_15  and  C_17
REMARK                            x       y       z     vdW  Elec       q    Type
REMARK                         _______ _______ _______ _____ _____    ______ ____
ROOT
ATOM      9  C   UNL     1      -1.316   1.229  23.836  0.00  0.00    +0.135 C 
ATOM     10  C   UNL     1      -1.498   1.067  24.624  0.00  0.00    +0.162 C 
ATOM     11  O   UNL     1      -2.228   1.412  24.795  0.00  0.00    -0.350 OA
ATOM     12  C   UNL     1      -2.498   1.787  24.111  0.00  0.00    +0.169 C 
ATOM     22  C   UNL     1      -1.934   1.675  23.519  0.00  0.00    +0.199 C 
ATOM     23  O   UNL     1      -1.981   1.957  22.746  0.00  0.00    -0.219 OA
ENDROOT
BRANCH   9   8
ATOM      8  N   UNL     1      -0.636   0.989  23.436  0.00  0.00    -0.209 NA
BRANCH   8   7
ATOM      7  C   UNL     1      -0.021   0.628  23.848  0.00  0.00    +0.115 C 
BRANCH   7   6
ATOM      3  C   UNL     1       2.156   0.241  22.735  0.00  0.00    +0.139 A 
ATOM      4  C   UNL     1       2.059   0.890  23.237  0.00  0.00    +0.037 A 
ATOM      5  C   UNL     1       1.333   1.018  23.608  0.00  0.00    +0.000 A 
ATOM      6  C   UNL     1       0.705   0.499  23.477  0.00  0.00    -0.005 A 
ATOM     24  C   UNL     1       0.803  -0.149  22.976  0.00  0.00    +0.000 A 
ATOM     25  C   UNL     1       1.529  -0.277  22.605  0.00  0.00    +0.037 A 
BRANCH   3   2
ATOM      1  C   UNL     1       3.555   0.511  22.625  0.00  0.00    +0.252 C 
ATOM      2  O   UNL     1       2.881   0.113  22.364  0.00  0.00    -0.471 OA
ENDBRANCH   3   2
ENDBRANCH   7   6
ENDBRANCH   8   7
ENDBRANCH   9   8
BRANCH  12  13
ATOM     13  C   UNL     1      -3.206   2.202  24.034  0.00  0.00    +0.147 C 
BRANCH  13  14
ATOM     14  N   UNL     1      -3.832   2.051  24.549  0.00  0.00    -0.203 NA
ATOM     15  C   UNL     1      -4.518   2.509  24.511  0.00  0.00    +0.241 C 
ATOM     16  O   UNL     1      -4.577   3.117  23.957  0.00  0.00    -0.273 OA
BRANCH  15  17
ATOM     17  C   UNL     1      -5.143   2.357  25.027  0.00  0.00    +0.078 C 
ATOM     18  C   UNL     1      -5.713   1.769  24.936  0.00  0.00    +0.009 C 
ATOM     19  C   UNL     1      -6.231   1.814  25.577  0.00  0.00    +0.001 C 
ATOM     20  C   UNL     1      -5.980   2.431  26.065  0.00  0.00    +0.001 C 
ATOM     21  C   UNL     1      -5.308   2.766  25.724  0.00  0.00    +0.009 C 
ENDBRANCH  15  17
ENDBRANCH  13  14
ENDBRANCH  12  13
TORSDOF 7
ENDMDL
MODEL 7
REMARK VINA RESULT:      -8.0      2.967      4.984
REMARK  Name = 
REMARK  7 active torsions:
REMARK  status: ('A' for Active; 'I' for Inactive)
REMARK    1  A    between atoms: O_2  and  C_3
REMARK    2  A    between atoms: C_6  and  C_7
REMARK    3  A    between atoms: C_7  and  N_8
REMARK    4  A    between atoms: N_8  and  C_9
REMARK    5  A    between atoms: C_12  and  C_13
REMARK    6  A    between atoms: C_13  and  N_14
REMARK    7  A    between atoms: C_15  and  C_17
REMARK                            x       y       z     vdW  Elec       q    Type
REMARK                         _______ _______ _______ _____ _____    ______ ____
ROOT
ATOM      9  C   UNL     1      -0.763   1.896  24.324  0.00  0.00    +0.135 C 
ATOM     10  C   UNL     1      -0.084   2.318  24.524  0.00  0.00    +0.162 C 
ATOM     11  O   UNL     1       0.567   1.917  24.214  0.00  0.00    -0.350 OA
ATOM     12  C   UNL     1       0.290   1.246  23.821  0.00  0.00    +0.169 C 
ATOM     22  C   UNL     1      -0.533   1.233  23.890  0.00  0.00    +0.199 C 
ATOM     23  O   UNL     1      -1.036   0.658  23.578  0.00  0.00    -0.219 OA
ENDROOT
BRANCH   9   8
ATOM      8  N   UNL     1      -1.537   2.100  24.523  0.00  0.00    -0.209 NA
BRANCH   8   7
ATOM      7  C   UNL     1      -1.764   2.892  24.536  0.00  0.00    +0.115 C 
BRANCH   7   6
ATOM      3  C   UNL     1      -4.088   3.504  25.131  0.00  0.00    +0.139 A 
ATOM      4  C   UNL     1      -3.481   3.602  25.682  0.00  0.00    +0.037 A 
ATOM      5  C   UNL     1      -2.707   3.399  25.484  0.00  0.00    +0.000 A 
ATOM      6  C   UNL     1      -2.539   3.096  24.734  0.00  0.00    -0.005 A 
ATOM     24  C   UNL     1      -3.146   2.998  24.184  0.00  0.00    +0.000 A 
ATOM     25  C   UNL     1      -3.920   3.202  24.382  0.00  0.00    +0.037 A 
BRANCH   3   2
ATOM      1  C   UNL     1      -5.388   3.128  25.591  0.00  0.00    +0.252 C 
ATOM      2  O   UNL     1      -4.862   3.708  25.329  0.00  0.00    -0.471 OA
ENDBRANCH   3   2
ENDBRANCH   7   6
ENDBRANCH   8   7
ENDBRANCH   9   8
BRANCH  12  13
ATOM     13  C   UNL     1       0.753   0.687  23.430  0.00  0.00    +0.147 C 
BRANCH  13  14
ATOM     14  N   UNL     1       1.572   0.773  23.406  0.00  0.00    -0.203 NA
ATOM     15  C   UNL     1       2.021   0.308  22.893  0.00  0.00    +0.241 C 
ATOM     16  O   UNL     1       1.650  -0.244  22.406  0.00  0.00    -0.273 OA
BRANCH  15  17
ATOM     17  C   UNL     1       2.841   0.395  22.869  0.00  0.00    +0.078 C 
ATOM     18  C   UNL     1       3.396  -0.184  23.065  0.00  0.00    +0.009 C 
ATOM     19  C   UNL     1       4.148   0.139  22.963  0.00  0.00    +0.001 C 
ATOM     20  C   UNL     1       4.059   0.918  22.704  0.00  0.00    +0.001 C 
ATOM     21  C   UNL     1       3.251   1.075  22.647  0.00  0.00    +0.009 C 
ENDBRANCH  15  17
ENDBRANCH  13  14
ENDBRANCH  12  13
TORSDOF 7
ENDMDL
MODEL 8
REMARK VINA RESULT:      -8.0      3.239      4.471
REMARK  Name = 
REMARK  7 active torsions:
REMARK  status: ('A' for Active; 'I' for Inactive)
REMARK    1  A    between atoms: O_2  and  C_3
REMARK    2  A    between atoms: C_6  and  C_7
REMARK    3  A    between atoms: C_7  and  N_8
REMARK    4  A    between atoms: N_8  and  C_9
REMARK    5  A    between atoms: C_12  and  C_13
REMARK    6  A    between atoms: C_13  and  N_14
REMARK    7  A    between atoms: C_15  and  C_17
REMARK                            x       y       z     vdW  Elec       q    Type
REMARK                         _______ _______ _______ _____ _____    ______ ____
ROOT
ATOM      9  C   UNL     1      -0.740   0.831  24.099  0.00  0.00    +0.135 C 
ATOM     10  C   UNL     1      -0.212   1.436  24.289  0.00  0.00    +0.162 C 
ATOM     11  O   UNL     1       0.511   1.267  23.929  0.00  0.00    -0.350 OA
ATOM     12  C   UNL     1       0.430   0.558  23.515  0.00  0.00    +0.169 C 
ATOM     22  C   UNL     1      -0.343   0.288  23.620  0.00  0.00    +0.199 C 
ATOM     23  O   UNL     1      -0.663  -0.402  23.303  0.00  0.00    -0.219 OA
ENDROOT
BRANCH   9   8
ATOM      8  N   UNL     1      -1.526   0.778  24.344  0.00  0.00    -0.209 NA
BRANCH   8   7
ATOM      7  C   UNL     1      -1.937   1.460  24.558  0.00  0.00    +0.115 C 
BRANCH   7   6
ATOM      3  C   UNL     1      -4.408   1.420  24.695  0.00  0.00    +0.139 A 
ATOM      4  C   UNL     1      -3.967   0.806  25.025  0.00  0.00    +0.037 A 
ATOM      5  C   UNL     1      -3.144   0.819  24.979  0.00  0.00    +0.000 A 
ATOM      6  C   UNL     1      -2.761   1.447  24.603  0.00  0.00    -0.005 A 
ATOM     24  C   UNL     1      -3.203   2.060  24.274  0.00  0.00    +0.000 A 
ATOM     25  C   UNL     1      -4.026   2.047  24.320  0.00  0.00    +0.037 A 
BRANCH   3   2
ATOM      1  C   UNL     1      -5.624   1.903  25.271  0.00  0.00    +0.252 C 
ATOM      2  O   UNL     1      -5.232   1.407  24.741  0.00  0.00    -0.471 OA
ENDBRANCH   3   2
ENDBRANCH   7   6
ENDBRANCH   8   7
ENDBRANCH   9   8
BRANCH  12  13
ATOM     13  C   UNL     1       1.017   0.183  23.074  0.00  0.00    +0.147 C 
BRANCH  13  14
ATOM     14  N   UNL     1       1.811   0.360  23.210  0.00  0.00    -0.203 NA
ATOM     15  C   UNL     1       2.381   0.158  22.648  0.00  0.00    +0.241 C 
ATOM     16  O   UNL     1       2.156  -0.220  21.951  0.00  0.00    -0.273 OA
BRANCH  15  17
ATOM     17  C   UNL     1       3.175   0.335  22.785  0.00  0.00    +0.078 C 
ATOM     18  C   UNL     1       3.724  -0.156  23.157  0.00  0.00    +0.009 C 
ATOM     19  C   UNL     1       4.448   0.239  23.177  0.00  0.00    +0.001 C 
ATOM     20  C   UNL     1       4.347   0.975  22.817  0.00  0.00    +0.001 C 
ATOM     21  C   UNL     1       3.560   1.034  22.576  0.00  0.00    +0.009 C 
ENDBRANCH  15  17
ENDBRANCH  13  14
ENDBRANCH  12  13
TORSDOF 7
ENDMDL
MODEL 9
REMARK VINA RESULT:      -7.9      3.414      4.479
REMARK  Name = 
REMARK  7 active torsions:
REMARK  status: ('A' for Active; 'I' for Inactive)
REMARK    1  A    between atoms: O_2  and  C_3
REMARK    2  A    between atoms: C_6  and  C_7
REMARK    3  A    between atoms: C_7  and  N_8
REMARK    4  A    between atoms: N_8  and  C_9
REMARK    5  A    between atoms: C_12  and  C_13
REMARK    6  A    between atoms: C_13  and  N_14
REMARK    7  A    between atoms: C_15  and  C_17
REMARK                            x       y       z     vdW  Elec       q    Type
REMARK                         _______ _______ _______ _____ _____    ______ ____
ROOT
ATOM      9  C   UNL     1       0.275   0.501  23.723  0.00  0.00    +0.135 C 
ATOM     10  C   UNL     1       0.593   1.203  24.015  0.00  0.00    +0.162 C 
ATOM     11  O   UNL     1       1.347   1.296  23.692  0.00  0.00    -0.350 OA
ATOM     12  C   UNL     1       1.494   0.650  23.200  0.00  0.00    +0.169 C 
ATOM     22  C   UNL     1       0.831   0.159  23.219  0.00  0.00    +0.199 C 
ATOM     23  O   UNL     1       0.741  -0.550  22.807  0.00  0.00    -0.219 OA
ENDROOT
BRANCH   9   8
ATOM      8  N   UNL     1      -0.470   0.194  23.903  0.00  0.00    -0.209 NA
BRANCH   8   7
ATOM      7  C   UNL     1      -0.860   0.434  24.588  0.00  0.00    +0.115 C 
BRANCH   7   6
ATOM      3  C   UNL     1      -2.869  -0.787  25.361  0.00  0.00    +0.139 A 
ATOM      4  C   UNL     1      -2.147  -0.897  25.745  0.00  0.00    +0.037 A 
ATOM      5  C   UNL     1      -1.477  -0.490  25.488  0.00  0.00    +0.000 A 
ATOM      6  C   UNL     1      -1.530   0.027  24.846  0.00  0.00    -0.005 A 
ATOM     24  C   UNL     1      -2.252   0.136  24.463  0.00  0.00    +0.000 A 
ATOM     25  C   UNL     1      -2.922  -0.271  24.720  0.00  0.00    +0.037 A 
BRANCH   3   2
ATOM      1  C   UNL     1      -3.695  -1.953  25.336  0.00  0.00    +0.252 C 
ATOM      2  O   UNL     1      -3.539  -1.194  25.619  0.00  0.00    -0.471 OA
ENDBRANCH   3   2
ENDBRANCH   7   6
ENDBRANCH   8   7
ENDBRANCH   9   8
BRANCH  12  13
ATOM     13  C   UNL     1       2.182   0.519  22.765  0.00  0.00    +0.147 C 
BRANCH  13  14
ATOM     14  N   UNL     1       2.897   0.387  23.154  0.00  0.00    -0.203 NA
ATOM     15  C   UNL     1       3.606   0.400  22.731  0.00  0.00    +0.241 C 
ATOM     16  O   UNL     1       3.599   0.545  21.919  0.00  0.00    -0.273 OA
BRANCH  15  17
ATOM     17  C   UNL     1       4.321   0.268  23.121  0.00  0.00    +0.078 C 
ATOM     18  C   UNL     1       4.909   0.830  23.256  0.00  0.00    +0.009 C 
ATOM     19  C   UNL     1       5.525   0.461  23.663  0.00  0.00    +0.001 C 
ATOM     20  C   UNL     1       5.317  -0.329  23.779  0.00  0.00    +0.001 C 
ATOM     21  C   UNL     1       4.573  -0.448  23.444  0.00  0.00    +0.009 C 
ENDBRANCH  15  17
ENDBRANCH  13  14
ENDBRANCH  12  13
TORSDOF 7
ENDMDL
