MODEL 1
REMARK VINA RESULT:     -11.3      0.000      0.000
REMARK  Name = 
REMARK  4 active torsions:
REMARK  status: ('A' for Active; 'I' for Inactive)
REMARK    1  A    between atoms: C_4  and  C_6
REMARK    2  A    between atoms: C_13  and  C_14
REMARK    3  A    between atoms: C_14  and  N_15
REMARK    4  A    between atoms: C_17  and  C_20
REMARK                            x       y       z     vdW  Elec       q    Type
REMARK                         _______ _______ _______ _____ _____    ______ ____
ROOT
ATOM      6  C   UNL     1      -2.477   3.583  24.890  0.00  0.00    +0.093 C 
ATOM      7  C   UNL     1      -2.365   3.186  24.230  0.00  0.00    +0.081 C 
ATOM      8  N   UNL     1      -3.011   3.112  24.740  0.00  0.00    -0.272 NA
ATOM      9  C   UNL     1      -2.858   3.783  25.531  0.00  0.00    +0.072 C 
ATOM     10  C   UNL     1      -3.054   4.052  26.093  0.00  0.00    +0.018 C 
ATOM     11  C   UNL     1      -3.113   3.505  25.385  0.00  0.00    +0.013 C 
ATOM     12  C   UNL     1      -3.827   2.995  25.350  0.00  0.00    +0.019 C 
ATOM     13  C   UNL     1      -3.755   2.585  24.710  0.00  0.00    +0.082 C 
ENDROOT
BRANCH   6   4
ATOM      1  C   UNL     1      -0.539   4.570  25.073  0.00  0.00    +0.115 C 
ATOM      2  N   UNL     1      -1.118   4.023  24.859  0.00  0.00    -0.276 N 
ATOM      3  C   UNL     1      -0.916   3.368  24.399  0.00  0.00    +0.115 C 
ATOM      4  C   UNL     1      -1.897   4.131  25.104  0.00  0.00    +0.227 C 
ATOM      5  O   UNL     1      -2.099   4.785  25.564  0.00  0.00    -0.275 OA
ENDBRANCH   6   4
BRANCH  13  14
ATOM     14  C   UNL     1      -4.130   2.006  24.258  0.00  0.00    +0.145 C 
BRANCH  14  15
ATOM     15  N   UNL     1      -4.270   1.259  24.578  0.00  0.00    -0.229 N 
ATOM     16  C   UNL     1      -3.902   0.557  24.348  0.00  0.00    +0.119 A 
ATOM     17  C   UNL     1      -4.207  -0.054  24.812  0.00  0.00    +0.141 A 
ATOM     18  N   UNL     1      -4.763   0.272  25.328  0.00  0.00    -0.127 NA
ATOM     19  N   UNL     1      -4.801   1.082  25.183  0.00  0.00    -0.064 NA
BRANCH  17  20
ATOM     20  C   UNL     1      -3.994  -0.850  24.768  0.00  0.00    +0.102 A 
ATOM     21  N   UNL     1      -3.569  -1.198  25.384  0.00  0.00    -0.242 NA
ATOM     22  C   UNL     1      -3.356  -1.994  25.339  0.00  0.00    +0.099 A 
ATOM     23  C   UNL     1      -3.567  -2.441  24.678  0.00  0.00    +0.021 A 
ATOM     24  C   UNL     1      -3.992  -2.092  24.063  0.00  0.00    +0.003 A 
ATOM     25  C   UNL     1      -4.205  -1.297  24.108  0.00  0.00    +0.021 A 
ENDBRANCH  17  20
ENDBRANCH  14  15
ENDBRANCH  13  14
TORSDOF 4
ENDMDL
MODEL 2
REMARK VINA RESULT:     -10.9      1.625      5.078
REMARK  Name = 
REMARK  4 active torsions:
REMARK  status: ('A' for Active; 'I' for Inactive)
REMARK    1  A    between atoms: C_4  and  C_6
REMARK    2  A    between atoms: C_13  and  C_14
REMARK    3  A    between atoms: C_14  and  N_15
REMARK    4  A    between atoms: C_17  and  C_20
REMARK                            x       y       z     vdW  Elec       q    Type
REMARK                         _______ _______ _______ _____ _____    ______ ____
ROOT
ATOM      6  C   UNL     1      -3.684  -1.041  24.674  0.00  0.00    +0.093 C 
ATOM      7  C   UNL     1      -3.823  -0.797  23.949  0.00  0.00    +0.081 C 
ATOM      8  N   UNL     1      -3.763  -0.320  24.620  0.00  0.00    -0.272 NA
ATOM      9  C   UNL     1      -3.572  -0.954  25.433  0.00  0.00    +0.072 C 
ATOM     10  C   UNL     1      -3.462  -1.041  26.071  0.00  0.00    +0.018 C 
ATOM     11  C   UNL     1      -3.626  -0.567  25.328  0.00  0.00    +0.013 C 
ATOM     12  C   UNL     1      -3.695   0.302  25.433  0.00  0.00    +0.019 C 
ATOM     13  C   UNL     1      -3.833   0.582  24.736  0.00  0.00    +0.082 C 
ENDROOT
BRANCH   6   4
ATOM      1  C   UNL     1      -3.791  -3.196  24.349  0.00  0.00    +0.115 C 
ATOM      2  N   UNL     1      -3.888  -2.385  24.236  0.00  0.00    -0.276 N 
ATOM      3  C   UNL     1      -4.288  -2.107  23.570  0.00  0.00    +0.115 C 
ATOM      4  C   UNL     1      -3.586  -1.853  24.788  0.00  0.00    +0.227 C 
ATOM      5  O   UNL     1      -3.186  -2.131  25.454  0.00  0.00    -0.275 OA
ENDBRANCH   6   4
BRANCH  13  14
ATOM     14  C   UNL     1      -3.967   1.286  24.329  0.00  0.00    +0.145 C 
BRANCH  14  15
ATOM     15  N   UNL     1      -3.698   2.001  24.641  0.00  0.00    -0.229 N 
ATOM     16  C   UNL     1      -2.952   2.332  24.521  0.00  0.00    +0.119 A 
ATOM     17  C   UNL     1      -2.922   3.047  24.934  0.00  0.00    +0.141 A 
ATOM     18  N   UNL     1      -3.649   3.156  25.308  0.00  0.00    -0.127 NA
ATOM     19  N   UNL     1      -4.128   2.510  25.127  0.00  0.00    -0.064 NA
BRANCH  17  20
ATOM     20  C   UNL     1      -2.277   3.561  24.967  0.00  0.00    +0.102 A 
ATOM     21  N   UNL     1      -1.547   3.327  24.661  0.00  0.00    -0.242 NA
ATOM     22  C   UNL     1      -0.903   3.841  24.693  0.00  0.00    +0.099 A 
ATOM     23  C   UNL     1      -0.988   4.588  25.031  0.00  0.00    +0.021 A 
ATOM     24  C   UNL     1      -1.718   4.822  25.336  0.00  0.00    +0.003 A 
ATOM     25  C   UNL     1      -2.362   4.308  25.304  0.00  0.00    +0.021 A 
ENDBRANCH  17  20
ENDBRANCH  14  15
ENDBRANCH  13  14
TORSDOF 4
ENDMDL
MODEL 3
REMARK VINA RESULT:     -10.5      1.316      1.592
REMARK  Name = 
REMARK  4 active torsions:
REMARK  status: ('A' for Active; 'I' for Inactive)
REMARK    1  A    between atoms: C_4  and  C_6
REMARK    2  A    between atoms: C_13  and  C_14
REMARK    3  A    between atoms: C_14  and  N_15
REMARK    4  A    between atoms: C_17  and  C_20
REMARK                            x       y       z     vdW  Elec       q    Type
REMARK                         _______ _______ _______ _____ _____    ______ ____
ROOT
ATOM      6  C   UNL     1      -1.811   3.258  25.206  0.00  0.00    +0.093 C 
ATOM      7  C   UNL     1      -1.084   2.979  25.194  0.00  0.00    +0.081 C 
ATOM      8  N   UNL     1      -1.777   2.540  25.098  0.00  0.00    -0.272 NA
ATOM      9  C   UNL     1      -2.580   3.210  25.167  0.00  0.00    +0.072 C 
ATOM     10  C   UNL     1      -3.222   3.329  25.159  0.00  0.00    +0.018 C 
ATOM     11  C   UNL     1      -2.485   2.820  25.111  0.00  0.00    +0.013 C 
ATOM     12  C   UNL     1      -2.616   1.963  24.974  0.00  0.00    +0.019 C 
ATOM     13  C   UNL     1      -1.920   1.650  24.955  0.00  0.00    +0.082 C 
ENDROOT
BRANCH   6   4
ATOM      1  C   UNL     1      -1.414   5.404  25.182  0.00  0.00    +0.115 C 
ATOM      2  N   UNL     1      -1.323   4.593  25.061  0.00  0.00    -0.276 N 
ATOM      3  C   UNL     1      -0.653   4.306  24.674  0.00  0.00    +0.115 C 
ATOM      4  C   UNL     1      -1.902   4.070  25.327  0.00  0.00    +0.227 C 
ATOM      5  O   UNL     1      -2.572   4.357  25.714  0.00  0.00    -0.275 OA
ENDBRANCH   6   4
BRANCH  13  14
ATOM     14  C   UNL     1      -1.529   0.930  24.861  0.00  0.00    +0.145 C 
BRANCH  14  15
ATOM     15  N   UNL     1      -1.913   0.224  25.049  0.00  0.00    -0.229 N 
ATOM     16  C   UNL     1      -2.345  -0.245  24.527  0.00  0.00    +0.119 A 
ATOM     17  C   UNL     1      -2.631  -0.896  24.947  0.00  0.00    +0.141 A 
ATOM     18  N   UNL     1      -2.374  -0.827  25.728  0.00  0.00    -0.127 NA
ATOM     19  N   UNL     1      -1.930  -0.136  25.791  0.00  0.00    -0.064 NA
BRANCH  17  20
ATOM     20  C   UNL     1      -3.092  -1.508  24.640  0.00  0.00    +0.102 A 
ATOM     21  N   UNL     1      -2.821  -2.287  24.676  0.00  0.00    -0.242 NA
ATOM     22  C   UNL     1      -3.282  -2.898  24.369  0.00  0.00    +0.099 A 
ATOM     23  C   UNL     1      -4.013  -2.730  24.025  0.00  0.00    +0.021 A 
ATOM     24  C   UNL     1      -4.283  -1.952  23.989  0.00  0.00    +0.003 A 
ATOM     25  C   UNL     1      -3.822  -1.341  24.296  0.00  0.00    +0.021 A 
ENDBRANCH  17  20
ENDBRANCH  14  15
ENDBRANCH  13  14
TORSDOF 4
ENDMDL
MODEL 4
REMARK VINA RESULT:     -10.0      1.491      2.332
REMARK  Name = 
REMARK  4 active torsions:
REMARK  status: ('A' for Active; 'I' for Inactive)
REMARK    1  A    between atoms: C_4  and  C_6
REMARK    2  A    between atoms: C_13  and  C_14
REMARK    3  A    between atoms: C_14  and  N_15
REMARK    4  A    between atoms: C_17  and  C_20
REMARK                            x       y       z     vdW  Elec       q    Type
REMARK                         _______ _______ _______ _____ _____    ______ ____
ROOT
ATOM      6  C   UNL     1      -3.720   3.109  24.960  0.00  0.00    +0.093 C 
ATOM      7  C   UNL     1      -3.956   2.633  24.392  0.00  0.00    +0.081 C 
ATOM      8  N   UNL     1      -3.197   2.669  24.713  0.00  0.00    -0.272 NA
ATOM      9  C   UNL     1      -3.209   3.411  25.454  0.00  0.00    +0.072 C 
ATOM     10  C   UNL     1      -2.904   3.757  25.917  0.00  0.00    +0.018 C 
ATOM     11  C   UNL     1      -2.973   3.139  25.270  0.00  0.00    +0.013 C 
ATOM     12  C   UNL     1      -2.242   2.687  25.089  0.00  0.00    +0.019 C 
ATOM     13  C   UNL     1      -2.434   2.203  24.530  0.00  0.00    +0.082 C 
ENDROOT
BRANCH   6   4
ATOM      1  C   UNL     1      -5.627   3.917  25.650  0.00  0.00    +0.115 C 
ATOM      2  N   UNL     1      -5.068   3.398  25.337  0.00  0.00    -0.276 N 
ATOM      3  C   UNL     1      -5.299   2.646  25.086  0.00  0.00    +0.115 C 
ATOM      4  C   UNL     1      -4.280   3.630  25.274  0.00  0.00    +0.227 C 
ATOM      5  O   UNL     1      -4.049   4.381  25.524  0.00  0.00    -0.275 OA
ENDBRANCH   6   4
BRANCH  13  14
ATOM     14  C   UNL     1      -2.129   1.609  24.047  0.00  0.00    +0.145 C 
BRANCH  14  15
ATOM     15  N   UNL     1      -1.985   0.858  24.356  0.00  0.00    -0.229 N 
ATOM     16  C   UNL     1      -2.473   0.198  24.271  0.00  0.00    +0.119 A 
ATOM     17  C   UNL     1      -2.117  -0.433  24.667  0.00  0.00    +0.141 A 
ATOM     18  N   UNL     1      -1.411  -0.162  24.996  0.00  0.00    -0.127 NA
ATOM     19  N   UNL     1      -1.330   0.635  24.804  0.00  0.00    -0.064 NA
BRANCH  17  20
ATOM     20  C   UNL     1      -2.416  -1.200  24.723  0.00  0.00    +0.102 A 
ATOM     21  N   UNL     1      -1.982  -1.835  24.423  0.00  0.00    -0.242 NA
ATOM     22  C   UNL     1      -2.281  -2.602  24.480  0.00  0.00    +0.099 A 
ATOM     23  C   UNL     1      -3.013  -2.734  24.836  0.00  0.00    +0.021 A 
ATOM     24  C   UNL     1      -3.447  -2.099  25.135  0.00  0.00    +0.003 A 
ATOM     25  C   UNL     1      -3.148  -1.333  25.079  0.00  0.00    +0.021 A 
ENDBRANCH  17  20
ENDBRANCH  14  15
ENDBRANCH  13  14
TORSDOF 4
ENDMDL
