MODEL 1
REMARK VINA RESULT:     -10.7      0.000      0.000
REMARK  Name = 
REMARK  5 active torsions:
REMARK  status: ('A' for Active; 'I' for Inactive)
REMARK    1  A    between atoms: C_1  and  N_2
REMARK    2  A    between atoms: C_1  and  C_24
REMARK    3  A    between atoms: C_6  and  C_7
REMARK    4  A    between atoms: C_9  and  C_12
REMARK    5  A    between atoms: C_16  and  N_18
REMARK                            x       y       z     vdW  Elec       q    Type
REMARK                         _______ _______ _______ _____ _____    ______ ____
ROOT
ATOM      7  C   UNL     1      -3.998  -0.042  24.761  0.00  0.00    +0.251 A 
ATOM      8  N   UNL     1      -3.733   0.643  24.387  0.00  0.00    -0.190 NA
ATOM      9  C   UNL     1      -4.056   1.292  24.780  0.00  0.00    +0.203 A 
ATOM     10  N   UNL     1      -4.522   1.007  25.399  0.00  0.00    -0.056 NA
ATOM     11  O   UNL     1      -4.486   0.183  25.388  0.00  0.00    -0.336 OA
ENDROOT
BRANCH   9  12
ATOM     12  C   UNL     1      -3.936   2.085  24.589  0.00  0.00    +0.043 A 
ATOM     13  C   UNL     1      -4.528   2.510  24.203  0.00  0.00    +0.024 A 
ATOM     14  C   UNL     1      -4.410   3.303  24.012  0.00  0.00    +0.100 A 
ATOM     15  N   UNL     1      -3.698   3.672  24.207  0.00  0.00    -0.229 NA
ATOM     16  C   UNL     1      -3.106   3.248  24.594  0.00  0.00    +0.132 A 
ATOM     17  C   UNL     1      -3.225   2.454  24.785  0.00  0.00    +0.037 A 
BRANCH  16  18
ATOM     18  N   UNL     1      -2.394   3.617  24.789  0.00  0.00    -0.288 N 
ATOM     19  C   UNL     1      -1.680   3.298  24.531  0.00  0.00    +0.124 C 
ATOM     20  C   UNL     1      -0.968   3.667  24.726  0.00  0.00    +0.164 C 
ATOM     21  O   UNL     1      -0.971   4.355  25.180  0.00  0.00    -0.350 OA
ATOM     22  C   UNL     1      -1.687   4.675  25.439  0.00  0.00    +0.164 C 
ATOM     23  C   UNL     1      -2.398   4.306  25.244  0.00  0.00    +0.124 C 
ENDBRANCH  16  18
ENDBRANCH   9  12
BRANCH   7   6
ATOM      2  N   UNL     1      -3.123  -1.223  24.757  0.00  0.00    -0.260 NA
ATOM      3  C   UNL     1      -3.164  -1.978  24.427  0.00  0.00    +0.073 C 
ATOM      4  C   UNL     1      -3.877  -2.038  24.015  0.00  0.00    +0.019 C 
ATOM      5  C   UNL     1      -4.276  -1.319  24.090  0.00  0.00    +0.027 C 
ATOM      6  C   UNL     1      -3.810  -0.816  24.549  0.00  0.00    +0.138 C 
BRANCH   2   1
ATOM      1  C   UNL     1      -2.504  -0.928  25.214  0.00  0.00    +0.139 C 
BRANCH   1  24
ATOM     24  C   UNL     1      -1.730  -1.175  25.071  0.00  0.00    +0.155 A 
ATOM     25  N   UNL     1      -1.380  -1.865  25.358  0.00  0.00    -0.226 NA
ATOM     26  C   UNL     1      -0.604  -1.891  25.080  0.00  0.00    +0.121 A 
ATOM     27  C   UNL     1      -0.474  -1.217  24.621  0.00  0.00    +0.121 A 
ATOM     28  N   UNL     1      -1.170  -0.775  24.616  0.00  0.00    -0.226 NA
ENDBRANCH   1  24
ENDBRANCH   2   1
ENDBRANCH   7   6
TORSDOF 5
ENDMDL
MODEL 2
REMARK VINA RESULT:     -10.6      1.423      5.296
REMARK  Name = 
REMARK  5 active torsions:
REMARK  status: ('A' for Active; 'I' for Inactive)
REMARK    1  A    between atoms: C_1  and  N_2
REMARK    2  A    between atoms: C_1  and  C_24
REMARK    3  A    between atoms: C_6  and  C_7
REMARK    4  A    between atoms: C_9  and  C_12
REMARK    5  A    between atoms: C_16  and  N_18
REMARK                            x       y       z     vdW  Elec       q    Type
REMARK                         _______ _______ _______ _____ _____    ______ ____
ROOT
ATOM      7  C   UNL     1      -1.798   2.354  24.643  0.00  0.00    +0.251 A 
ATOM      8  N   UNL     1      -1.686   1.619  25.001  0.00  0.00    -0.190 NA
ATOM      9  C   UNL     1      -1.469   1.080  24.417  0.00  0.00    +0.203 A 
ATOM     10  N   UNL     1      -1.448   1.480  23.696  0.00  0.00    -0.056 NA
ATOM     11  O   UNL     1      -1.651   2.268  23.835  0.00  0.00    -0.336 OA
ENDROOT
BRANCH   9  12
ATOM     12  C   UNL     1      -1.303   0.280  24.532  0.00  0.00    +0.043 A 
ATOM     13  C   UNL     1      -0.520   0.020  24.550  0.00  0.00    +0.024 A 
ATOM     14  C   UNL     1      -0.353  -0.779  24.665  0.00  0.00    +0.100 A 
ATOM     15  N   UNL     1      -0.968  -1.319  24.761  0.00  0.00    -0.229 NA
ATOM     16  C   UNL     1      -1.751  -1.061  24.743  0.00  0.00    +0.132 A 
ATOM     17  C   UNL     1      -1.919  -0.261  24.628  0.00  0.00    +0.037 A 
BRANCH  16  18
ATOM     18  N   UNL     1      -2.367  -1.601  24.839  0.00  0.00    -0.288 N 
ATOM     19  C   UNL     1      -2.427  -2.251  24.335  0.00  0.00    +0.124 C 
ATOM     20  C   UNL     1      -3.043  -2.792  24.432  0.00  0.00    +0.164 C 
ATOM     21  O   UNL     1      -3.598  -2.682  25.031  0.00  0.00    -0.350 OA
ATOM     22  C   UNL     1      -3.538  -2.031  25.535  0.00  0.00    +0.164 C 
ATOM     23  C   UNL     1      -2.923  -1.491  25.439  0.00  0.00    +0.124 C 
ENDBRANCH  16  18
ENDBRANCH   9  12
BRANCH   7   6
ATOM      2  N   UNL     1      -2.786   3.352  25.080  0.00  0.00    -0.260 NA
ATOM      3  C   UNL     1      -2.751   4.057  25.505  0.00  0.00    +0.073 C 
ATOM      4  C   UNL     1      -1.964   4.193  25.711  0.00  0.00    +0.019 C 
ATOM      5  C   UNL     1      -1.511   3.571  25.413  0.00  0.00    +0.027 C 
ATOM      6  C   UNL     1      -2.019   3.051  25.023  0.00  0.00    +0.138 C 
BRANCH   2   1
ATOM      1  C   UNL     1      -3.466   3.007  24.767  0.00  0.00    +0.139 C 
BRANCH   1  24
ATOM     24  C   UNL     1      -4.201   3.161  25.107  0.00  0.00    +0.155 A 
ATOM     25  N   UNL     1      -4.663   3.833  24.982  0.00  0.00    -0.226 NA
ATOM     26  C   UNL     1      -5.351   3.756  25.431  0.00  0.00    +0.121 A 
ATOM     27  C   UNL     1      -5.314   3.036  25.834  0.00  0.00    +0.121 A 
ATOM     28  N   UNL     1      -4.603   2.669  25.634  0.00  0.00    -0.226 NA
ENDBRANCH   1  24
ENDBRANCH   2   1
ENDBRANCH   7   6
TORSDOF 5
ENDMDL
MODEL 3
REMARK VINA RESULT:     -10.4      1.564      3.080
REMARK  Name = 
REMARK  5 active torsions:
REMARK  status: ('A' for Active; 'I' for Inactive)
REMARK    1  A    between atoms: C_1  and  N_2
REMARK    2  A    between atoms: C_1  and  C_24
REMARK    3  A    between atoms: C_6  and  C_7
REMARK    4  A    between atoms: C_9  and  C_12
REMARK    5  A    between atoms: C_16  and  N_18
REMARK                            x       y       z     vdW  Elec       q    Type
REMARK                         _______ _______ _______ _____ _____    ______ ____
ROOT
ATOM      7  C   UNL     1      -0.427   1.362  24.789  0.00  0.00    +0.251 A 
ATOM      8  N   UNL     1      -1.043   1.877  24.598  0.00  0.00    -0.190 NA
ATOM      9  C   UNL     1      -1.121   2.422  25.210  0.00  0.00    +0.203 A 
ATOM     10  N   UNL     1      -0.553   2.246  25.782  0.00  0.00    -0.056 NA
ATOM     11  O   UNL     1      -0.124   1.591  25.522  0.00  0.00    -0.336 OA
ENDROOT
BRANCH   9  12
ATOM     12  C   UNL     1      -1.671   3.037  25.247  0.00  0.00    +0.043 A 
ATOM     13  C   UNL     1      -1.411   3.818  25.312  0.00  0.00    +0.024 A 
ATOM     14  C   UNL     1      -1.959   4.433  25.348  0.00  0.00    +0.100 A 
ATOM     15  N   UNL     1      -2.767   4.268  25.320  0.00  0.00    -0.229 NA
ATOM     16  C   UNL     1      -3.027   3.488  25.254  0.00  0.00    +0.132 A 
ATOM     17  C   UNL     1      -2.478   2.872  25.218  0.00  0.00    +0.037 A 
BRANCH  16  18
ATOM     18  N   UNL     1      -3.835   3.322  25.226  0.00  0.00    -0.288 N 
ATOM     19  C   UNL     1      -4.145   2.894  24.594  0.00  0.00    +0.124 C 
ATOM     20  C   UNL     1      -4.953   2.729  24.565  0.00  0.00    +0.164 C 
ATOM     21  O   UNL     1      -5.450   2.992  25.168  0.00  0.00    -0.350 OA
ATOM     22  C   UNL     1      -5.139   3.421  25.801  0.00  0.00    +0.164 C 
ATOM     23  C   UNL     1      -4.331   3.586  25.830  0.00  0.00    +0.124 C 
ENDBRANCH  16  18
ENDBRANCH   9  12
BRANCH   7   6
ATOM      2  N   UNL     1      -0.377  -0.060  24.421  0.00  0.00    -0.260 NA
ATOM      3  C   UNL     1       0.019  -0.500  23.847  0.00  0.00    +0.073 C 
ATOM      4  C   UNL     1       0.481   0.020  23.401  0.00  0.00    +0.019 C 
ATOM      5  C   UNL     1       0.370   0.780  23.701  0.00  0.00    +0.027 C 
ATOM      6  C   UNL     1      -0.161   0.731  24.331  0.00  0.00    +0.138 C 
BRANCH   2   1
ATOM      1  C   UNL     1      -0.898  -0.358  24.985  0.00  0.00    +0.139 C 
BRANCH   1  24
ATOM     24  C   UNL     1      -1.245  -1.099  24.877  0.00  0.00    +0.155 A 
ATOM     25  N   UNL     1      -0.928  -1.823  25.115  0.00  0.00    -0.226 NA
ATOM     26  C   UNL     1      -1.457  -2.417  24.896  0.00  0.00    +0.121 A 
ATOM     27  C   UNL     1      -2.102  -2.060  24.523  0.00  0.00    +0.121 A 
ATOM     28  N   UNL     1      -1.970  -1.245  24.511  0.00  0.00    -0.226 NA
ENDBRANCH   1  24
ENDBRANCH   2   1
ENDBRANCH   7   6
TORSDOF 5
ENDMDL
MODEL 4
REMARK VINA RESULT:     -10.3      1.261      4.702
REMARK  Name = 
REMARK  5 active torsions:
REMARK  status: ('A' for Active; 'I' for Inactive)
REMARK    1  A    between atoms: C_1  and  N_2
REMARK    2  A    between atoms: C_1  and  C_24
REMARK    3  A    between atoms: C_6  and  C_7
REMARK    4  A    between atoms: C_9  and  C_12
REMARK    5  A    between atoms: C_16  and  N_18
REMARK                            x       y       z     vdW  Elec       q    Type
REMARK                         _______ _______ _______ _____ _____    ______ ____
ROOT
ATOM      7  C   UNL     1      -4.112   1.850  24.527  0.00  0.00    +0.251 A 
ATOM      8  N   UNL     1      -3.960   1.121  24.882  0.00  0.00    -0.190 NA
ATOM      9  C   UNL     1      -3.832   0.568  24.285  0.00  0.00    +0.203 A 
ATOM     10  N   UNL     1      -3.905   0.955  23.559  0.00  0.00    -0.056 NA
ATOM     11  O   UNL     1      -4.078   1.747  23.709  0.00  0.00    -0.336 OA
ENDROOT
BRANCH   9  12
ATOM     12  C   UNL     1      -3.661  -0.232  24.392  0.00  0.00    +0.043 A 
ATOM     13  C   UNL     1      -4.257  -0.796  24.303  0.00  0.00    +0.024 A 
ATOM     14  C   UNL     1      -4.087  -1.596  24.410  0.00  0.00    +0.100 A 
ATOM     15  N   UNL     1      -3.321  -1.832  24.606  0.00  0.00    -0.229 NA
ATOM     16  C   UNL     1      -2.725  -1.269  24.695  0.00  0.00    +0.132 A 
ATOM     17  C   UNL     1      -2.895  -0.468  24.588  0.00  0.00    +0.037 A 
BRANCH  16  18
ATOM     18  N   UNL     1      -1.960  -1.505  24.890  0.00  0.00    -0.288 N 
ATOM     19  C   UNL     1      -1.637  -2.182  24.547  0.00  0.00    +0.124 C 
ATOM     20  C   UNL     1      -0.871  -2.418  24.743  0.00  0.00    +0.164 C 
ATOM     21  O   UNL     1      -0.428  -1.978  25.282  0.00  0.00    -0.350 OA
ATOM     22  C   UNL     1      -0.752  -1.301  25.625  0.00  0.00    +0.164 C 
ATOM     23  C   UNL     1      -1.517  -1.064  25.430  0.00  0.00    +0.124 C 
ENDBRANCH  16  18
ENDBRANCH   9  12
BRANCH   7   6
ATOM      2  N   UNL     1      -3.765   3.209  24.970  0.00  0.00    -0.260 NA
ATOM      3  C   UNL     1      -4.145   3.792  25.413  0.00  0.00    +0.073 C 
ATOM      4  C   UNL     1      -4.885   3.502  25.635  0.00  0.00    +0.019 C 
ATOM      5  C   UNL     1      -4.963   2.740  25.330  0.00  0.00    +0.027 C 
ATOM      6  C   UNL     1      -4.271   2.558  24.919  0.00  0.00    +0.138 C 
BRANCH   2   1
ATOM      1  C   UNL     1      -3.014   3.265  24.638  0.00  0.00    +0.139 C 
BRANCH   1  24
ATOM     24  C   UNL     1      -2.450   3.765  24.974  0.00  0.00    +0.155 A 
ATOM     25  N   UNL     1      -2.361   4.571  24.818  0.00  0.00    -0.226 NA
ATOM     26  C   UNL     1      -1.732   4.850  25.274  0.00  0.00    +0.121 A 
ATOM     27  C   UNL     1      -1.432   4.216  25.710  0.00  0.00    +0.121 A 
ATOM     28  N   UNL     1      -1.876   3.546  25.525  0.00  0.00    -0.226 NA
ENDBRANCH   1  24
ENDBRANCH   2   1
ENDBRANCH   7   6
TORSDOF 5
ENDMDL
MODEL 5
REMARK VINA RESULT:     -10.2      1.772      5.184
REMARK  Name = 
REMARK  5 active torsions:
REMARK  status: ('A' for Active; 'I' for Inactive)
REMARK    1  A    between atoms: C_1  and  N_2
REMARK    2  A    between atoms: C_1  and  C_24
REMARK    3  A    between atoms: C_6  and  C_7
REMARK    4  A    between atoms: C_9  and  C_12
REMARK    5  A    between atoms: C_16  and  N_18
REMARK                            x       y       z     vdW  Elec       q    Type
REMARK                         _______ _______ _______ _____ _____    ______ ____
ROOT
ATOM      7  C   UNL     1      -1.374   1.671  24.879  0.00  0.00    +0.251 A 
ATOM      8  N   UNL     1      -2.074   1.333  25.153  0.00  0.00    -0.190 NA
ATOM      9  C   UNL     1      -2.418   0.916  24.531  0.00  0.00    +0.203 A 
ATOM     10  N   UNL     1      -1.930   0.995  23.871  0.00  0.00    -0.056 NA
ATOM     11  O   UNL     1      -1.284   1.462  24.085  0.00  0.00    -0.336 OA
ENDROOT
BRANCH   9  12
ATOM     12  C   UNL     1      -3.126   0.493  24.562  0.00  0.00    +0.043 A 
ATOM     13  C   UNL     1      -3.842   0.894  24.647  0.00  0.00    +0.024 A 
ATOM     14  C   UNL     1      -4.550   0.472  24.678  0.00  0.00    +0.100 A 
ATOM     15  N   UNL     1      -4.542  -0.351  24.624  0.00  0.00    -0.229 NA
ATOM     16  C   UNL     1      -3.827  -0.752  24.539  0.00  0.00    +0.132 A 
ATOM     17  C   UNL     1      -3.118  -0.330  24.508  0.00  0.00    +0.037 A 
BRANCH  16  18
ATOM     18  N   UNL     1      -3.819  -1.575  24.485  0.00  0.00    -0.288 N 
ATOM     19  C   UNL     1      -4.165  -1.949  23.836  0.00  0.00    +0.124 C 
ATOM     20  C   UNL     1      -4.157  -2.772  23.782  0.00  0.00    +0.164 C 
ATOM     21  O   UNL     1      -3.804  -3.222  24.376  0.00  0.00    -0.350 OA
ATOM     22  C   UNL     1      -3.458  -2.848  25.025  0.00  0.00    +0.164 C 
ATOM     23  C   UNL     1      -3.466  -2.024  25.080  0.00  0.00    +0.124 C 
ENDBRANCH  16  18
ENDBRANCH   9  12
BRANCH   7   6
ATOM      2  N   UNL     1      -0.737   2.948  25.232  0.00  0.00    -0.260 NA
ATOM      3  C   UNL     1      -0.169   3.183  25.783  0.00  0.00    +0.073 C 
ATOM      4  C   UNL     1       0.065   2.517  26.209  0.00  0.00    +0.019 C 
ATOM      5  C   UNL     1      -0.358   1.869  25.922  0.00  0.00    +0.027 C 
ATOM      6  C   UNL     1      -0.854   2.135  25.318  0.00  0.00    +0.138 C 
BRANCH   2   1
ATOM      1  C   UNL     1      -1.120   3.438  24.692  0.00  0.00    +0.139 C 
BRANCH   1  24
ATOM     24  C   UNL     1      -1.222   4.239  24.860  0.00  0.00    +0.155 A 
ATOM     25  N   UNL     1      -1.877   4.578  25.231  0.00  0.00    -0.226 NA
ATOM     26  C   UNL     1      -1.745   5.391  25.287  0.00  0.00    +0.121 A 
ATOM     27  C   UNL     1      -1.008   5.554  24.950  0.00  0.00    +0.121 A 
ATOM     28  N   UNL     1      -0.685   4.842  24.687  0.00  0.00    -0.226 NA
ENDBRANCH   1  24
ENDBRANCH   2   1
ENDBRANCH   7   6
TORSDOF 5
ENDMDL
MODEL 6
REMARK VINA RESULT:     -10.2      1.705      3.028
REMARK  Name = 
REMARK  5 active torsions:
REMARK  status: ('A' for Active; 'I' for Inactive)
REMARK    1  A    between atoms: C_1  and  N_2
REMARK    2  A    between atoms: C_1  and  C_24
REMARK    3  A    between atoms: C_6  and  C_7
REMARK    4  A    between atoms: C_9  and  C_12
REMARK    5  A    between atoms: C_16  and  N_18
REMARK                            x       y       z     vdW  Elec       q    Type
REMARK                         _______ _______ _______ _____ _____    ______ ____
ROOT
ATOM      7  C   UNL     1      -4.456   2.738  24.829  0.00  0.00    +0.251 A 
ATOM      8  N   UNL     1      -3.716   2.849  25.176  0.00  0.00    -0.190 NA
ATOM      9  C   UNL     1      -3.346   3.479  24.795  0.00  0.00    +0.203 A 
ATOM     10  N   UNL     1      -3.857   3.759  24.211  0.00  0.00    -0.056 NA
ATOM     11  O   UNL     1      -4.543   3.301  24.231  0.00  0.00    -0.336 OA
ENDROOT
BRANCH   9  12
ATOM     12  C   UNL     1      -2.596   3.779  24.967  0.00  0.00    +0.043 A 
ATOM     13  C   UNL     1      -2.493   4.589  25.084  0.00  0.00    +0.024 A 
ATOM     14  C   UNL     1      -1.745   4.889  25.255  0.00  0.00    +0.100 A 
ATOM     15  N   UNL     1      -1.099   4.380  25.311  0.00  0.00    -0.229 NA
ATOM     16  C   UNL     1      -1.201   3.569  25.194  0.00  0.00    +0.132 A 
ATOM     17  C   UNL     1      -1.950   3.269  25.022  0.00  0.00    +0.037 A 
BRANCH  16  18
ATOM     18  N   UNL     1      -0.555   3.060  25.250  0.00  0.00    -0.288 N 
ATOM     19  C   UNL     1      -0.271   2.833  25.990  0.00  0.00    +0.124 C 
ATOM     20  C   UNL     1       0.375   2.323  26.045  0.00  0.00    +0.164 C 
ATOM     21  O   UNL     1       0.737   2.040  25.360  0.00  0.00    -0.350 OA
ATOM     22  C   UNL     1       0.453   2.267  24.619  0.00  0.00    +0.164 C 
ATOM     23  C   UNL     1      -0.193   2.776  24.564  0.00  0.00    +0.124 C 
ENDBRANCH  16  18
ENDBRANCH   9  12
BRANCH   7   6
ATOM      2  N   UNL     1      -4.940   1.353  24.920  0.00  0.00    -0.260 NA
ATOM      3  C   UNL     1      -5.620   0.992  25.214  0.00  0.00    +0.073 C 
ATOM      4  C   UNL     1      -6.113   1.582  25.515  0.00  0.00    +0.019 C 
ATOM      5  C   UNL     1      -5.736   2.308  25.407  0.00  0.00    +0.027 C 
ATOM      6  C   UNL     1      -5.011   2.167  25.039  0.00  0.00    +0.138 C 
BRANCH   2   1
ATOM      1  C   UNL     1      -4.300   0.969  24.569  0.00  0.00    +0.139 C 
BRANCH   1  24
ATOM     24  C   UNL     1      -4.222   0.151  24.638  0.00  0.00    +0.155 A 
ATOM     25  N   UNL     1      -4.465  -0.409  24.082  0.00  0.00    -0.226 NA
ATOM     26  C   UNL     1      -4.279  -1.157  24.376  0.00  0.00    +0.121 A 
ATOM     27  C   UNL     1      -3.921  -1.060  25.114  0.00  0.00    +0.121 A 
ATOM     28  N   UNL     1      -3.886  -0.252  25.276  0.00  0.00    -0.226 NA
ENDBRANCH   1  24
ENDBRANCH   2   1
ENDBRANCH   7   6
TORSDOF 5
ENDMDL
MODEL 7
REMARK VINA RESULT:     -10.1      1.582      4.416
REMARK  Name = 
REMARK  5 active torsions:
REMARK  status: ('A' for Active; 'I' for Inactive)
REMARK    1  A    between atoms: C_1  and  N_2
REMARK    2  A    between atoms: C_1  and  C_24
REMARK    3  A    between atoms: C_6  and  C_7
REMARK    4  A    between atoms: C_9  and  C_12
REMARK    5  A    between atoms: C_16  and  N_18
REMARK                            x       y       z     vdW  Elec       q    Type
REMARK                         _______ _______ _______ _____ _____    ______ ____
ROOT
ATOM      7  C   UNL     1      -2.964   3.472  24.662  0.00  0.00    +0.251 A 
ATOM      8  N   UNL     1      -3.252   2.784  25.013  0.00  0.00    -0.190 NA
ATOM      9  C   UNL     1      -3.962   2.586  24.644  0.00  0.00    +0.203 A 
ATOM     10  N   UNL     1      -4.114   3.154  24.064  0.00  0.00    -0.056 NA
ATOM     11  O   UNL     1      -3.497   3.701  24.075  0.00  0.00    -0.336 OA
ENDROOT
BRANCH   9  12
ATOM     12  C   UNL     1      -4.439   1.937  24.821  0.00  0.00    +0.043 A 
ATOM     13  C   UNL     1      -5.219   2.052  25.063  0.00  0.00    +0.024 A 
ATOM     14  C   UNL     1      -5.696   1.403  25.241  0.00  0.00    +0.100 A 
ATOM     15  N   UNL     1      -5.393   0.639  25.177  0.00  0.00    -0.229 NA
ATOM     16  C   UNL     1      -4.613   0.523  24.935  0.00  0.00    +0.132 A 
ATOM     17  C   UNL     1      -4.135   1.172  24.757  0.00  0.00    +0.037 A 
BRANCH  16  18
ATOM     18  N   UNL     1      -4.310  -0.242  24.871  0.00  0.00    -0.288 N 
ATOM     19  C   UNL     1      -3.902  -0.578  25.504  0.00  0.00    +0.124 C 
ATOM     20  C   UNL     1      -3.599  -1.342  25.440  0.00  0.00    +0.164 C 
ATOM     21  O   UNL     1      -3.703  -1.771  24.743  0.00  0.00    -0.350 OA
ATOM     22  C   UNL     1      -4.112  -1.434  24.109  0.00  0.00    +0.164 C 
ATOM     23  C   UNL     1      -4.415  -0.670  24.173  0.00  0.00    +0.124 C 
ENDBRANCH  16  18
ENDBRANCH   9  12
BRANCH   7   6
ATOM      2  N   UNL     1      -1.500   3.614  24.684  0.00  0.00    -0.260 NA
ATOM      3  C   UNL     1      -0.973   4.171  24.988  0.00  0.00    +0.073 C 
ATOM      4  C   UNL     1      -1.413   4.765  25.354  0.00  0.00    +0.019 C 
ATOM      5  C   UNL     1      -2.212   4.576  25.277  0.00  0.00    +0.027 C 
ATOM      6  C   UNL     1      -2.267   3.864  24.862  0.00  0.00    +0.138 C 
BRANCH   2   1
ATOM      1  C   UNL     1      -1.298   2.928  24.275  0.00  0.00    +0.139 C 
BRANCH   1  24
ATOM     24  C   UNL     1      -0.579   2.554  24.425  0.00  0.00    +0.155 A 
ATOM     25  N   UNL     1      -0.410   2.068  25.071  0.00  0.00    -0.226 NA
ATOM     26  C   UNL     1       0.372   1.814  25.001  0.00  0.00    +0.121 A 
ATOM     27  C   UNL     1       0.687   2.143  24.312  0.00  0.00    +0.121 A 
ATOM     28  N   UNL     1       0.099   2.600  23.957  0.00  0.00    -0.226 NA
ENDBRANCH   1  24
ENDBRANCH   2   1
ENDBRANCH   7   6
TORSDOF 5
ENDMDL
