MODEL 1
REMARK VINA RESULT:      -8.7      0.000      0.000
REMARK  Name = 
REMARK  4 active torsions:
REMARK  status: ('A' for Active; 'I' for Inactive)
REMARK    1  A    between atoms: O_2  and  C_3
REMARK    2  A    between atoms: C_3  and  C_4
REMARK    3  A    between atoms: C_4  and  N_5
REMARK    4  A    between atoms: N_9  and  C_15
REMARK                            x       y       z     vdW  Elec       q    Type
REMARK                         _______ _______ _______ _____ _____    ______ ____
ROOT
ATOM      5  N   UNL     1      -3.370   3.052  24.967  0.00  0.00    -0.260 N 
ATOM      6  C   UNL     1      -2.951   2.348  24.868  0.00  0.00    +0.116 C 
ATOM      7  C   UNL     1      -3.490   1.725  24.894  0.00  0.00    +0.113 C 
ATOM      8  C   UNL     1      -3.394   0.908  24.829  0.00  0.00    +0.094 C 
ATOM      9  N   UNL     1      -4.050   0.410  24.878  0.00  0.00    -0.271 NA
ATOM     10  C   UNL     1      -4.802   0.728  24.993  0.00  0.00    +0.094 C 
ATOM     11  C   UNL     1      -4.899   1.545  25.059  0.00  0.00    +0.112 C 
ATOM     12  N   UNL     1      -4.243   2.043  25.009  0.00  0.00    -0.261 N 
ATOM     13  C   UNL     1      -4.168   2.863  25.054  0.00  0.00    +0.307 C 
ATOM     14  O   UNL     1      -4.785   3.401  25.166  0.00  0.00    -0.252 OA
ENDROOT
BRANCH   9  15
ATOM     15  C   UNL     1      -3.954  -0.407  24.813  0.00  0.00    +0.063 C 
ATOM     16  C   UNL     1      -4.184  -0.795  24.121  0.00  0.00    +0.048 C 
ATOM     17  C   UNL     1      -4.088  -1.611  24.055  0.00  0.00    +0.144 C 
ATOM     18  O   UNL     1      -3.762  -2.041  24.680  0.00  0.00    -0.354 OA
ATOM     19  C   UNL     1      -3.533  -1.653  25.371  0.00  0.00    +0.144 C 
ATOM     20  C   UNL     1      -3.629  -0.836  25.437  0.00  0.00    +0.048 C 
ENDBRANCH   9  15
BRANCH   5   4
ATOM      4  C   UNL     1      -3.048   3.811  24.976  0.00  0.00    +0.127 C 
BRANCH   4   3
ATOM      3  C   UNL     1      -2.239   3.914  25.100  0.00  0.00    +0.164 C 
BRANCH   3   2
ATOM      1  C   UNL     1      -1.179   4.872  25.062  0.00  0.00    +0.174 C 
ATOM      2  O   UNL     1      -1.942   4.660  25.293  0.00  0.00    -0.349 OA
ENDBRANCH   3   2
ENDBRANCH   4   3
ENDBRANCH   5   4
TORSDOF 4
ENDMDL
MODEL 2
REMARK VINA RESULT:      -8.0      1.276      2.004
REMARK  Name = 
REMARK  4 active torsions:
REMARK  status: ('A' for Active; 'I' for Inactive)
REMARK    1  A    between atoms: O_2  and  C_3
REMARK    2  A    between atoms: C_3  and  C_4
REMARK    3  A    between atoms: C_4  and  N_5
REMARK    4  A    between atoms: N_9  and  C_15
REMARK                            x       y       z     vdW  Elec       q    Type
REMARK                         _______ _______ _______ _____ _____    ______ ____
ROOT
ATOM      5  N   UNL     1      -3.803   2.143  24.781  0.00  0.00    -0.260 N 
ATOM      6  C   UNL     1      -4.281   1.472  24.819  0.00  0.00    +0.116 C 
ATOM      7  C   UNL     1      -3.802   0.811  24.700  0.00  0.00    +0.113 C 
ATOM      8  C   UNL     1      -3.970   0.004  24.679  0.00  0.00    +0.094 C 
ATOM      9  N   UNL     1      -3.365  -0.540  24.547  0.00  0.00    -0.271 NA
ATOM     10  C   UNL     1      -2.591  -0.277  24.435  0.00  0.00    +0.094 C 
ATOM     11  C   UNL     1      -2.422   0.530  24.456  0.00  0.00    +0.112 C 
ATOM     12  N   UNL     1      -3.028   1.074  24.589  0.00  0.00    -0.261 N 
ATOM     13  C   UNL     1      -3.029   1.897  24.638  0.00  0.00    +0.307 C 
ATOM     14  O   UNL     1      -2.370   2.389  24.559  0.00  0.00    -0.252 OA
ENDROOT
BRANCH   9  15
ATOM     15  C   UNL     1      -3.532  -1.348  24.526  0.00  0.00    +0.063 C 
ATOM     16  C   UNL     1      -3.963  -1.663  23.897  0.00  0.00    +0.048 C 
ATOM     17  C   UNL     1      -4.132  -2.470  23.875  0.00  0.00    +0.144 C 
ATOM     18  O   UNL     1      -3.868  -2.963  24.483  0.00  0.00    -0.354 OA
ATOM     19  C   UNL     1      -3.437  -2.648  25.112  0.00  0.00    +0.144 C 
ATOM     20  C   UNL     1      -3.270  -1.840  25.133  0.00  0.00    +0.048 C 
ENDBRANCH   9  15
BRANCH   5   4
ATOM      4  C   UNL     1      -4.055   2.924  24.869  0.00  0.00    +0.127 C 
BRANCH   4   3
ATOM      3  C   UNL     1      -4.783   3.085  25.223  0.00  0.00    +0.164 C 
BRANCH   3   2
ATOM      1  C   UNL     1      -5.768   4.029  25.648  0.00  0.00    +0.174 C 
ATOM      2  O   UNL     1      -5.012   3.866  25.360  0.00  0.00    -0.349 OA
ENDBRANCH   3   2
ENDBRANCH   4   3
ENDBRANCH   5   4
TORSDOF 4
ENDMDL
MODEL 3
REMARK VINA RESULT:      -7.8      0.793      4.436
REMARK  Name = 
REMARK  4 active torsions:
REMARK  status: ('A' for Active; 'I' for Inactive)
REMARK    1  A    between atoms: O_2  and  C_3
REMARK    2  A    between atoms: C_3  and  C_4
REMARK    3  A    between atoms: C_4  and  N_5
REMARK    4  A    between atoms: N_9  and  C_15
REMARK                            x       y       z     vdW  Elec       q    Type
REMARK                         _______ _______ _______ _____ _____    ______ ____
ROOT
ATOM      5  N   UNL     1      -4.242   0.955  24.741  0.00  0.00    -0.260 N 
ATOM      6  C   UNL     1      -3.445   1.148  24.645  0.00  0.00    +0.116 C 
ATOM      7  C   UNL     1      -3.349   1.940  24.850  0.00  0.00    +0.113 C 
ATOM      8  C   UNL     1      -2.686   2.431  24.864  0.00  0.00    +0.094 C 
ATOM      9  N   UNL     1      -2.759   3.218  25.100  0.00  0.00    -0.271 NA
ATOM     10  C   UNL     1      -3.495   3.514  25.323  0.00  0.00    +0.094 C 
ATOM     11  C   UNL     1      -4.159   3.025  25.311  0.00  0.00    +0.112 C 
ATOM     12  N   UNL     1      -4.086   2.237  25.074  0.00  0.00    -0.261 N 
ATOM     13  C   UNL     1      -4.637   1.628  25.006  0.00  0.00    +0.307 C 
ATOM     14  O   UNL     1      -5.444   1.683  25.174  0.00  0.00    -0.252 OA
ENDROOT
BRANCH   9  15
ATOM     15  C   UNL     1      -2.096   3.708  25.113  0.00  0.00    +0.063 C 
ATOM     16  C   UNL     1      -1.340   3.381  25.073  0.00  0.00    +0.048 C 
ATOM     17  C   UNL     1      -0.676   3.870  25.086  0.00  0.00    +0.144 C 
ATOM     18  O   UNL     1      -0.769   4.689  25.140  0.00  0.00    -0.354 OA
ATOM     19  C   UNL     1      -1.525   5.017  25.180  0.00  0.00    +0.144 C 
ATOM     20  C   UNL     1      -2.188   4.526  25.167  0.00  0.00    +0.048 C 
ENDBRANCH   9  15
BRANCH   5   4
ATOM      4  C   UNL     1      -4.583   0.217  24.597  0.00  0.00    +0.127 C 
BRANCH   4   3
ATOM      3  C   UNL     1      -4.108  -0.422  24.383  0.00  0.00    +0.164 C 
BRANCH   3   2
ATOM      1  C   UNL     1      -3.993  -1.816  24.088  0.00  0.00    +0.174 C 
ATOM      2  O   UNL     1      -4.454  -1.134  24.150  0.00  0.00    -0.349 OA
ENDBRANCH   3   2
ENDBRANCH   4   3
ENDBRANCH   5   4
TORSDOF 4
ENDMDL
MODEL 4
REMARK VINA RESULT:      -7.7      1.730      4.964
REMARK  Name = 
REMARK  4 active torsions:
REMARK  status: ('A' for Active; 'I' for Inactive)
REMARK    1  A    between atoms: O_2  and  C_3
REMARK    2  A    between atoms: C_3  and  C_4
REMARK    3  A    between atoms: C_4  and  N_5
REMARK    4  A    between atoms: N_9  and  C_15
REMARK                            x       y       z     vdW  Elec       q    Type
REMARK                         _______ _______ _______ _____ _____    ______ ____
ROOT
ATOM      5  N   UNL     1      -2.054  -0.061  24.881  0.00  0.00    -0.260 N 
ATOM      6  C   UNL     1      -2.398   0.666  24.695  0.00  0.00    +0.116 C 
ATOM      7  C   UNL     1      -1.914   1.261  24.998  0.00  0.00    +0.113 C 
ATOM      8  C   UNL     1      -1.975   2.084  24.983  0.00  0.00    +0.094 C 
ATOM      9  N   UNL     1      -1.394   2.548  25.340  0.00  0.00    -0.271 NA
ATOM     10  C   UNL     1      -0.751   2.189  25.712  0.00  0.00    +0.094 C 
ATOM     11  C   UNL     1      -0.689   1.366  25.728  0.00  0.00    +0.112 C 
ATOM     12  N   UNL     1      -1.271   0.902  25.370  0.00  0.00    -0.261 N 
ATOM     13  C   UNL     1      -1.358   0.086  25.298  0.00  0.00    +0.307 C 
ATOM     14  O   UNL     1      -0.839  -0.485  25.591  0.00  0.00    -0.252 OA
ENDROOT
BRANCH   9  15
ATOM     15  C   UNL     1      -1.455   3.370  25.325  0.00  0.00    +0.063 C 
ATOM     16  C   UNL     1      -2.101   3.742  25.679  0.00  0.00    +0.048 C 
ATOM     17  C   UNL     1      -2.163   4.565  25.665  0.00  0.00    +0.144 C 
ATOM     18  O   UNL     1      -1.578   5.016  25.296  0.00  0.00    -0.354 OA
ATOM     19  C   UNL     1      -0.932   4.644  24.942  0.00  0.00    +0.144 C 
ATOM     20  C   UNL     1      -0.871   3.821  24.957  0.00  0.00    +0.048 C 
ENDBRANCH   9  15
BRANCH   5   4
ATOM      4  C   UNL     1      -2.354  -0.803  24.683  0.00  0.00    +0.127 C 
BRANCH   4   3
ATOM      3  C   UNL     1      -3.141  -0.881  24.447  0.00  0.00    +0.164 C 
BRANCH   3   2
ATOM      1  C   UNL     1      -4.204  -1.702  23.959  0.00  0.00    +0.174 C 
ATOM      2  O   UNL     1      -3.455  -1.629  24.298  0.00  0.00    -0.349 OA
ENDBRANCH   3   2
ENDBRANCH   4   3
ENDBRANCH   5   4
TORSDOF 4
ENDMDL
MODEL 5
REMARK VINA RESULT:      -7.7      1.869      2.439
REMARK  Name = 
REMARK  4 active torsions:
REMARK  status: ('A' for Active; 'I' for Inactive)
REMARK    1  A    between atoms: O_2  and  C_3
REMARK    2  A    between atoms: C_3  and  C_4
REMARK    3  A    between atoms: C_4  and  N_5
REMARK    4  A    between atoms: N_9  and  C_15
REMARK                            x       y       z     vdW  Elec       q    Type
REMARK                         _______ _______ _______ _____ _____    ______ ____
ROOT
ATOM      5  N   UNL     1      -0.873   2.377  24.864  0.00  0.00    -0.260 N 
ATOM      6  C   UNL     1      -1.643   2.123  25.017  0.00  0.00    +0.116 C 
ATOM      7  C   UNL     1      -1.672   1.309  24.891  0.00  0.00    +0.113 C 
ATOM      8  C   UNL     1      -2.285   0.761  24.957  0.00  0.00    +0.094 C 
ATOM      9  N   UNL     1      -2.147  -0.035  24.792  0.00  0.00    -0.271 NA
ATOM     10  C   UNL     1      -1.395  -0.284  24.561  0.00  0.00    +0.094 C 
ATOM     11  C   UNL     1      -0.781   0.262  24.495  0.00  0.00    +0.112 C 
ATOM     12  N   UNL     1      -0.920   1.059  24.661  0.00  0.00    -0.261 N 
ATOM     13  C   UNL     1      -0.426   1.720  24.644  0.00  0.00    +0.307 C 
ATOM     14  O   UNL     1       0.374   1.723  24.442  0.00  0.00    -0.252 OA
ENDROOT
BRANCH   9  15
ATOM     15  C   UNL     1      -2.761  -0.583  24.858  0.00  0.00    +0.063 C 
ATOM     16  C   UNL     1      -3.286  -0.690  24.231  0.00  0.00    +0.048 C 
ATOM     17  C   UNL     1      -3.900  -1.238  24.295  0.00  0.00    +0.144 C 
ATOM     18  O   UNL     1      -3.988  -1.679  24.987  0.00  0.00    -0.354 OA
ATOM     19  C   UNL     1      -3.462  -1.572  25.614  0.00  0.00    +0.144 C 
ATOM     20  C   UNL     1      -2.849  -1.024  25.549  0.00  0.00    +0.048 C 
ENDBRANCH   9  15
BRANCH   5   4
ATOM      4  C   UNL     1      -0.598   3.153  24.921  0.00  0.00    +0.127 C 
BRANCH   4   3
ATOM      3  C   UNL     1      -1.130   3.771  25.047  0.00  0.00    +0.164 C 
BRANCH   3   2
ATOM      1  C   UNL     1      -1.398   5.173  25.122  0.00  0.00    +0.174 C 
ATOM      2  O   UNL     1      -0.858   4.550  25.079  0.00  0.00    -0.349 OA
ENDBRANCH   3   2
ENDBRANCH   4   3
ENDBRANCH   5   4
TORSDOF 4
ENDMDL
MODEL 6
REMARK VINA RESULT:      -7.6      2.166      3.875
REMARK  Name = 
REMARK  4 active torsions:
REMARK  status: ('A' for Active; 'I' for Inactive)
REMARK    1  A    between atoms: O_2  and  C_3
REMARK    2  A    between atoms: C_3  and  C_4
REMARK    3  A    between atoms: C_4  and  N_5
REMARK    4  A    between atoms: N_9  and  C_15
REMARK                            x       y       z     vdW  Elec       q    Type
REMARK                         _______ _______ _______ _____ _____    ______ ____
ROOT
ATOM      5  N   UNL     1      -1.580   0.731  24.337  0.00  0.00    -0.260 N 
ATOM      6  C   UNL     1      -2.196   0.762  24.886  0.00  0.00    +0.116 C 
ATOM      7  C   UNL     1      -2.738   1.328  24.628  0.00  0.00    +0.113 C 
ATOM      8  C   UNL     1      -3.451   1.595  24.947  0.00  0.00    +0.094 C 
ATOM      9  N   UNL     1      -3.883   2.179  24.558  0.00  0.00    -0.271 NA
ATOM     10  C   UNL     1      -3.603   2.497  23.850  0.00  0.00    +0.094 C 
ATOM     11  C   UNL     1      -2.891   2.231  23.531  0.00  0.00    +0.112 C 
ATOM     12  N   UNL     1      -2.458   1.645  23.920  0.00  0.00    -0.261 N 
ATOM     13  C   UNL     1      -1.743   1.277  23.740  0.00  0.00    +0.307 C 
ATOM     14  O   UNL     1      -1.272   1.427  23.079  0.00  0.00    -0.252 OA
ENDROOT
BRANCH   9  15
ATOM     15  C   UNL     1      -4.596   2.446  24.876  0.00  0.00    +0.063 C 
ATOM     16  C   UNL     1      -4.630   3.179  25.254  0.00  0.00    +0.048 C 
ATOM     17  C   UNL     1      -5.342   3.447  25.572  0.00  0.00    +0.144 C 
ATOM     18  O   UNL     1      -6.021   2.981  25.513  0.00  0.00    -0.354 OA
ATOM     19  C   UNL     1      -5.988   2.248  25.135  0.00  0.00    +0.144 C 
ATOM     20  C   UNL     1      -5.275   1.981  24.817  0.00  0.00    +0.048 C 
ENDBRANCH   9  15
BRANCH   5   4
ATOM      4  C   UNL     1      -0.919   0.239  24.377  0.00  0.00    +0.127 C 
BRANCH   4   3
ATOM      3  C   UNL     1      -0.943  -0.449  24.831  0.00  0.00    +0.164 C 
BRANCH   3   2
ATOM      1  C   UNL     1      -0.373  -1.708  25.194  0.00  0.00    +0.174 C 
ATOM      2  O   UNL     1      -0.311  -0.979  24.811  0.00  0.00    -0.349 OA
ENDBRANCH   3   2
ENDBRANCH   4   3
ENDBRANCH   5   4
TORSDOF 4
ENDMDL
MODEL 7
REMARK VINA RESULT:      -7.4      2.206      3.080
REMARK  Name = 
REMARK  4 active torsions:
REMARK  status: ('A' for Active; 'I' for Inactive)
REMARK    1  A    between atoms: O_2  and  C_3
REMARK    2  A    between atoms: C_3  and  C_4
REMARK    3  A    between atoms: C_4  and  N_5
REMARK    4  A    between atoms: N_9  and  C_15
REMARK                            x       y       z     vdW  Elec       q    Type
REMARK                         _______ _______ _______ _____ _____    ______ ____
ROOT
ATOM      5  N   UNL     1      -2.866   3.113  25.252  0.00  0.00    -0.260 N 
ATOM      6  C   UNL     1      -2.890   2.339  24.966  0.00  0.00    +0.116 C 
ATOM      7  C   UNL     1      -2.125   2.035  24.990  0.00  0.00    +0.113 C 
ATOM      8  C   UNL     1      -1.815   1.300  24.776  0.00  0.00    +0.094 C 
ATOM      9  N   UNL     1      -1.010   1.150  24.864  0.00  0.00    -0.271 NA
ATOM     10  C   UNL     1      -0.512   1.735  25.165  0.00  0.00    +0.094 C 
ATOM     11  C   UNL     1      -0.819   2.469  25.378  0.00  0.00    +0.112 C 
ATOM     12  N   UNL     1      -1.627   2.619  25.291  0.00  0.00    -0.261 N 
ATOM     13  C   UNL     1      -2.085   3.285  25.453  0.00  0.00    +0.307 C 
ATOM     14  O   UNL     1      -1.810   4.000  25.762  0.00  0.00    -0.252 OA
ENDROOT
BRANCH   9  15
ATOM     15  C   UNL     1      -0.700   0.415  24.650  0.00  0.00    +0.063 C 
ATOM     16  C   UNL     1      -0.209   0.351  23.990  0.00  0.00    +0.048 C 
ATOM     17  C   UNL     1       0.101  -0.383  23.776  0.00  0.00    +0.144 C 
ATOM     18  O   UNL     1      -0.081  -1.053  24.222  0.00  0.00    -0.354 OA
ATOM     19  C   UNL     1      -0.572  -0.989  24.882  0.00  0.00    +0.144 C 
ATOM     20  C   UNL     1      -0.882  -0.254  25.095  0.00  0.00    +0.048 C 
ENDBRANCH   9  15
BRANCH   5   4
ATOM      4  C   UNL     1      -3.509   3.624  25.325  0.00  0.00    +0.127 C 
BRANCH   4   3
ATOM      3  C   UNL     1      -4.278   3.330  25.269  0.00  0.00    +0.164 C 
BRANCH   3   2
ATOM      1  C   UNL     1      -5.656   3.517  25.597  0.00  0.00    +0.174 C 
ATOM      2  O   UNL     1      -4.922   3.831  25.390  0.00  0.00    -0.349 OA
ENDBRANCH   3   2
ENDBRANCH   4   3
ENDBRANCH   5   4
TORSDOF 4
ENDMDL
MODEL 8
REMARK VINA RESULT:      -7.2      3.017      4.385
REMARK  Name = 
REMARK  4 active torsions:
REMARK  status: ('A' for Active; 'I' for Inactive)
REMARK    1  A    between atoms: O_2  and  C_3
REMARK    2  A    between atoms: C_3  and  C_4
REMARK    3  A    between atoms: C_4  and  N_5
REMARK    4  A    between atoms: N_9  and  C_15
REMARK                            x       y       z     vdW  Elec       q    Type
REMARK                         _______ _______ _______ _____ _____    ______ ____
ROOT
ATOM      5  N   UNL     1      -0.241   0.150  23.870  0.00  0.00    -0.260 N 
ATOM      6  C   UNL     1      -0.495   0.906  23.656  0.00  0.00    +0.116 C 
ATOM      7  C   UNL     1      -1.211   1.052  24.038  0.00  0.00    +0.113 C 
ATOM      8  C   UNL     1      -1.716   1.705  24.034  0.00  0.00    +0.094 C 
ATOM      9  N   UNL     1      -2.409   1.693  24.481  0.00  0.00    -0.271 NA
ATOM     10  C   UNL     1      -2.598   1.028  24.931  0.00  0.00    +0.094 C 
ATOM     11  C   UNL     1      -2.094   0.375  24.936  0.00  0.00    +0.112 C 
ATOM     12  N   UNL     1      -1.400   0.387  24.489  0.00  0.00    -0.261 N 
ATOM     13  C   UNL     1      -0.801  -0.170  24.385  0.00  0.00    +0.307 C 
ATOM     14  O   UNL     1      -0.766  -0.916  24.735  0.00  0.00    -0.252 OA
ENDROOT
BRANCH   9  15
ATOM     15  C   UNL     1      -2.914   2.345  24.477  0.00  0.00    +0.063 C 
ATOM     16  C   UNL     1      -3.504   2.406  23.904  0.00  0.00    +0.048 C 
ATOM     17  C   UNL     1      -4.010   3.058  23.899  0.00  0.00    +0.144 C 
ATOM     18  O   UNL     1      -3.925   3.650  24.469  0.00  0.00    -0.354 OA
ATOM     19  C   UNL     1      -3.335   3.589  25.043  0.00  0.00    +0.144 C 
ATOM     20  C   UNL     1      -2.829   2.936  25.046  0.00  0.00    +0.048 C 
ENDBRANCH   9  15
BRANCH   5   4
ATOM      4  C   UNL     1       0.450  -0.219  23.615  0.00  0.00    +0.127 C 
BRANCH   4   3
ATOM      3  C   UNL     1       0.954   0.165  23.086  0.00  0.00    +0.164 C 
BRANCH   3   2
ATOM      1  C   UNL     1       2.275   0.090  22.548  0.00  0.00    +0.174 C 
ATOM      2  O   UNL     1       1.541  -0.259  22.691  0.00  0.00    -0.349 OA
ENDBRANCH   3   2
ENDBRANCH   4   3
ENDBRANCH   5   4
TORSDOF 4
ENDMDL
MODEL 9
REMARK VINA RESULT:      -7.1      2.260      3.235
REMARK  Name = 
REMARK  4 active torsions:
REMARK  status: ('A' for Active; 'I' for Inactive)
REMARK    1  A    between atoms: O_2  and  C_3
REMARK    2  A    between atoms: C_3  and  C_4
REMARK    3  A    between atoms: C_4  and  N_5
REMARK    4  A    between atoms: N_9  and  C_15
REMARK                            x       y       z     vdW  Elec       q    Type
REMARK                         _______ _______ _______ _____ _____    ______ ____
ROOT
ATOM      5  N   UNL     1      -1.207   2.937  24.794  0.00  0.00    -0.260 N 
ATOM      6  C   UNL     1      -1.787   2.350  24.798  0.00  0.00    +0.116 C 
ATOM      7  C   UNL     1      -2.514   2.712  24.943  0.00  0.00    +0.113 C 
ATOM      8  C   UNL     1      -3.279   2.409  25.008  0.00  0.00    +0.094 C 
ATOM      9  N   UNL     1      -3.912   2.915  25.158  0.00  0.00    -0.271 NA
ATOM     10  C   UNL     1      -3.781   3.725  25.242  0.00  0.00    +0.094 C 
ATOM     11  C   UNL     1      -3.017   4.029  25.177  0.00  0.00    +0.112 C 
ATOM     12  N   UNL     1      -2.383   3.522  25.027  0.00  0.00    -0.261 N 
ATOM     13  C   UNL     1      -1.576   3.661  24.935  0.00  0.00    +0.307 C 
ATOM     14  O   UNL     1      -1.202   4.395  24.978  0.00  0.00    -0.252 OA
ENDROOT
BRANCH   9  15
ATOM     15  C   UNL     1      -4.677   2.612  25.223  0.00  0.00    +0.063 C 
ATOM     16  C   UNL     1      -4.969   2.103  24.643  0.00  0.00    +0.048 C 
ATOM     17  C   UNL     1      -5.734   1.800  24.707  0.00  0.00    +0.144 C 
ATOM     18  O   UNL     1      -6.206   2.005  25.352  0.00  0.00    -0.354 OA
ATOM     19  C   UNL     1      -5.913   2.513  25.933  0.00  0.00    +0.144 C 
ATOM     20  C   UNL     1      -5.148   2.816  25.867  0.00  0.00    +0.048 C 
ENDBRANCH   9  15
BRANCH   5   4
ATOM      4  C   UNL     1      -0.400   2.820  24.670  0.00  0.00    +0.127 C 
BRANCH   4   3
ATOM      3  C   UNL     1      -0.120   2.076  24.450  0.00  0.00    +0.164 C 
BRANCH   3   2
ATOM      1  C   UNL     1       0.951   1.306  23.900  0.00  0.00    +0.174 C 
ATOM      2  O   UNL     1       0.689   1.956  24.335  0.00  0.00    -0.349 OA
ENDBRANCH   3   2
ENDBRANCH   4   3
ENDBRANCH   5   4
TORSDOF 4
ENDMDL
MODEL 10
REMARK VINA RESULT:      -6.7      1.897      2.716
REMARK  Name = 
REMARK  4 active torsions:
REMARK  status: ('A' for Active; 'I' for Inactive)
REMARK    1  A    between atoms: O_2  and  C_3
REMARK    2  A    between atoms: C_3  and  C_4
REMARK    3  A    between atoms: C_4  and  N_5
REMARK    4  A    between atoms: N_9  and  C_15
REMARK                            x       y       z     vdW  Elec       q    Type
REMARK                         _______ _______ _______ _____ _____    ______ ____
ROOT
ATOM      5  N   UNL     1      -4.387   1.490  24.755  0.00  0.00    -0.260 N 
ATOM      6  C   UNL     1      -3.567   1.532  24.845  0.00  0.00    +0.116 C 
ATOM      7  C   UNL     1      -3.264   0.768  24.780  0.00  0.00    +0.113 C 
ATOM      8  C   UNL     1      -2.495   0.473  24.822  0.00  0.00    +0.094 C 
ATOM      9  N   UNL     1      -2.357  -0.335  24.735  0.00  0.00    -0.271 NA
ATOM     10  C   UNL     1      -2.988  -0.849  24.606  0.00  0.00    +0.094 C 
ATOM     11  C   UNL     1      -3.758  -0.556  24.563  0.00  0.00    +0.112 C 
ATOM     12  N   UNL     1      -3.896   0.253  24.651  0.00  0.00    -0.261 N 
ATOM     13  C   UNL     1      -4.589   0.699  24.635  0.00  0.00    +0.307 C 
ATOM     14  O   UNL     1      -5.352   0.406  24.520  0.00  0.00    -0.252 OA
ENDROOT
BRANCH   9  15
ATOM     15  C   UNL     1      -1.587  -0.629  24.777  0.00  0.00    +0.063 C 
ATOM     16  C   UNL     1      -1.363  -1.107  25.411  0.00  0.00    +0.048 C 
ATOM     17  C   UNL     1      -0.594  -1.402  25.455  0.00  0.00    +0.144 C 
ATOM     18  O   UNL     1      -0.048  -1.219  24.863  0.00  0.00    -0.354 OA
ATOM     19  C   UNL     1      -0.272  -0.741  24.229  0.00  0.00    +0.144 C 
ATOM     20  C   UNL     1      -1.042  -0.446  24.187  0.00  0.00    +0.048 C 
ENDBRANCH   9  15
BRANCH   5   4
ATOM      4  C   UNL     1      -4.911   2.126  24.781  0.00  0.00    +0.127 C 
BRANCH   4   3
ATOM      3  C   UNL     1      -4.672   2.845  25.107  0.00  0.00    +0.164 C 
BRANCH   3   2
ATOM      1  C   UNL     1      -5.178   4.062  25.659  0.00  0.00    +0.174 C 
ATOM      2  O   UNL     1      -5.159   3.508  25.048  0.00  0.00    -0.349 OA
ENDBRANCH   3   2
ENDBRANCH   4   3
ENDBRANCH   5   4
TORSDOF 4
ENDMDL
