MODEL 1
REMARK VINA RESULT:      -9.9      0.000      0.000
REMARK  Name = 
REMARK  4 active torsions:
REMARK  status: ('A' for Active; 'I' for Inactive)
REMARK    1  A    between atoms: O_2  and  C_3
REMARK    2  A    between atoms: C_6  and  C_9
REMARK    3  A    between atoms: C_12  and  C_14
REMARK    4  A    between atoms: N_18  and  C_19
REMARK                            x       y       z     vdW  Elec       q    Type
REMARK                         _______ _______ _______ _____ _____    ______ ____
ROOT
ATOM      9  C   UNL     1      -4.215   0.823  24.537  0.00  0.00    +0.205 A 
ATOM     10  N   UNL     1      -3.624   0.836  23.961  0.00  0.00    -0.056 NA
ATOM     11  O   UNL     1      -3.418   0.055  23.790  0.00  0.00    -0.336 OA
ATOM     12  C   UNL     1      -3.881  -0.440  24.260  0.00  0.00    +0.251 A 
ATOM     13  N   UNL     1      -4.374   0.035  24.722  0.00  0.00    -0.190 NA
ENDROOT
BRANCH   9   6
ATOM      3  C   UNL     1      -5.317   2.802  25.534  0.00  0.00    +0.225 A 
ATOM      4  N   UNL     1      -4.502   2.803  25.410  0.00  0.00    -0.210 NA
ATOM      5  C   UNL     1      -4.135   2.144  25.077  0.00  0.00    +0.105 A 
ATOM      6  C   UNL     1      -4.582   1.483  24.869  0.00  0.00    +0.058 A 
ATOM      7  C   UNL     1      -5.399   1.482  24.994  0.00  0.00    +0.010 A 
ATOM      8  C   UNL     1      -5.766   2.142  25.326  0.00  0.00    +0.058 A 
BRANCH   3   2
ATOM      1  C   UNL     1      -5.602   4.203  25.512  0.00  0.00    +0.254 C 
ATOM      2  O   UNL     1      -5.685   3.462  25.866  0.00  0.00    -0.456 OA
ENDBRANCH   3   2
ENDBRANCH   9   6
BRANCH  12  14
ATOM     14  C   UNL     1      -3.857  -1.264  24.268  0.00  0.00    +0.138 C 
ATOM     15  C   UNL     1      -4.303  -1.766  23.790  0.00  0.00    +0.027 C 
ATOM     16  C   UNL     1      -4.103  -2.544  23.982  0.00  0.00    +0.019 C 
ATOM     17  C   UNL     1      -3.534  -2.522  24.577  0.00  0.00    +0.072 C 
ATOM     18  N   UNL     1      -3.381  -1.731  24.754  0.00  0.00    -0.268 NA
BRANCH  18  19
ATOM     19  C   UNL     1      -2.847  -1.455  25.319  0.00  0.00    +0.058 C 
ATOM     20  C   UNL     1      -3.092  -1.340  26.097  0.00  0.00    +0.017 C 
ATOM     21  C   UNL     1      -2.066  -1.295  25.104  0.00  0.00    +0.017 C 
ENDBRANCH  18  19
ENDBRANCH  12  14
TORSDOF 4
ENDMDL
MODEL 2
REMARK VINA RESULT:      -9.7      1.151      4.410
REMARK  Name = 
REMARK  4 active torsions:
REMARK  status: ('A' for Active; 'I' for Inactive)
REMARK    1  A    between atoms: O_2  and  C_3
REMARK    2  A    between atoms: C_6  and  C_9
REMARK    3  A    between atoms: C_12  and  C_14
REMARK    4  A    between atoms: N_18  and  C_19
REMARK                            x       y       z     vdW  Elec       q    Type
REMARK                         _______ _______ _______ _____ _____    ______ ____
ROOT
ATOM      9  C   UNL     1      -4.024   0.500  24.577  0.00  0.00    +0.205 A 
ATOM     10  N   UNL     1      -3.821   0.907  23.889  0.00  0.00    -0.056 NA
ATOM     11  O   UNL     1      -4.057   1.693  23.979  0.00  0.00    -0.336 OA
ATOM     12  C   UNL     1      -4.406   1.771  24.722  0.00  0.00    +0.251 A 
ATOM     13  N   UNL     1      -4.386   1.034  25.092  0.00  0.00    -0.190 NA
ENDROOT
BRANCH   9   6
ATOM      3  C   UNL     1      -3.618  -1.901  25.021  0.00  0.00    +0.225 A 
ATOM      4  N   UNL     1      -3.338  -1.332  25.547  0.00  0.00    -0.210 NA
ATOM      5  C   UNL     1      -3.473  -0.531  25.399  0.00  0.00    +0.105 A 
ATOM      6  C   UNL     1      -3.889  -0.300  24.725  0.00  0.00    +0.058 A 
ATOM      7  C   UNL     1      -4.169  -0.871  24.199  0.00  0.00    +0.010 A 
ATOM      8  C   UNL     1      -4.034  -1.671  24.346  0.00  0.00    +0.058 A 
BRANCH   3   2
ATOM      1  C   UNL     1      -3.258  -3.203  24.553  0.00  0.00    +0.254 C 
ATOM      2  O   UNL     1      -3.483  -2.701  25.169  0.00  0.00    -0.456 OA
ENDBRANCH   3   2
ENDBRANCH   9   6
BRANCH  12  14
ATOM     14  C   UNL     1      -4.721   2.464  25.039  0.00  0.00    +0.138 C 
ATOM     15  C   UNL     1      -5.504   2.580  25.269  0.00  0.00    +0.027 C 
ATOM     16  C   UNL     1      -5.575   3.351  25.555  0.00  0.00    +0.019 C 
ATOM     17  C   UNL     1      -4.835   3.711  25.502  0.00  0.00    +0.072 C 
ATOM     18  N   UNL     1      -4.307   3.164  25.183  0.00  0.00    -0.268 NA
BRANCH  18  19
ATOM     19  C   UNL     1      -3.506   3.292  25.035  0.00  0.00    +0.058 C 
ATOM     20  C   UNL     1      -2.950   3.160  25.629  0.00  0.00    +0.017 C 
ATOM     21  C   UNL     1      -3.261   3.554  24.291  0.00  0.00    +0.017 C 
ENDBRANCH  18  19
ENDBRANCH  12  14
TORSDOF 4
ENDMDL
MODEL 3
REMARK VINA RESULT:      -9.6      1.625      4.587
REMARK  Name = 
REMARK  4 active torsions:
REMARK  status: ('A' for Active; 'I' for Inactive)
REMARK    1  A    between atoms: O_2  and  C_3
REMARK    2  A    between atoms: C_6  and  C_9
REMARK    3  A    between atoms: C_12  and  C_14
REMARK    4  A    between atoms: N_18  and  C_19
REMARK                            x       y       z     vdW  Elec       q    Type
REMARK                         _______ _______ _______ _____ _____    ______ ____
ROOT
ATOM      9  C   UNL     1      -2.951   0.866  24.427  0.00  0.00    +0.205 A 
ATOM     10  N   UNL     1      -2.847   1.227  23.693  0.00  0.00    -0.056 NA
ATOM     11  O   UNL     1      -2.662   2.021  23.823  0.00  0.00    -0.336 OA
ATOM     12  C   UNL     1      -2.651   2.150  24.638  0.00  0.00    +0.251 A 
ATOM     13  N   UNL     1      -2.829   1.436  25.012  0.00  0.00    -0.190 NA
ENDROOT
BRANCH   9   6
ATOM      3  C   UNL     1      -3.525  -1.511  24.811  0.00  0.00    +0.225 A 
ATOM      4  N   UNL     1      -2.789  -1.222  25.046  0.00  0.00    -0.210 NA
ATOM      5  C   UNL     1      -2.598  -0.429  24.918  0.00  0.00    +0.105 A 
ATOM      6  C   UNL     1      -3.142   0.074  24.555  0.00  0.00    +0.058 A 
ATOM      7  C   UNL     1      -3.879  -0.217  24.320  0.00  0.00    +0.010 A 
ATOM      8  C   UNL     1      -4.070  -1.009  24.448  0.00  0.00    +0.058 A 
BRANCH   3   2
ATOM      1  C   UNL     1      -3.699  -2.839  24.311  0.00  0.00    +0.254 C 
ATOM      2  O   UNL     1      -3.716  -2.303  24.939  0.00  0.00    -0.456 OA
ENDBRANCH   3   2
ENDBRANCH   9   6
BRANCH  12  14
ATOM     14  C   UNL     1      -2.489   2.866  25.014  0.00  0.00    +0.138 C 
ATOM     15  C   UNL     1      -1.763   3.095  25.329  0.00  0.00    +0.027 C 
ATOM     16  C   UNL     1      -1.851   3.850  25.650  0.00  0.00    +0.019 C 
ATOM     17  C   UNL     1      -2.632   4.087  25.533  0.00  0.00    +0.072 C 
ATOM     18  N   UNL     1      -3.027   3.480  25.139  0.00  0.00    -0.268 NA
BRANCH  18  19
ATOM     19  C   UNL     1      -3.819   3.485  24.912  0.00  0.00    +0.058 C 
ATOM     20  C   UNL     1      -4.029   3.720  24.150  0.00  0.00    +0.017 C 
ATOM     21  C   UNL     1      -4.403   3.253  25.448  0.00  0.00    +0.017 C 
ENDBRANCH  18  19
ENDBRANCH  12  14
TORSDOF 4
ENDMDL
MODEL 4
REMARK VINA RESULT:      -8.9      2.107      2.577
REMARK  Name = 
REMARK  4 active torsions:
REMARK  status: ('A' for Active; 'I' for Inactive)
REMARK    1  A    between atoms: O_2  and  C_3
REMARK    2  A    between atoms: C_6  and  C_9
REMARK    3  A    between atoms: C_12  and  C_14
REMARK    4  A    between atoms: N_18  and  C_19
REMARK                            x       y       z     vdW  Elec       q    Type
REMARK                         _______ _______ _______ _____ _____    ______ ____
ROOT
ATOM      9  C   UNL     1      -2.237   1.693  24.602  0.00  0.00    +0.205 A 
ATOM     10  N   UNL     1      -1.960   1.345  23.907  0.00  0.00    -0.056 NA
ATOM     11  O   UNL     1      -2.194   0.553  23.908  0.00  0.00    -0.336 OA
ATOM     12  C   UNL     1      -2.615   0.413  24.603  0.00  0.00    +0.251 A 
ATOM     13  N   UNL     1      -2.642   1.117  25.032  0.00  0.00    -0.190 NA
ENDROOT
BRANCH   9   6
ATOM      3  C   UNL     1      -1.909   4.052  25.277  0.00  0.00    +0.225 A 
ATOM      4  N   UNL     1      -2.590   3.831  24.867  0.00  0.00    -0.210 NA
ATOM      5  C   UNL     1      -2.699   3.045  24.642  0.00  0.00    +0.105 A 
ATOM      6  C   UNL     1      -2.127   2.480  24.827  0.00  0.00    +0.058 A 
ATOM      7  C   UNL     1      -1.446   2.701  25.237  0.00  0.00    +0.010 A 
ATOM      8  C   UNL     1      -1.337   3.487  25.462  0.00  0.00    +0.058 A 
BRANCH   3   2
ATOM      1  C   UNL     1      -1.316   5.333  25.052  0.00  0.00    +0.254 C 
ATOM      2  O   UNL     1      -1.800   4.838  25.502  0.00  0.00    -0.456 OA
ENDBRANCH   3   2
ENDBRANCH   9   6
BRANCH  12  14
ATOM     14  C   UNL     1      -2.951  -0.305  24.830  0.00  0.00    +0.138 C 
ATOM     15  C   UNL     1      -3.752  -0.498  24.793  0.00  0.00    +0.027 C 
ATOM     16  C   UNL     1      -3.841  -1.270  25.074  0.00  0.00    +0.019 C 
ATOM     17  C   UNL     1      -3.095  -1.552  25.284  0.00  0.00    +0.072 C 
ATOM     18  N   UNL     1      -2.545  -0.957  25.133  0.00  0.00    -0.268 NA
BRANCH  18  19
ATOM     19  C   UNL     1      -1.732  -1.004  25.263  0.00  0.00    +0.058 C 
ATOM     20  C   UNL     1      -1.234  -1.271  24.663  0.00  0.00    +0.017 C 
ATOM     21  C   UNL     1      -1.418  -0.784  25.993  0.00  0.00    +0.017 C 
ENDBRANCH  18  19
ENDBRANCH  12  14
TORSDOF 4
ENDMDL
