MODEL 1
REMARK VINA RESULT:     -12.8      0.000      0.000
REMARK  Name = 
REMARK  6 active torsions:
REMARK  status: ('A' for Active; 'I' for Inactive)
REMARK    1  A    between atoms: N_2  and  C_4
REMARK    2  A    between atoms: C_7  and  C_10
REMARK    3  A    between atoms: C_13  and  C_15
REMARK    4  A    between atoms: N_18  and  C_19
REMARK    5  A    between atoms: C_19  and  C_20
REMARK    6  A    between atoms: C_23  and  C_26
REMARK                            x       y       z     vdW  Elec       q    Type
REMARK                         _______ _______ _______ _____ _____    ______ ____
ROOT
ATOM     15  C   UNL     1      -4.510   2.467  25.312  0.00  0.00    +0.096 C 
ATOM     16  C   UNL     1      -4.978   3.114  25.105  0.00  0.00    +0.028 C 
ATOM     17  C   UNL     1      -4.619   3.794  25.404  0.00  0.00    +0.073 C 
ATOM     18  N   UNL     1      -3.929   3.567  25.794  0.00  0.00    -0.268 NA
ATOM     30  C   UNL     1      -3.861   2.747  25.737  0.00  0.00    +0.082 C 
ENDROOT
BRANCH  15  13
ATOM     10  C   UNL     1      -4.498   0.376  24.880  0.00  0.00    +0.250 A 
ATOM     11  N   UNL     1      -5.299   0.552  24.794  0.00  0.00    -0.107 NA
ATOM     12  N   UNL     1      -5.402   1.357  24.945  0.00  0.00    -0.111 NA
ATOM     13  C   UNL     1      -4.663   1.678  25.125  0.00  0.00    +0.227 A 
ATOM     14  O   UNL     1      -4.105   1.072  25.084  0.00  0.00    -0.419 OA
BRANCH  10   7
ATOM      4  C   UNL     1      -3.457  -1.849  24.577  0.00  0.00    +0.048 A 
ATOM      5  C   UNL     1      -3.799  -1.462  23.933  0.00  0.00    +0.015 A 
ATOM      6  C   UNL     1      -4.146  -0.720  24.034  0.00  0.00    +0.006 A 
ATOM      7  C   UNL     1      -4.151  -0.366  24.779  0.00  0.00    +0.055 A 
ATOM      8  C   UNL     1      -3.809  -0.752  25.422  0.00  0.00    +0.006 A 
ATOM      9  C   UNL     1      -3.462  -1.493  25.321  0.00  0.00    +0.015 A 
BRANCH   4   2
ATOM      1  C   UNL     1      -3.583  -3.263  24.426  0.00  0.00    +0.112 C 
ATOM      2  N   UNL     1      -3.110  -2.590  24.476  0.00  0.00    -0.304 N 
ATOM      3  C   UNL     1      -2.289  -2.658  24.424  0.00  0.00    +0.112 C 
ENDBRANCH   4   2
ENDBRANCH  10   7
ENDBRANCH  15  13
BRANCH  18  19
ATOM     19  C   UNL     1      -3.398   4.072  26.175  0.00  0.00    +0.099 C 
BRANCH  19  20
ATOM     20  C   UNL     1      -2.693   4.285  25.805  0.00  0.00    -0.006 A 
ATOM     21  C   UNL     1      -2.029   3.799  25.870  0.00  0.00    -0.003 A 
ATOM     22  C   UNL     1      -1.324   4.012  25.499  0.00  0.00    +0.004 A 
ATOM     23  C   UNL     1      -1.282   4.711  25.064  0.00  0.00    +0.071 A 
ATOM     24  C   UNL     1      -1.945   5.197  24.998  0.00  0.00    +0.004 A 
ATOM     25  C   UNL     1      -2.651   4.985  25.369  0.00  0.00    -0.003 A 
BRANCH  23  26
ATOM     26  C   UNL     1      -0.576   4.924  24.693  0.00  0.00    +0.419 C 
ATOM     27  F   UNL     1       0.130   5.137  24.322  0.00  0.00    -0.166 F 
ATOM     28  F   UNL     1      -0.504   4.160  24.391  0.00  0.00    -0.166 F 
ATOM     29  F   UNL     1      -0.648   5.689  24.995  0.00  0.00    -0.166 F 
ENDBRANCH  23  26
ENDBRANCH  19  20
ENDBRANCH  18  19
TORSDOF 6
ENDMDL
MODEL 2
REMARK VINA RESULT:     -11.3      3.332      6.609
REMARK  Name = 
REMARK  6 active torsions:
REMARK  status: ('A' for Active; 'I' for Inactive)
REMARK    1  A    between atoms: N_2  and  C_4
REMARK    2  A    between atoms: C_7  and  C_10
REMARK    3  A    between atoms: C_13  and  C_15
REMARK    4  A    between atoms: N_18  and  C_19
REMARK    5  A    between atoms: C_19  and  C_20
REMARK    6  A    between atoms: C_23  and  C_26
REMARK                            x       y       z     vdW  Elec       q    Type
REMARK                         _______ _______ _______ _____ _____    ______ ____
ROOT
ATOM     15  C   UNL     1      -0.366  -0.016  24.606  0.00  0.00    +0.096 C 
ATOM     16  C   UNL     1       0.022  -0.592  24.159  0.00  0.00    +0.028 C 
ATOM     17  C   UNL     1      -0.305  -1.325  24.350  0.00  0.00    +0.073 C 
ATOM     18  N   UNL     1      -0.895  -1.203  24.914  0.00  0.00    -0.268 NA
ATOM     30  C   UNL     1      -0.932  -0.394  25.072  0.00  0.00    +0.082 C 
ENDROOT
BRANCH  15  13
ATOM     10  C   UNL     1      -0.366   2.117  24.693  0.00  0.00    +0.250 A 
ATOM     11  N   UNL     1       0.402   1.967  24.432  0.00  0.00    -0.107 NA
ATOM     12  N   UNL     1       0.496   1.150  24.367  0.00  0.00    -0.111 NA
ATOM     13  C   UNL     1      -0.214   0.794  24.588  0.00  0.00    +0.227 A 
ATOM     14  O   UNL     1      -0.747   1.392  24.789  0.00  0.00    -0.419 OA
BRANCH  10   7
ATOM      4  C   UNL     1      -1.352   4.348  25.111  0.00  0.00    +0.048 A 
ATOM      5  C   UNL     1      -1.479   3.733  25.647  0.00  0.00    +0.015 A 
ATOM      6  C   UNL     1      -1.151   2.989  25.507  0.00  0.00    +0.006 A 
ATOM      7  C   UNL     1      -0.694   2.861  24.832  0.00  0.00    +0.055 A 
ATOM      8  C   UNL     1      -0.567   3.474  24.297  0.00  0.00    +0.006 A 
ATOM      9  C   UNL     1      -0.896   4.218  24.436  0.00  0.00    +0.015 A 
BRANCH   4   2
ATOM      1  C   UNL     1      -1.276   5.771  25.018  0.00  0.00    +0.112 C 
ATOM      2  N   UNL     1      -1.681   5.092  25.250  0.00  0.00    -0.304 N 
ATOM      3  C   UNL     1      -2.415   5.154  25.622  0.00  0.00    +0.112 C 
ENDBRANCH   4   2
ENDBRANCH  10   7
ENDBRANCH  15  13
BRANCH  18  19
ATOM     19  C   UNL     1      -1.364  -1.787  25.260  0.00  0.00    +0.099 C 
BRANCH  19  20
ATOM     20  C   UNL     1      -2.101  -1.968  24.937  0.00  0.00    -0.006 A 
ATOM     21  C   UNL     1      -2.162  -2.534  24.339  0.00  0.00    -0.003 A 
ATOM     22  C   UNL     1      -2.899  -2.715  24.016  0.00  0.00    +0.004 A 
ATOM     23  C   UNL     1      -3.576  -2.331  24.291  0.00  0.00    +0.071 A 
ATOM     24  C   UNL     1      -3.515  -1.765  24.888  0.00  0.00    +0.004 A 
ATOM     25  C   UNL     1      -2.777  -1.583  25.212  0.00  0.00    -0.003 A 
BRANCH  23  26
ATOM     26  C   UNL     1      -4.313  -2.512  23.968  0.00  0.00    +0.419 C 
ATOM     27  F   UNL     1      -5.051  -2.694  23.646  0.00  0.00    -0.166 F 
ATOM     28  F   UNL     1      -4.292  -3.250  24.336  0.00  0.00    -0.166 F 
ATOM     29  F   UNL     1      -4.333  -1.774  23.601  0.00  0.00    -0.166 F 
ENDBRANCH  23  26
ENDBRANCH  19  20
ENDBRANCH  18  19
TORSDOF 6
ENDMDL
MODEL 3
REMARK VINA RESULT:     -11.0      2.292      3.157
REMARK  Name = 
REMARK  6 active torsions:
REMARK  status: ('A' for Active; 'I' for Inactive)
REMARK    1  A    between atoms: N_2  and  C_4
REMARK    2  A    between atoms: C_7  and  C_10
REMARK    3  A    between atoms: C_13  and  C_15
REMARK    4  A    between atoms: N_18  and  C_19
REMARK    5  A    between atoms: C_19  and  C_20
REMARK    6  A    between atoms: C_23  and  C_26
REMARK                            x       y       z     vdW  Elec       q    Type
REMARK                         _______ _______ _______ _____ _____    ______ ____
ROOT
ATOM     15  C   UNL     1      -1.094   1.894  25.398  0.00  0.00    +0.096 C 
ATOM     16  C   UNL     1      -0.485   2.308  25.771  0.00  0.00    +0.028 C 
ATOM     17  C   UNL     1      -0.704   3.104  25.809  0.00  0.00    +0.073 C 
ATOM     18  N   UNL     1      -1.447   3.180  25.460  0.00  0.00    -0.268 NA
ATOM     30  C   UNL     1      -1.688   2.433  25.206  0.00  0.00    +0.082 C 
ENDROOT
BRANCH  15  13
ATOM     10  C   UNL     1      -1.537  -0.154  24.993  0.00  0.00    +0.250 A 
ATOM     11  N   UNL     1      -0.713  -0.172  25.025  0.00  0.00    -0.107 NA
ATOM     12  N   UNL     1      -0.446   0.593  25.181  0.00  0.00    -0.111 NA
ATOM     13  C   UNL     1      -1.106   1.084  25.245  0.00  0.00    +0.227 A 
ATOM     14  O   UNL     1      -1.780   0.622  25.129  0.00  0.00    -0.419 OA
BRANCH  10   7
ATOM      4  C   UNL     1      -3.020  -2.089  24.564  0.00  0.00    +0.048 A 
ATOM      5  C   UNL     1      -2.200  -2.177  24.512  0.00  0.00    +0.015 A 
ATOM      6  C   UNL     1      -1.706  -1.532  24.655  0.00  0.00    +0.006 A 
ATOM      7  C   UNL     1      -2.031  -0.799  24.850  0.00  0.00    +0.055 A 
ATOM      8  C   UNL     1      -2.849  -0.711  24.902  0.00  0.00    +0.006 A 
ATOM      9  C   UNL     1      -3.343  -1.356  24.759  0.00  0.00    +0.015 A 
BRANCH   4   2
ATOM      1  C   UNL     1      -3.395  -3.442  24.826  0.00  0.00    +0.112 C 
ATOM      2  N   UNL     1      -3.514  -2.734  24.421  0.00  0.00    -0.304 N 
ATOM      3  C   UNL     1      -4.127  -2.669  23.873  0.00  0.00    +0.112 C 
ENDBRANCH   4   2
ENDBRANCH  10   7
ENDBRANCH  15  13
BRANCH  18  19
ATOM     19  C   UNL     1      -1.875   3.882  25.379  0.00  0.00    +0.099 C 
BRANCH  19  20
ATOM     20  C   UNL     1      -2.699   3.870  25.418  0.00  0.00    -0.006 A 
ATOM     21  C   UNL     1      -3.143   3.786  24.728  0.00  0.00    -0.003 A 
ATOM     22  C   UNL     1      -3.967   3.773  24.767  0.00  0.00    +0.004 A 
ATOM     23  C   UNL     1      -4.346   3.845  25.496  0.00  0.00    +0.071 A 
ATOM     24  C   UNL     1      -3.902   3.929  26.186  0.00  0.00    +0.004 A 
ATOM     25  C   UNL     1      -3.078   3.941  26.147  0.00  0.00    -0.003 A 
BRANCH  23  26
ATOM     26  C   UNL     1      -5.170   3.833  25.535  0.00  0.00    +0.419 C 
ATOM     27  F   UNL     1      -5.995   3.820  25.574  0.00  0.00    -0.166 F 
ATOM     28  F   UNL     1      -5.149   3.029  25.721  0.00  0.00    -0.166 F 
ATOM     29  F   UNL     1      -5.191   4.636  25.349  0.00  0.00    -0.166 F 
ENDBRANCH  23  26
ENDBRANCH  19  20
ENDBRANCH  18  19
TORSDOF 6
ENDMDL
MODEL 4
REMARK VINA RESULT:     -10.6      3.182      6.045
REMARK  Name = 
REMARK  6 active torsions:
REMARK  status: ('A' for Active; 'I' for Inactive)
REMARK    1  A    between atoms: N_2  and  C_4
REMARK    2  A    between atoms: C_7  and  C_10
REMARK    3  A    between atoms: C_13  and  C_15
REMARK    4  A    between atoms: N_18  and  C_19
REMARK    5  A    between atoms: C_19  and  C_20
REMARK    6  A    between atoms: C_23  and  C_26
REMARK                            x       y       z     vdW  Elec       q    Type
REMARK                         _______ _______ _______ _____ _____    ______ ____
ROOT
ATOM     15  C   UNL     1      -1.070   0.907  24.567  0.00  0.00    +0.096 C 
ATOM     16  C   UNL     1      -0.365   0.762  24.162  0.00  0.00    +0.028 C 
ATOM     17  C   UNL     1      -0.164  -0.031  24.275  0.00  0.00    +0.073 C 
ATOM     18  N   UNL     1      -0.744  -0.375  24.749  0.00  0.00    -0.268 NA
ATOM     30  C   UNL     1      -1.304   0.204  24.930  0.00  0.00    +0.082 C 
ENDROOT
BRANCH  15  13
ATOM     10  C   UNL     1      -2.427   2.540  24.779  0.00  0.00    +0.250 A 
ATOM     11  N   UNL     1      -1.742   2.932  24.538  0.00  0.00    -0.107 NA
ATOM     12  N   UNL     1      -1.150   2.368  24.429  0.00  0.00    -0.111 NA
ATOM     13  C   UNL     1      -1.469   1.627  24.603  0.00  0.00    +0.227 A 
ATOM     14  O   UNL     1      -2.258   1.734  24.819  0.00  0.00    -0.419 OA
BRANCH  10   7
ATOM      4  C   UNL     1      -4.605   3.598  25.291  0.00  0.00    +0.048 A 
ATOM      5  C   UNL     1      -3.947   3.760  25.762  0.00  0.00    +0.015 A 
ATOM      6  C   UNL     1      -3.221   3.407  25.591  0.00  0.00    +0.006 A 
ATOM      7  C   UNL     1      -3.153   2.893  24.949  0.00  0.00    +0.055 A 
ATOM      8  C   UNL     1      -3.810   2.732  24.478  0.00  0.00    +0.006 A 
ATOM      9  C   UNL     1      -4.536   3.085  24.649  0.00  0.00    +0.015 A 
BRANCH   4   2
ATOM      1  C   UNL     1      -5.419   4.768  25.393  0.00  0.00    +0.112 C 
ATOM      2  N   UNL     1      -5.331   3.951  25.461  0.00  0.00    -0.304 N 
ATOM      3  C   UNL     1      -5.969   3.486  25.701  0.00  0.00    +0.112 C 
ENDBRANCH   4   2
ENDBRANCH  10   7
ENDBRANCH  15  13
BRANCH  18  19
ATOM     19  C   UNL     1      -0.762  -1.162  24.999  0.00  0.00    +0.099 C 
BRANCH  19  20
ATOM     20  C   UNL     1      -1.443  -1.614  24.890  0.00  0.00    -0.006 A 
ATOM     21  C   UNL     1      -2.078  -1.537  25.411  0.00  0.00    -0.003 A 
ATOM     22  C   UNL     1      -2.759  -1.989  25.302  0.00  0.00    +0.004 A 
ATOM     23  C   UNL     1      -2.805  -2.519  24.672  0.00  0.00    +0.071 A 
ATOM     24  C   UNL     1      -2.171  -2.597  24.150  0.00  0.00    +0.004 A 
ATOM     25  C   UNL     1      -1.489  -2.144  24.259  0.00  0.00    -0.003 A 
BRANCH  23  26
ATOM     26  C   UNL     1      -3.486  -2.971  24.562  0.00  0.00    +0.419 C 
ATOM     27  F   UNL     1      -4.168  -3.424  24.453  0.00  0.00    -0.166 F 
ATOM     28  F   UNL     1      -3.580  -2.649  23.809  0.00  0.00    -0.166 F 
ATOM     29  F   UNL     1      -3.393  -3.294  25.316  0.00  0.00    -0.166 F 
ENDBRANCH  23  26
ENDBRANCH  19  20
ENDBRANCH  18  19
TORSDOF 6
ENDMDL
MODEL 5
REMARK VINA RESULT:     -10.5      2.881      3.944
REMARK  Name = 
REMARK  6 active torsions:
REMARK  status: ('A' for Active; 'I' for Inactive)
REMARK    1  A    between atoms: N_2  and  C_4
REMARK    2  A    between atoms: C_7  and  C_10
REMARK    3  A    between atoms: C_13  and  C_15
REMARK    4  A    between atoms: N_18  and  C_19
REMARK    5  A    between atoms: C_19  and  C_20
REMARK    6  A    between atoms: C_23  and  C_26
REMARK                            x       y       z     vdW  Elec       q    Type
REMARK                         _______ _______ _______ _____ _____    ______ ____
ROOT
ATOM     15  C   UNL     1      -1.797   3.121  25.261  0.00  0.00    +0.096 C 
ATOM     16  C   UNL     1      -1.612   3.892  25.490  0.00  0.00    +0.028 C 
ATOM     17  C   UNL     1      -2.282   4.360  25.376  0.00  0.00    +0.073 C 
ATOM     18  N   UNL     1      -2.882   3.878  25.078  0.00  0.00    -0.268 NA
ATOM     30  C   UNL     1      -2.582   3.112  25.007  0.00  0.00    +0.082 C 
ENDROOT
BRANCH  15  13
ATOM     10  C   UNL     1      -0.822   1.222  25.249  0.00  0.00    +0.250 A 
ATOM     11  N   UNL     1      -0.185   1.728  25.386  0.00  0.00    -0.107 NA
ATOM     12  N   UNL     1      -0.472   2.501  25.407  0.00  0.00    -0.111 NA
ATOM     13  C   UNL     1      -1.287   2.473  25.284  0.00  0.00    +0.227 A 
ATOM     14  O   UNL     1      -1.503   1.682  25.186  0.00  0.00    -0.419 OA
BRANCH  10   7
ATOM      4  C   UNL     1      -0.709  -1.243  25.063  0.00  0.00    +0.048 A 
ATOM      5  C   UNL     1      -1.048  -0.895  25.730  0.00  0.00    +0.015 A 
ATOM      6  C   UNL     1      -1.085  -0.073  25.793  0.00  0.00    +0.006 A 
ATOM      7  C   UNL     1      -0.784   0.400  25.187  0.00  0.00    +0.055 A 
ATOM      8  C   UNL     1      -0.446   0.053  24.521  0.00  0.00    +0.006 A 
ATOM      9  C   UNL     1      -0.408  -0.769  24.459  0.00  0.00    +0.015 A 
BRANCH   4   2
ATOM      1  C   UNL     1      -1.268  -2.477  24.610  0.00  0.00    +0.112 C 
ATOM      2  N   UNL     1      -0.671  -2.065  25.001  0.00  0.00    -0.304 N 
ATOM      3  C   UNL     1      -0.035  -2.474  25.331  0.00  0.00    +0.112 C 
ENDBRANCH   4   2
ENDBRANCH  10   7
ENDBRANCH  15  13
BRANCH  18  19
ATOM     19  C   UNL     1      -3.647   4.119  24.885  0.00  0.00    +0.099 C 
BRANCH  19  20
ATOM     20  C   UNL     1      -4.282   3.605  24.996  0.00  0.00    -0.006 A 
ATOM     21  C   UNL     1      -4.717   3.633  25.697  0.00  0.00    -0.003 A 
ATOM     22  C   UNL     1      -5.353   3.119  25.809  0.00  0.00    +0.004 A 
ATOM     23  C   UNL     1      -5.553   2.577  25.220  0.00  0.00    +0.071 A 
ATOM     24  C   UNL     1      -5.118   2.549  24.520  0.00  0.00    +0.004 A 
ATOM     25  C   UNL     1      -4.482   3.063  24.408  0.00  0.00    -0.003 A 
BRANCH  23  26
ATOM     26  C   UNL     1      -6.188   2.063  25.332  0.00  0.00    +0.419 C 
ATOM     27  F   UNL     1      -6.824   1.548  25.445  0.00  0.00    -0.166 F 
ATOM     28  F   UNL     1      -5.925   1.904  26.097  0.00  0.00    -0.166 F 
ATOM     29  F   UNL     1      -6.452   2.222  24.567  0.00  0.00    -0.166 F 
ENDBRANCH  23  26
ENDBRANCH  19  20
ENDBRANCH  18  19
TORSDOF 6
ENDMDL
MODEL 6
REMARK VINA RESULT:      -9.9      4.095      5.762
REMARK  Name = 
REMARK  6 active torsions:
REMARK  status: ('A' for Active; 'I' for Inactive)
REMARK    1  A    between atoms: N_2  and  C_4
REMARK    2  A    between atoms: C_7  and  C_10
REMARK    3  A    between atoms: C_13  and  C_15
REMARK    4  A    between atoms: N_18  and  C_19
REMARK    5  A    between atoms: C_19  and  C_20
REMARK    6  A    between atoms: C_23  and  C_26
REMARK                            x       y       z     vdW  Elec       q    Type
REMARK                         _______ _______ _______ _____ _____    ______ ____
ROOT
ATOM     15  C   UNL     1      -2.271   1.411  24.625  0.00  0.00    +0.096 C 
ATOM     16  C   UNL     1      -2.843   1.980  24.448  0.00  0.00    +0.028 C 
ATOM     17  C   UNL     1      -3.584   1.657  24.613  0.00  0.00    +0.073 C 
ATOM     18  N   UNL     1      -3.471   0.889  24.892  0.00  0.00    -0.268 NA
ATOM     30  C   UNL     1      -2.659   0.737  24.900  0.00  0.00    +0.082 C 
ENDROOT
BRANCH  15  13
ATOM     10  C   UNL     1      -0.195   1.335  24.136  0.00  0.00    +0.250 A 
ATOM     11  N   UNL     1      -0.206   1.945  24.691  0.00  0.00    -0.107 NA
ATOM     12  N   UNL     1      -0.985   2.048  24.943  0.00  0.00    -0.111 NA
ATOM     13  C   UNL     1      -1.456   1.502  24.542  0.00  0.00    +0.227 A 
ATOM     14  O   UNL     1      -0.967   1.061  24.044  0.00  0.00    -0.419 OA
BRANCH  10   7
ATOM      4  C   UNL     1       1.804   0.478  22.955  0.00  0.00    +0.048 A 
ATOM      5  C   UNL     1       1.085   0.076  22.895  0.00  0.00    +0.015 A 
ATOM      6  C   UNL     1       0.419   0.362  23.289  0.00  0.00    +0.006 A 
ATOM      7  C   UNL     1       0.471   1.049  23.742  0.00  0.00    +0.055 A 
ATOM      8  C   UNL     1       1.189   1.450  23.803  0.00  0.00    +0.006 A 
ATOM      9  C   UNL     1       1.855   1.165  23.409  0.00  0.00    +0.015 A 
BRANCH   4   2
ATOM      1  C   UNL     1       3.220   0.468  22.767  0.00  0.00    +0.112 C 
ATOM      2  N   UNL     1       2.471   0.192  22.562  0.00  0.00    -0.304 N 
ATOM      3  C   UNL     1       2.386  -0.369  21.963  0.00  0.00    +0.112 C 
ENDBRANCH   4   2
ENDBRANCH  10   7
ENDBRANCH  15  13
BRANCH  18  19
ATOM     19  C   UNL     1      -4.065   0.364  25.123  0.00  0.00    +0.099 C 
BRANCH  19  20
ATOM     20  C   UNL     1      -4.013  -0.433  24.920  0.00  0.00    -0.006 A 
ATOM     21  C   UNL     1      -3.662  -0.970  25.439  0.00  0.00    -0.003 A 
ATOM     22  C   UNL     1      -3.610  -1.768  25.236  0.00  0.00    +0.004 A 
ATOM     23  C   UNL     1      -3.909  -2.029  24.512  0.00  0.00    +0.071 A 
ATOM     24  C   UNL     1      -4.259  -1.493  23.993  0.00  0.00    +0.004 A 
ATOM     25  C   UNL     1      -4.311  -0.694  24.196  0.00  0.00    -0.003 A 
BRANCH  23  26
ATOM     26  C   UNL     1      -3.857  -2.826  24.308  0.00  0.00    +0.419 C 
ATOM     27  F   UNL     1      -3.804  -3.625  24.105  0.00  0.00    -0.166 F 
ATOM     28  F   UNL     1      -3.390  -2.966  24.974  0.00  0.00    -0.166 F 
ATOM     29  F   UNL     1      -4.323  -2.687  23.643  0.00  0.00    -0.166 F 
ENDBRANCH  23  26
ENDBRANCH  19  20
ENDBRANCH  18  19
TORSDOF 6
ENDMDL
MODEL 7
REMARK VINA RESULT:      -9.9      2.477      5.726
REMARK  Name = 
REMARK  6 active torsions:
REMARK  status: ('A' for Active; 'I' for Inactive)
REMARK    1  A    between atoms: N_2  and  C_4
REMARK    2  A    between atoms: C_7  and  C_10
REMARK    3  A    between atoms: C_13  and  C_15
REMARK    4  A    between atoms: N_18  and  C_19
REMARK    5  A    between atoms: C_19  and  C_20
REMARK    6  A    between atoms: C_23  and  C_26
REMARK                            x       y       z     vdW  Elec       q    Type
REMARK                         _______ _______ _______ _____ _____    ______ ____
ROOT
ATOM     15  C   UNL     1      -4.522   1.075  24.934  0.00  0.00    +0.096 C 
ATOM     16  C   UNL     1      -5.126   0.692  25.345  0.00  0.00    +0.028 C 
ATOM     17  C   UNL     1      -5.153  -0.091  25.087  0.00  0.00    +0.073 C 
ATOM     18  N   UNL     1      -4.566  -0.192  24.517  0.00  0.00    -0.268 NA
ATOM     30  C   UNL     1      -4.175   0.529  24.422  0.00  0.00    +0.082 C 
ENDROOT
BRANCH  15  13
ATOM     10  C   UNL     1      -3.572   2.982  25.073  0.00  0.00    +0.250 A 
ATOM     11  N   UNL     1      -4.356   3.182  25.230  0.00  0.00    -0.107 NA
ATOM     12  N   UNL     1      -4.808   2.493  25.197  0.00  0.00    -0.111 NA
ATOM     13  C   UNL     1      -4.303   1.866  25.020  0.00  0.00    +0.227 A 
ATOM     14  O   UNL     1      -3.538   2.168  24.943  0.00  0.00    -0.419 OA
BRANCH  10   7
ATOM      4  C   UNL     1      -1.656   4.547  25.004  0.00  0.00    +0.048 A 
ATOM      5  C   UNL     1      -1.656   3.873  24.526  0.00  0.00    +0.015 A 
ATOM      6  C   UNL     1      -2.295   3.352  24.549  0.00  0.00    +0.006 A 
ATOM      7  C   UNL     1      -2.933   3.504  25.050  0.00  0.00    +0.055 A 
ATOM      8  C   UNL     1      -2.933   4.176  25.527  0.00  0.00    +0.006 A 
ATOM      9  C   UNL     1      -2.294   4.698  25.504  0.00  0.00    +0.015 A 
BRANCH   4   2
ATOM      1  C   UNL     1      -0.248   4.776  24.933  0.00  0.00    +0.112 C 
ATOM      2  N   UNL     1      -1.017   5.068  24.981  0.00  0.00    -0.304 N 
ATOM      3  C   UNL     1      -1.149   5.883  25.006  0.00  0.00    +0.112 C 
ENDBRANCH   4   2
ENDBRANCH  10   7
ENDBRANCH  15  13
BRANCH  18  19
ATOM     19  C   UNL     1      -4.398  -0.892  24.112  0.00  0.00    +0.099 C 
BRANCH  19  20
ATOM     20  C   UNL     1      -3.711  -1.314  24.285  0.00  0.00    -0.006 A 
ATOM     21  C   UNL     1      -3.743  -1.965  24.791  0.00  0.00    -0.003 A 
ATOM     22  C   UNL     1      -3.056  -2.387  24.965  0.00  0.00    +0.004 A 
ATOM     23  C   UNL     1      -2.336  -2.158  24.632  0.00  0.00    +0.071 A 
ATOM     24  C   UNL     1      -2.304  -1.507  24.127  0.00  0.00    +0.004 A 
ATOM     25  C   UNL     1      -2.991  -1.084  23.953  0.00  0.00    -0.003 A 
BRANCH  23  26
ATOM     26  C   UNL     1      -1.649  -2.580  24.806  0.00  0.00    +0.419 C 
ATOM     27  F   UNL     1      -0.961  -3.002  24.980  0.00  0.00    -0.166 F 
ATOM     28  F   UNL     1      -1.482  -2.056  25.421  0.00  0.00    -0.166 F 
ATOM     29  F   UNL     1      -1.816  -3.104  24.191  0.00  0.00    -0.166 F 
ENDBRANCH  23  26
ENDBRANCH  19  20
ENDBRANCH  18  19
TORSDOF 6
ENDMDL
