MODEL 1
REMARK VINA RESULT:      -9.4      0.000      0.000
REMARK  Name = 
REMARK  9 active torsions:
REMARK  status: ('A' for Active; 'I' for Inactive)
REMARK    1  A    between atoms: S_2  and  C_3
REMARK    2  A    between atoms: C_7  and  N_8
REMARK    3  A    between atoms: N_11  and  C_12
REMARK    4  A    between atoms: C_16  and  C_17
REMARK    5  A    between atoms: N_19  and  C_20
REMARK    6  A    between atoms: C_20  and  C_21
REMARK    7  A    between atoms: C_20  and  C_27
REMARK    8  A    between atoms: C_21  and  C_22
REMARK    9  A    between atoms: C_30  and  C_32
REMARK                            x       y       z     vdW  Elec       q    Type
REMARK                         _______ _______ _______ _____ _____    ______ ____
ROOT
ATOM     12  C   UNL     1      -0.271  -0.071  24.103  0.00  0.00    +0.126 C 
ATOM     13  C   UNL     1      -0.281  -0.859  23.857  0.00  0.00    +0.045 C 
ATOM     14  C   UNL     1      -0.939  -1.223  24.194  0.00  0.00    +0.096 C 
ATOM     15  N   UNL     1      -1.337  -0.661  24.649  0.00  0.00    -0.268 N 
ATOM     16  C   UNL     1      -0.924   0.051  24.593  0.00  0.00    +0.174 C 
ATOM     30  C   UNL     1      -2.026  -0.789  25.083  0.00  0.00    +0.249 C 
ATOM     31  O   UNL     1      -2.363  -0.170  25.514  0.00  0.00    -0.270 OA
ENDROOT
BRANCH  12  11
ATOM      8  N   UNL     1       1.535   0.836  23.279  0.00  0.00    -0.161 NA
ATOM      9  C   UNL     1       0.972   0.270  23.486  0.00  0.00    +0.344 C 
ATOM     10  O   UNL     1       1.088  -0.522  23.283  0.00  0.00    -0.249 OA
ATOM     11  N   UNL     1       0.292   0.495  23.896  0.00  0.00    -0.186 NA
BRANCH   8   7
ATOM      3  C   UNL     1       3.639   0.597  22.747  0.00  0.00    +0.027 A 
ATOM      4  C   UNL     1       3.575   0.159  22.050  0.00  0.00    +0.006 A 
ATOM      5  C   UNL     1       2.831  -0.053  21.763  0.00  0.00    +0.002 A 
ATOM      6  C   UNL     1       2.151   0.173  22.173  0.00  0.00    +0.017 A 
ATOM      7  C   UNL     1       2.215   0.610  22.869  0.00  0.00    +0.075 A 
ATOM     36  C   UNL     1       2.959   0.823  23.157  0.00  0.00    +0.023 A 
BRANCH   3   2
ATOM      1  C   UNL     1       4.942   0.227  23.202  0.00  0.00    +0.074 C 
ATOM      2  S   UNL     1       4.382   0.810  23.034  0.00  0.00    -0.113 S 
ENDBRANCH   3   2
ENDBRANCH   8   7
ENDBRANCH  12  11
BRANCH  30  32
ATOM     32  C   UNL     1      -2.379  -1.534  25.088  0.00  0.00    +0.049 C 
ATOM     33  C   UNL     1      -3.153  -1.622  25.360  0.00  0.00    -0.039 C 
ATOM     34  C   UNL     1      -3.507  -2.368  25.365  0.00  0.00    +0.027 C 
ATOM     35  C   UNL     1      -3.574  -0.965  25.627  0.00  0.00    +0.027 C 
ENDBRANCH  30  32
BRANCH  16  17
ATOM     17  C   UNL     1      -1.128   0.760  24.960  0.00  0.00    +0.262 C 
ATOM     18  O   UNL     1      -1.031   0.846  25.775  0.00  0.00    -0.271 OA
ATOM     19  N   UNL     1      -1.429   1.385  24.513  0.00  0.00    -0.196 NA
BRANCH  19  20
ATOM     20  C   UNL     1      -1.633   2.096  24.882  0.00  0.00    +0.179 C 
BRANCH  20  27
ATOM     27  C   UNL     1      -1.058   2.672  25.011  0.00  0.00    +0.281 C 
ATOM     28  N   UNL     1      -0.875   2.905  25.781  0.00  0.00    -0.086 NA
ATOM     29  O   UNL     1      -0.667   3.017  24.371  0.00  0.00    -0.270 OA
ENDBRANCH  20  27
BRANCH  20  21
ATOM     21  C   UNL     1      -2.411   2.228  25.119  0.00  0.00    +0.064 C 
BRANCH  21  22
ATOM     22  C   UNL     1      -2.947   2.580  24.601  0.00  0.00    +0.010 A 
ATOM     23  C   UNL     1      -3.063   2.375  23.809  0.00  0.00    +0.003 A 
ATOM     24  C   UNL     1      -3.650   2.867  23.503  0.00  0.00    +0.007 A 
ATOM     25  C   UNL     1      -3.897   3.376  24.103  0.00  0.00    +0.035 A 
ATOM     26  S   UNL     1      -3.463   3.198  24.783  0.00  0.00    -0.091 S 
ENDBRANCH  21  22
ENDBRANCH  20  21
ENDBRANCH  19  20
ENDBRANCH  16  17
TORSDOF 9
ENDMDL
MODEL 2
REMARK VINA RESULT:      -9.2      1.431      3.112
REMARK  Name = 
REMARK  9 active torsions:
REMARK  status: ('A' for Active; 'I' for Inactive)
REMARK    1  A    between atoms: S_2  and  C_3
REMARK    2  A    between atoms: C_7  and  N_8
REMARK    3  A    between atoms: N_11  and  C_12
REMARK    4  A    between atoms: C_16  and  C_17
REMARK    5  A    between atoms: N_19  and  C_20
REMARK    6  A    between atoms: C_20  and  C_21
REMARK    7  A    between atoms: C_20  and  C_27
REMARK    8  A    between atoms: C_21  and  C_22
REMARK    9  A    between atoms: C_30  and  C_32
REMARK                            x       y       z     vdW  Elec       q    Type
REMARK                         _______ _______ _______ _____ _____    ______ ____
ROOT
ATOM     12  C   UNL     1      -1.005   1.019  23.868  0.00  0.00    +0.126 C 
ATOM     13  C   UNL     1      -1.018   1.680  23.374  0.00  0.00    +0.045 C 
ATOM     14  C   UNL     1      -1.712   2.099  23.528  0.00  0.00    +0.096 C 
ATOM     15  N   UNL     1      -2.127   1.697  24.116  0.00  0.00    -0.268 N 
ATOM     16  C   UNL     1      -1.691   1.029  24.327  0.00  0.00    +0.174 C 
ATOM     30  C   UNL     1      -2.853   1.924  24.438  0.00  0.00    +0.249 C 
ATOM     31  O   UNL     1      -3.204   1.464  25.027  0.00  0.00    -0.270 OA
ENDROOT
BRANCH  12  11
ATOM      8  N   UNL     1       0.833  -0.071  23.422  0.00  0.00    -0.161 NA
ATOM      9  C   UNL     1       0.239   0.501  23.392  0.00  0.00    +0.344 C 
ATOM     10  O   UNL     1       0.295   1.126  22.857  0.00  0.00    -0.249 OA
ATOM     11  N   UNL     1      -0.411   0.447  23.898  0.00  0.00    -0.186 NA
BRANCH   8   7
ATOM      3  C   UNL     1       2.825   0.407  22.667  0.00  0.00    +0.027 A 
ATOM      4  C   UNL     1       2.783   0.092  21.906  0.00  0.00    +0.006 A 
ATOM      5  C   UNL     1       2.091  -0.277  21.650  0.00  0.00    +0.002 A 
ATOM      6  C   UNL     1       1.441  -0.331  22.155  0.00  0.00    +0.017 A 
ATOM      7  C   UNL     1       1.483  -0.016  22.916  0.00  0.00    +0.075 A 
ATOM     36  C   UNL     1       2.175   0.353  23.173  0.00  0.00    +0.023 A 
BRANCH   3   2
ATOM      1  C   UNL     1       4.249   0.419  22.791  0.00  0.00    +0.074 C 
ATOM      2  S   UNL     1       3.517   0.776  22.924  0.00  0.00    -0.113 S 
ENDBRANCH   3   2
ENDBRANCH   8   7
ENDBRANCH  12  11
BRANCH  30  32
ATOM     32  C   UNL     1      -3.226   2.608  24.171  0.00  0.00    +0.049 C 
ATOM     33  C   UNL     1      -3.986   2.792  24.435  0.00  0.00    -0.039 C 
ATOM     34  C   UNL     1      -4.361   3.478  24.168  0.00  0.00    +0.027 C 
ATOM     35  C   UNL     1      -4.372   2.292  24.964  0.00  0.00    +0.027 C 
ENDBRANCH  30  32
BRANCH  16  17
ATOM     17  C   UNL     1      -1.903   0.471  24.895  0.00  0.00    +0.262 C 
ATOM     18  O   UNL     1      -1.894   0.672  25.696  0.00  0.00    -0.271 OA
ATOM     19  N   UNL     1      -2.123  -0.290  24.664  0.00  0.00    -0.196 NA
BRANCH  19  20
ATOM     20  C   UNL     1      -2.335  -0.849  25.234  0.00  0.00    +0.179 C 
BRANCH  20  27
ATOM     27  C   UNL     1      -1.753  -1.206  25.697  0.00  0.00    +0.281 C 
ATOM     28  N   UNL     1      -1.748  -1.088  26.513  0.00  0.00    -0.086 NA
ATOM     29  O   UNL     1      -1.177  -1.680  25.344  0.00  0.00    -0.270 OA
ENDBRANCH  20  27
BRANCH  20  21
ATOM     21  C   UNL     1      -3.127  -1.051  25.339  0.00  0.00    +0.064 C 
BRANCH  21  22
ATOM     22  C   UNL     1      -3.492  -1.577  24.818  0.00  0.00    +0.010 A 
ATOM     23  C   UNL     1      -4.012  -1.376  24.210  0.00  0.00    +0.003 A 
ATOM     24  C   UNL     1      -4.242  -2.071  23.831  0.00  0.00    +0.007 A 
ATOM     25  C   UNL     1      -3.864  -2.703  24.204  0.00  0.00    +0.035 A 
ATOM     26  S   UNL     1      -3.399  -2.397  24.815  0.00  0.00    -0.091 S 
ENDBRANCH  21  22
ENDBRANCH  20  21
ENDBRANCH  19  20
ENDBRANCH  16  17
TORSDOF 9
ENDMDL
MODEL 3
REMARK VINA RESULT:      -8.6      3.260      5.258
REMARK  Name = 
REMARK  9 active torsions:
REMARK  status: ('A' for Active; 'I' for Inactive)
REMARK    1  A    between atoms: S_2  and  C_3
REMARK    2  A    between atoms: C_7  and  N_8
REMARK    3  A    between atoms: N_11  and  C_12
REMARK    4  A    between atoms: C_16  and  C_17
REMARK    5  A    between atoms: N_19  and  C_20
REMARK    6  A    between atoms: C_20  and  C_21
REMARK    7  A    between atoms: C_20  and  C_27
REMARK    8  A    between atoms: C_21  and  C_22
REMARK    9  A    between atoms: C_30  and  C_32
REMARK                            x       y       z     vdW  Elec       q    Type
REMARK                         _______ _______ _______ _____ _____    ______ ____
ROOT
ATOM     12  C   UNL     1      -2.477   1.684  24.386  0.00  0.00    +0.126 C 
ATOM     13  C   UNL     1      -1.665   1.538  24.379  0.00  0.00    +0.045 C 
ATOM     14  C   UNL     1      -1.276   2.259  24.473  0.00  0.00    +0.096 C 
ATOM     15  N   UNL     1      -1.847   2.851  24.538  0.00  0.00    -0.268 N 
ATOM     16  C   UNL     1      -2.590   2.496  24.484  0.00  0.00    +0.174 C 
ATOM     30  C   UNL     1      -1.700   3.656  24.640  0.00  0.00    +0.249 C 
ATOM     31  O   UNL     1      -2.331   4.186  24.696  0.00  0.00    -0.270 OA
ENDROOT
BRANCH  12  11
ATOM      8  N   UNL     1      -3.568  -0.199  24.553  0.00  0.00    -0.161 NA
ATOM      9  C   UNL     1      -2.973   0.367  24.632  0.00  0.00    +0.344 C 
ATOM     10  O   UNL     1      -2.277   0.180  25.034  0.00  0.00    -0.249 OA
ATOM     11  N   UNL     1      -3.073   1.119  24.308  0.00  0.00    -0.186 NA
BRANCH   8   7
ATOM      3  C   UNL     1      -3.322  -2.362  24.707  0.00  0.00    +0.027 A 
ATOM      4  C   UNL     1      -3.266  -2.455  25.525  0.00  0.00    +0.006 A 
ATOM      5  C   UNL     1      -3.311  -1.796  26.019  0.00  0.00    +0.002 A 
ATOM      6  C   UNL     1      -3.412  -1.044  25.695  0.00  0.00    +0.017 A 
ATOM      7  C   UNL     1      -3.467  -0.951  24.878  0.00  0.00    +0.075 A 
ATOM     36  C   UNL     1      -3.422  -1.610  24.383  0.00  0.00    +0.023 A 
BRANCH   3   2
ATOM      1  C   UNL     1      -3.947  -3.282  23.810  0.00  0.00    +0.074 C 
ATOM      2  S   UNL     1      -3.277  -3.021  24.213  0.00  0.00    -0.113 S 
ENDBRANCH   3   2
ENDBRANCH   8   7
ENDBRANCH  12  11
BRANCH  30  32
ATOM     32  C   UNL     1      -0.924   3.932  24.685  0.00  0.00    +0.049 C 
ATOM     33  C   UNL     1      -0.778   4.725  24.860  0.00  0.00    -0.039 C 
ATOM     34  C   UNL     1      -0.002   5.002  24.905  0.00  0.00    +0.027 C 
ATOM     35  C   UNL     1      -1.408   5.242  24.991  0.00  0.00    +0.027 C 
ENDBRANCH  30  32
BRANCH  16  17
ATOM     17  C   UNL     1      -3.316   2.884  24.522  0.00  0.00    +0.262 C 
ATOM     18  O   UNL     1      -3.584   3.323  23.876  0.00  0.00    -0.271 OA
ATOM     19  N   UNL     1      -3.776   2.834  25.205  0.00  0.00    -0.196 NA
BRANCH  19  20
ATOM     20  C   UNL     1      -4.504   3.222  25.243  0.00  0.00    +0.179 C 
BRANCH  20  27
ATOM     27  C   UNL     1      -4.579   3.912  25.688  0.00  0.00    +0.281 C 
ATOM     28  N   UNL     1      -4.966   4.567  25.368  0.00  0.00    -0.086 NA
ATOM     29  O   UNL     1      -4.268   3.948  26.451  0.00  0.00    -0.270 OA
ENDBRANCH  20  27
BRANCH  20  21
ATOM     21  C   UNL     1      -5.154   2.920  24.837  0.00  0.00    +0.064 C 
BRANCH  21  22
ATOM     22  C   UNL     1      -5.673   2.402  25.215  0.00  0.00    +0.010 A 
ATOM     23  C   UNL     1      -5.697   2.245  26.025  0.00  0.00    +0.003 A 
ATOM     24  C   UNL     1      -6.299   1.696  26.159  0.00  0.00    +0.007 A 
ATOM     25  C   UNL     1      -6.646   1.515  25.433  0.00  0.00    +0.035 A 
ATOM     26  S   UNL     1      -6.259   1.951  24.849  0.00  0.00    -0.091 S 
ENDBRANCH  21  22
ENDBRANCH  20  21
ENDBRANCH  19  20
ENDBRANCH  16  17
TORSDOF 9
ENDMDL
MODEL 4
REMARK VINA RESULT:      -8.3      1.759      5.416
REMARK  Name = 
REMARK  9 active torsions:
REMARK  status: ('A' for Active; 'I' for Inactive)
REMARK    1  A    between atoms: S_2  and  C_3
REMARK    2  A    between atoms: C_7  and  N_8
REMARK    3  A    between atoms: N_11  and  C_12
REMARK    4  A    between atoms: C_16  and  C_17
REMARK    5  A    between atoms: N_19  and  C_20
REMARK    6  A    between atoms: C_20  and  C_21
REMARK    7  A    between atoms: C_20  and  C_27
REMARK    8  A    between atoms: C_21  and  C_22
REMARK    9  A    between atoms: C_30  and  C_32
REMARK                            x       y       z     vdW  Elec       q    Type
REMARK                         _______ _______ _______ _____ _____    ______ ____
ROOT
ATOM     12  C   UNL     1      -0.453   1.462  24.727  0.00  0.00    +0.126 C 
ATOM     13  C   UNL     1       0.140   2.034  24.695  0.00  0.00    +0.045 C 
ATOM     14  C   UNL     1       0.748   1.744  24.220  0.00  0.00    +0.096 C 
ATOM     15  N   UNL     1       0.531   0.993  23.957  0.00  0.00    -0.268 N 
ATOM     16  C   UNL     1      -0.212   0.818  24.270  0.00  0.00    +0.174 C 
ATOM     30  C   UNL     1       0.979   0.503  23.467  0.00  0.00    +0.249 C 
ATOM     31  O   UNL     1       0.688  -0.238  23.249  0.00  0.00    -0.270 OA
ENDROOT
BRANCH  12  11
ATOM      8  N   UNL     1      -2.287   2.296  25.567  0.00  0.00    -0.161 NA
ATOM      9  C   UNL     1      -1.577   2.236  25.152  0.00  0.00    +0.344 C 
ATOM     10  O   UNL     1      -1.279   2.890  24.747  0.00  0.00    -0.249 OA
ATOM     11  N   UNL     1      -1.164   1.522  25.142  0.00  0.00    -0.186 NA
BRANCH   8   7
ATOM      3  C   UNL     1      -3.877   3.764  25.278  0.00  0.00    +0.027 A 
ATOM      4  C   UNL     1      -3.525   4.440  25.595  0.00  0.00    +0.006 A 
ATOM      5  C   UNL     1      -2.760   4.401  25.903  0.00  0.00    +0.002 A 
ATOM      6  C   UNL     1      -2.348   3.686  25.893  0.00  0.00    +0.017 A 
ATOM      7  C   UNL     1      -2.700   3.011  25.576  0.00  0.00    +0.075 A 
ATOM     36  C   UNL     1      -3.465   3.049  25.268  0.00  0.00    +0.023 A 
BRANCH   3   2
ATOM      1  C   UNL     1      -5.292   3.701  25.467  0.00  0.00    +0.074 C 
ATOM      2  S   UNL     1      -4.641   3.803  24.970  0.00  0.00    -0.113 S 
ENDBRANCH   3   2
ENDBRANCH   8   7
ENDBRANCH  12  11
BRANCH  30  32
ATOM     32  C   UNL     1       1.716   0.753  23.195  0.00  0.00    +0.049 C 
ATOM     33  C   UNL     1       2.166   0.259  22.712  0.00  0.00    -0.039 C 
ATOM     34  C   UNL     1       2.904   0.509  22.440  0.00  0.00    +0.027 C 
ATOM     35  C   UNL     1       1.880  -0.485  22.501  0.00  0.00    +0.027 C 
ENDBRANCH  30  32
BRANCH  16  17
ATOM     17  C   UNL     1      -0.638   0.122  24.148  0.00  0.00    +0.262 C 
ATOM     18  O   UNL     1      -0.875  -0.089  23.387  0.00  0.00    -0.271 OA
ATOM     19  N   UNL     1      -0.827  -0.363  24.788  0.00  0.00    -0.196 NA
BRANCH  19  20
ATOM     20  C   UNL     1      -1.254  -1.059  24.667  0.00  0.00    +0.179 C 
BRANCH  20  27
ATOM     27  C   UNL     1      -0.906  -1.789  24.831  0.00  0.00    +0.281 C 
ATOM     28  N   UNL     1      -1.009  -2.420  24.309  0.00  0.00    -0.086 NA
ATOM     29  O   UNL     1      -0.457  -1.888  25.515  0.00  0.00    -0.270 OA
ENDBRANCH  20  27
BRANCH  20  21
ATOM     21  C   UNL     1      -2.026  -1.025  24.382  0.00  0.00    +0.064 C 
BRANCH  21  22
ATOM     22  C   UNL     1      -2.662  -1.087  24.903  0.00  0.00    +0.010 A 
ATOM     23  C   UNL     1      -2.611  -1.176  25.723  0.00  0.00    +0.003 A 
ATOM     24  C   UNL     1      -3.379  -1.216  26.022  0.00  0.00    +0.007 A 
ATOM     25  C   UNL     1      -3.904  -1.151  25.390  0.00  0.00    +0.035 A 
ATOM     26  S   UNL     1      -3.461  -1.072  24.697  0.00  0.00    -0.091 S 
ENDBRANCH  21  22
ENDBRANCH  20  21
ENDBRANCH  19  20
ENDBRANCH  16  17
TORSDOF 9
ENDMDL
MODEL 5
REMARK VINA RESULT:      -8.2      2.678      5.141
REMARK  Name = 
REMARK  9 active torsions:
REMARK  status: ('A' for Active; 'I' for Inactive)
REMARK    1  A    between atoms: S_2  and  C_3
REMARK    2  A    between atoms: C_7  and  N_8
REMARK    3  A    between atoms: N_11  and  C_12
REMARK    4  A    between atoms: C_16  and  C_17
REMARK    5  A    between atoms: N_19  and  C_20
REMARK    6  A    between atoms: C_20  and  C_21
REMARK    7  A    between atoms: C_20  and  C_27
REMARK    8  A    between atoms: C_21  and  C_22
REMARK    9  A    between atoms: C_30  and  C_32
REMARK                            x       y       z     vdW  Elec       q    Type
REMARK                         _______ _______ _______ _____ _____    ______ ____
ROOT
ATOM     12  C   UNL     1      -4.279   1.423  24.423  0.00  0.00    +0.126 C 
ATOM     13  C   UNL     1      -5.054   1.282  24.667  0.00  0.00    +0.045 C 
ATOM     14  C   UNL     1      -5.349   1.980  24.994  0.00  0.00    +0.096 C 
ATOM     15  N   UNL     1      -4.756   2.551  24.952  0.00  0.00    -0.268 N 
ATOM     16  C   UNL     1      -4.094   2.208  24.599  0.00  0.00    +0.174 C 
ATOM     30  C   UNL     1      -4.815   3.331  25.216  0.00  0.00    +0.249 C 
ATOM     31  O   UNL     1      -4.171   3.842  25.137  0.00  0.00    -0.270 OA
ENDROOT
BRANCH  12  11
ATOM      8  N   UNL     1      -3.353  -0.477  23.875  0.00  0.00    -0.161 NA
ATOM      9  C   UNL     1      -3.856   0.071  24.233  0.00  0.00    +0.344 C 
ATOM     10  O   UNL     1      -4.440  -0.185  24.757  0.00  0.00    -0.249 OA
ATOM     11  N   UNL     1      -3.776   0.875  24.066  0.00  0.00    -0.186 NA
BRANCH   8   7
ATOM      3  C   UNL     1      -2.901  -2.491  24.585  0.00  0.00    +0.027 A 
ATOM      4  C   UNL     1      -3.594  -2.889  24.377  0.00  0.00    +0.006 A 
ATOM      5  C   UNL     1      -4.207  -2.482  24.002  0.00  0.00    +0.002 A 
ATOM      6  C   UNL     1      -4.126  -1.678  23.835  0.00  0.00    +0.017 A 
ATOM      7  C   UNL     1      -3.434  -1.281  24.043  0.00  0.00    +0.075 A 
ATOM     36  C   UNL     1      -2.821  -1.687  24.418  0.00  0.00    +0.023 A 
BRANCH   3   2
ATOM      1  C   UNL     1      -1.511  -2.636  24.882  0.00  0.00    +0.074 C 
ATOM      2  S   UNL     1      -2.289  -2.898  24.960  0.00  0.00    -0.113 S 
ENDBRANCH   3   2
ENDBRANCH   8   7
ENDBRANCH  12  11
BRANCH  30  32
ATOM     32  C   UNL     1      -5.515   3.599  25.559  0.00  0.00    +0.049 C 
ATOM     33  C   UNL     1      -5.676   4.407  25.590  0.00  0.00    -0.039 C 
ATOM     34  C   UNL     1      -6.377   4.675  25.933  0.00  0.00    +0.027 C 
ATOM     35  C   UNL     1      -5.137   4.948  25.277  0.00  0.00    +0.027 C 
ENDBRANCH  30  32
BRANCH  16  17
ATOM     17  C   UNL     1      -3.375   2.582  24.449  0.00  0.00    +0.262 C 
ATOM     18  O   UNL     1      -3.296   3.078  23.795  0.00  0.00    -0.271 OA
ATOM     19  N   UNL     1      -2.734   2.460  24.954  0.00  0.00    -0.196 NA
BRANCH  19  20
ATOM     20  C   UNL     1      -2.013   2.835  24.804  0.00  0.00    +0.179 C 
BRANCH  20  27
ATOM     27  C   UNL     1      -1.779   3.477  25.265  0.00  0.00    +0.281 C 
ATOM     28  N   UNL     1      -1.535   4.177  24.903  0.00  0.00    -0.086 NA
ATOM     29  O   UNL     1      -1.790   3.420  26.088  0.00  0.00    -0.270 OA
ENDBRANCH  20  27
BRANCH  20  21
ATOM     21  C   UNL     1      -1.529   2.567  24.193  0.00  0.00    +0.064 C 
BRANCH  21  22
ATOM     22  C   UNL     1      -0.945   2.005  24.346  0.00  0.00    +0.010 A 
ATOM     23  C   UNL     1      -0.763   1.681  25.083  0.00  0.00    +0.003 A 
ATOM     24  C   UNL     1      -0.146   1.144  24.980  0.00  0.00    +0.007 A 
ATOM     25  C   UNL     1       0.053   1.134  24.180  0.00  0.00    +0.035 A 
ATOM     26  S   UNL     1      -0.440   1.666  23.787  0.00  0.00    -0.091 S 
ENDBRANCH  21  22
ENDBRANCH  20  21
ENDBRANCH  19  20
ENDBRANCH  16  17
TORSDOF 9
ENDMDL
MODEL 6
REMARK VINA RESULT:      -7.3      2.585      5.111
REMARK  Name = 
REMARK  9 active torsions:
REMARK  status: ('A' for Active; 'I' for Inactive)
REMARK    1  A    between atoms: S_2  and  C_3
REMARK    2  A    between atoms: C_7  and  N_8
REMARK    3  A    between atoms: N_11  and  C_12
REMARK    4  A    between atoms: C_16  and  C_17
REMARK    5  A    between atoms: N_19  and  C_20
REMARK    6  A    between atoms: C_20  and  C_21
REMARK    7  A    between atoms: C_20  and  C_27
REMARK    8  A    between atoms: C_21  and  C_22
REMARK    9  A    between atoms: C_30  and  C_32
REMARK                            x       y       z     vdW  Elec       q    Type
REMARK                         _______ _______ _______ _____ _____    ______ ____
ROOT
ATOM     12  C   UNL     1      -3.661   0.330  24.153  0.00  0.00    +0.126 C 
ATOM     13  C   UNL     1      -4.413   0.008  24.261  0.00  0.00    +0.045 C 
ATOM     14  C   UNL     1      -4.332  -0.808  24.343  0.00  0.00    +0.096 C 
ATOM     15  N   UNL     1      -3.530  -0.992  24.286  0.00  0.00    -0.268 N 
ATOM     16  C   UNL     1      -3.115  -0.289  24.169  0.00  0.00    +0.174 C 
ATOM     30  C   UNL     1      -3.201  -1.747  24.338  0.00  0.00    +0.249 C 
ATOM     31  O   UNL     1      -2.384  -1.845  24.271  0.00  0.00    -0.270 OA
ENDROOT
BRANCH  12  11
ATOM      8  N   UNL     1      -3.681   2.497  24.411  0.00  0.00    -0.161 NA
ATOM      9  C   UNL     1      -3.857   1.698  24.516  0.00  0.00    +0.344 C 
ATOM     10  O   UNL     1      -4.404   1.468  25.089  0.00  0.00    -0.249 OA
ATOM     11  N   UNL     1      -3.486   1.129  24.048  0.00  0.00    -0.186 NA
BRANCH   8   7
ATOM      3  C   UNL     1      -3.993   4.041  25.923  0.00  0.00    +0.027 A 
ATOM      4  C   UNL     1      -4.795   4.203  25.816  0.00  0.00    +0.006 A 
ATOM      5  C   UNL     1      -5.226   3.798  25.241  0.00  0.00    +0.002 A 
ATOM      6  C   UNL     1      -4.854   3.229  24.773  0.00  0.00    +0.017 A 
ATOM      7  C   UNL     1      -4.053   3.066  24.879  0.00  0.00    +0.075 A 
ATOM     36  C   UNL     1      -3.621   3.472  25.454  0.00  0.00    +0.023 A 
BRANCH   3   2
ATOM      1  C   UNL     1      -2.762   4.607  26.378  0.00  0.00    +0.074 C 
ATOM      2  S   UNL     1      -3.563   4.447  26.497  0.00  0.00    -0.113 S 
ENDBRANCH   3   2
ENDBRANCH   8   7
ENDBRANCH  12  11
BRANCH  30  32
ATOM     32  C   UNL     1      -3.687  -2.402  24.457  0.00  0.00    +0.049 C 
ATOM     33  C   UNL     1      -3.369  -3.162  24.427  0.00  0.00    -0.039 C 
ATOM     34  C   UNL     1      -3.856  -3.818  24.546  0.00  0.00    +0.027 C 
ATOM     35  C   UNL     1      -2.564  -3.267  24.279  0.00  0.00    +0.027 C 
ENDBRANCH  30  32
BRANCH  16  17
ATOM     17  C   UNL     1      -2.298  -0.216  24.083  0.00  0.00    +0.262 C 
ATOM     18  O   UNL     1      -1.946  -0.356  23.349  0.00  0.00    -0.271 OA
ATOM     19  N   UNL     1      -1.832  -0.004  24.729  0.00  0.00    -0.196 NA
BRANCH  19  20
ATOM     20  C   UNL     1      -1.014   0.068  24.643  0.00  0.00    +0.179 C 
BRANCH  20  27
ATOM     27  C   UNL     1      -0.519  -0.547  24.881  0.00  0.00    +0.281 C 
ATOM     28  N   UNL     1       0.042  -0.850  24.358  0.00  0.00    -0.086 NA
ATOM     29  O   UNL     1      -0.584  -0.859  25.642  0.00  0.00    -0.270 OA
ENDBRANCH  20  27
BRANCH  20  21
ATOM     21  C   UNL     1      -0.693   0.755  24.320  0.00  0.00    +0.064 C 
BRANCH  21  22
ATOM     22  C   UNL     1      -0.448   1.369  24.813  0.00  0.00    +0.010 A 
ATOM     23  C   UNL     1      -0.564   1.411  25.629  0.00  0.00    +0.003 A 
ATOM     24  C   UNL     1      -0.231   2.117  25.897  0.00  0.00    +0.007 A 
ATOM     25  C   UNL     1       0.091   2.511  25.247  0.00  0.00    +0.035 A 
ATOM     26  S   UNL     1      -0.043   2.048  24.577  0.00  0.00    -0.091 S 
ENDBRANCH  21  22
ENDBRANCH  20  21
ENDBRANCH  19  20
ENDBRANCH  16  17
TORSDOF 9
ENDMDL
