MODEL 1
REMARK VINA RESULT:      -8.4      0.000      0.000
REMARK  Name = 
REMARK  9 active torsions:
REMARK  status: ('A' for Active; 'I' for Inactive)
REMARK    1  A    between atoms: C_2  and  C_3
REMARK    2  A    between atoms: C_3  and  N_4
REMARK    3  A    between atoms: N_7  and  C_8
REMARK    4  A    between atoms: C_8  and  C_9
REMARK    5  A    between atoms: C_13  and  C_14
REMARK    6  A    between atoms: C_14  and  C_15
REMARK    7  A    between atoms: C_22  and  C_24
REMARK    8  A    between atoms: C_24  and  O_26
REMARK    9  A    between atoms: C_29  and  C_30
REMARK                            x       y       z     vdW  Elec       q    Type
REMARK                         _______ _______ _______ _____ _____    ______ ____
ROOT
ATOM      9  C   UNL     1       0.137   1.632  24.313  0.00  0.00    +0.043 C 
ATOM     10  C   UNL     1       0.353   2.425  24.391  0.00  0.00    -0.033 C 
ATOM     11  C   UNL     1      -0.140   2.949  24.794  0.00  0.00    -0.048 C 
ATOM     12  C   UNL     1       0.076   3.742  24.871  0.00  0.00    +0.026 C 
ATOM     13  C   UNL     1      -0.849   2.681  25.119  0.00  0.00    +0.026 C 
ATOM     28  C   UNL     1      -1.065   1.889  25.042  0.00  0.00    +0.005 C 
ATOM     29  C   UNL     1      -0.572   1.364  24.639  0.00  0.00    +0.006 C 
ENDROOT
BRANCH  29  30
ATOM     30  C   UNL     1      -0.787   0.572  24.561  0.00  0.00    +0.000 C 
ATOM     31  C   UNL     1      -1.175   0.314  23.879  0.00  0.00    +0.000 C 
ATOM     32  C   UNL     1      -0.616   0.037  25.165  0.00  0.00    +0.000 C 
ENDBRANCH  29  30
BRANCH   9   8
ATOM      8  C   UNL     1       0.631   1.109  23.910  0.00  0.00    +0.121 C 
BRANCH   8   7
ATOM      4  N   UNL     1       2.710   0.993  23.254  0.00  0.00    -0.187 NA
ATOM      5  C   UNL     1       1.904   0.827  23.326  0.00  0.00    +0.339 C 
ATOM      6  O   UNL     1       1.568   0.215  22.888  0.00  0.00    -0.249 OA
ATOM      7  N   UNL     1       1.436   1.274  23.837  0.00  0.00    -0.187 NA
BRANCH   4   3
ATOM      3  C   UNL     1       3.178   0.546  22.743  0.00  0.00    +0.117 C 
BRANCH   3   2
ATOM      1  C   UNL     1       4.591   0.475  22.944  0.00  0.00    +0.002 C 
ATOM      2  C   UNL     1       3.940   0.800  22.555  0.00  0.00    +0.023 C 
ENDBRANCH   3   2
ENDBRANCH   4   3
ENDBRANCH   8   7
ENDBRANCH   9   8
BRANCH  13  14
ATOM     14  C   UNL     1      -1.342   3.206  25.523  0.00  0.00    +0.070 C 
BRANCH  14  15
ATOM     15  C   UNL     1      -2.150   3.221  25.360  0.00  0.00    +0.139 A 
ATOM     16  N   UNL     1      -2.740   2.838  25.792  0.00  0.00    -0.229 NA
ATOM     17  C   UNL     1      -3.465   3.003  25.435  0.00  0.00    +0.100 A 
ATOM     18  C   UNL     1      -3.324   3.488  24.783  0.00  0.00    +0.100 A 
ATOM     19  N   UNL     1      -2.511   3.623  24.736  0.00  0.00    -0.229 NA
ATOM     20  C   UNL     1      -3.954   3.744  24.316  0.00  0.00    +0.021 A 
ATOM     21  C   UNL     1      -4.725   3.515  24.501  0.00  0.00    +0.008 A 
ATOM     22  C   UNL     1      -4.865   3.030  25.153  0.00  0.00    +0.077 A 
ATOM     23  C   UNL     1      -4.236   2.773  25.620  0.00  0.00    +0.027 A 
BRANCH  22  24
ATOM     24  C   UNL     1      -5.636   2.800  25.338  0.00  0.00    +0.341 C 
ATOM     25  O   UNL     1      -6.065   3.217  25.907  0.00  0.00    -0.245 OA
BRANCH  24  26
ATOM     26  O   UNL     1      -5.978   2.155  24.955  0.00  0.00    -0.441 OA
ATOM     27  C   UNL     1      -6.639   1.784  25.281  0.00  0.00    +0.256 C 
ENDBRANCH  24  26
ENDBRANCH  22  24
ENDBRANCH  14  15
ENDBRANCH  13  14
TORSDOF 9
ENDMDL
MODEL 2
REMARK VINA RESULT:      -7.7      1.485      2.335
REMARK  Name = 
REMARK  9 active torsions:
REMARK  status: ('A' for Active; 'I' for Inactive)
REMARK    1  A    between atoms: C_2  and  C_3
REMARK    2  A    between atoms: C_3  and  N_4
REMARK    3  A    between atoms: N_7  and  C_8
REMARK    4  A    between atoms: C_8  and  C_9
REMARK    5  A    between atoms: C_13  and  C_14
REMARK    6  A    between atoms: C_14  and  C_15
REMARK    7  A    between atoms: C_22  and  C_24
REMARK    8  A    between atoms: C_24  and  O_26
REMARK    9  A    between atoms: C_29  and  C_30
REMARK                            x       y       z     vdW  Elec       q    Type
REMARK                         _______ _______ _______ _____ _____    ______ ____
ROOT
ATOM      9  C   UNL     1       0.234   0.561  24.002  0.00  0.00    +0.043 C 
ATOM     10  C   UNL     1       0.138  -0.258  23.966  0.00  0.00    -0.033 C 
ATOM     11  C   UNL     1      -0.521  -0.611  24.314  0.00  0.00    -0.048 C 
ATOM     12  C   UNL     1      -0.617  -1.431  24.277  0.00  0.00    +0.026 C 
ATOM     13  C   UNL     1      -1.085  -0.146  24.697  0.00  0.00    +0.026 C 
ATOM     28  C   UNL     1      -0.988   0.672  24.733  0.00  0.00    +0.005 C 
ATOM     29  C   UNL     1      -0.329   1.026  24.385  0.00  0.00    +0.006 C 
ENDROOT
BRANCH  29  30
ATOM     30  C   UNL     1      -0.233   1.844  24.421  0.00  0.00    +0.000 C 
ATOM     31  C   UNL     1      -0.503   2.319  23.803  0.00  0.00    +0.000 C 
ATOM     32  C   UNL     1       0.133   2.188  25.076  0.00  0.00    +0.000 C 
ENDBRANCH  29  30
BRANCH   9   8
ATOM      8  C   UNL     1       0.894   0.914  23.654  0.00  0.00    +0.121 C 
BRANCH   8   7
ATOM      4  N   UNL     1       2.845   0.302  22.890  0.00  0.00    -0.187 NA
ATOM      5  C   UNL     1       2.240   0.773  23.198  0.00  0.00    +0.339 C 
ATOM      6  O   UNL     1       2.378   1.571  23.355  0.00  0.00    -0.249 OA
ATOM      7  N   UNL     1       1.499   0.444  23.347  0.00  0.00    -0.187 NA
BRANCH   4   3
ATOM      3  C   UNL     1       3.587   0.631  22.741  0.00  0.00    +0.117 C 
BRANCH   3   2
ATOM      1  C   UNL     1       4.956   0.366  23.055  0.00  0.00    +0.002 C 
ATOM      2  C   UNL     1       4.250   0.143  22.688  0.00  0.00    +0.023 C 
ENDBRANCH   3   2
ENDBRANCH   4   3
ENDBRANCH   8   7
ENDBRANCH   9   8
BRANCH  13  14
ATOM     14  C   UNL     1      -1.744  -0.501  25.044  0.00  0.00    +0.070 C 
BRANCH  14  15
ATOM     15  C   UNL     1      -2.486  -0.148  24.977  0.00  0.00    +0.139 A 
ATOM     16  N   UNL     1      -2.784   0.452  25.460  0.00  0.00    -0.229 NA
ATOM     17  C   UNL     1      -3.543   0.638  25.196  0.00  0.00    +0.100 A 
ATOM     18  C   UNL     1      -3.714   0.154  24.551  0.00  0.00    +0.100 A 
ATOM     19  N   UNL     1      -3.062  -0.332  24.415  0.00  0.00    -0.229 NA
ATOM     20  C   UNL     1      -4.444   0.218  24.170  0.00  0.00    +0.021 A 
ATOM     21  C   UNL     1      -5.001   0.766  24.434  0.00  0.00    +0.008 A 
ATOM     22  C   UNL     1      -4.828   1.250  25.080  0.00  0.00    +0.077 A 
ATOM     23  C   UNL     1      -4.100   1.186  25.461  0.00  0.00    +0.027 A 
BRANCH  22  24
ATOM     24  C   UNL     1      -5.385   1.798  25.344  0.00  0.00    +0.341 C 
ATOM     25  O   UNL     1      -6.026   1.548  25.802  0.00  0.00    -0.245 OA
BRANCH  24  26
ATOM     26  O   UNL     1      -5.303   2.596  25.152  0.00  0.00    -0.441 OA
ATOM     27  C   UNL     1      -5.736   3.166  25.562  0.00  0.00    +0.256 C 
ENDBRANCH  24  26
ENDBRANCH  22  24
ENDBRANCH  14  15
ENDBRANCH  13  14
TORSDOF 9
ENDMDL
MODEL 3
REMARK VINA RESULT:      -7.3      1.272      1.961
REMARK  Name = 
REMARK  9 active torsions:
REMARK  status: ('A' for Active; 'I' for Inactive)
REMARK    1  A    between atoms: C_2  and  C_3
REMARK    2  A    between atoms: C_3  and  N_4
REMARK    3  A    between atoms: N_7  and  C_8
REMARK    4  A    between atoms: C_8  and  C_9
REMARK    5  A    between atoms: C_13  and  C_14
REMARK    6  A    between atoms: C_14  and  C_15
REMARK    7  A    between atoms: C_22  and  C_24
REMARK    8  A    between atoms: C_24  and  O_26
REMARK    9  A    between atoms: C_29  and  C_30
REMARK                            x       y       z     vdW  Elec       q    Type
REMARK                         _______ _______ _______ _____ _____    ______ ____
ROOT
ATOM      9  C   UNL     1      -0.896   1.956  23.943  0.00  0.00    +0.043 C 
ATOM     10  C   UNL     1      -1.255   1.703  23.244  0.00  0.00    -0.033 C 
ATOM     11  C   UNL     1      -2.006   1.980  23.043  0.00  0.00    -0.048 C 
ATOM     12  C   UNL     1      -2.365   1.727  22.344  0.00  0.00    +0.026 C 
ATOM     13  C   UNL     1      -2.398   2.508  23.541  0.00  0.00    +0.026 C 
ATOM     28  C   UNL     1      -2.040   2.761  24.239  0.00  0.00    +0.005 C 
ATOM     29  C   UNL     1      -1.288   2.485  24.440  0.00  0.00    +0.006 C 
ENDROOT
BRANCH  29  30
ATOM     30  C   UNL     1      -0.930   2.737  25.138  0.00  0.00    +0.000 C 
ATOM     31  C   UNL     1      -0.538   3.464  25.163  0.00  0.00    +0.000 C 
ATOM     32  C   UNL     1      -0.962   2.264  25.813  0.00  0.00    +0.000 C 
ENDBRANCH  29  30
BRANCH   9   8
ATOM      8  C   UNL     1      -0.145   1.680  24.143  0.00  0.00    +0.121 C 
BRANCH   8   7
ATOM      4  N   UNL     1       1.406   0.494  23.167  0.00  0.00    -0.187 NA
ATOM      5  C   UNL     1       1.042   1.072  23.631  0.00  0.00    +0.339 C 
ATOM      6  O   UNL     1       1.501   1.617  24.046  0.00  0.00    -0.249 OA
ATOM      7  N   UNL     1       0.219   1.103  23.679  0.00  0.00    -0.187 NA
BRANCH   4   3
ATOM      3  C   UNL     1       2.229   0.463  23.119  0.00  0.00    +0.117 C 
BRANCH   3   2
ATOM      1  C   UNL     1       3.396   0.173  22.347  0.00  0.00    +0.002 C 
ATOM      2  C   UNL     1       2.590   0.069  22.490  0.00  0.00    +0.023 C 
ENDBRANCH   3   2
ENDBRANCH   4   3
ENDBRANCH   8   7
ENDBRANCH   9   8
BRANCH  13  14
ATOM     14  C   UNL     1      -3.150   2.784  23.339  0.00  0.00    +0.070 C 
BRANCH  14  15
ATOM     15  C   UNL     1      -3.754   2.783  23.899  0.00  0.00    +0.139 A 
ATOM     16  N   UNL     1      -4.186   2.125  24.146  0.00  0.00    -0.229 NA
ATOM     17  C   UNL     1      -4.733   2.375  24.711  0.00  0.00    +0.100 A 
ATOM     18  C   UNL     1      -4.638   3.188  24.813  0.00  0.00    +0.100 A 
ATOM     19  N   UNL     1      -4.034   3.441  24.312  0.00  0.00    -0.229 NA
ATOM     20  C   UNL     1      -5.116   3.594  25.351  0.00  0.00    +0.021 A 
ATOM     21  C   UNL     1      -5.687   3.186  25.785  0.00  0.00    +0.008 A 
ATOM     22  C   UNL     1      -5.780   2.373  25.682  0.00  0.00    +0.077 A 
ATOM     23  C   UNL     1      -5.304   1.967  25.145  0.00  0.00    +0.027 A 
BRANCH  22  24
ATOM     24  C   UNL     1      -6.351   1.965  26.116  0.00  0.00    +0.341 C 
ATOM     25  O   UNL     1      -6.972   1.584  25.727  0.00  0.00    -0.245 OA
BRANCH  24  26
ATOM     26  O   UNL     1      -6.303   1.938  26.939  0.00  0.00    -0.441 OA
ATOM     27  C   UNL     1      -6.811   1.449  27.367  0.00  0.00    +0.256 C 
ENDBRANCH  24  26
ENDBRANCH  22  24
ENDBRANCH  14  15
ENDBRANCH  13  14
TORSDOF 9
ENDMDL
MODEL 4
REMARK VINA RESULT:      -7.2      1.464      2.039
REMARK  Name = 
REMARK  9 active torsions:
REMARK  status: ('A' for Active; 'I' for Inactive)
REMARK    1  A    between atoms: C_2  and  C_3
REMARK    2  A    between atoms: C_3  and  N_4
REMARK    3  A    between atoms: N_7  and  C_8
REMARK    4  A    between atoms: C_8  and  C_9
REMARK    5  A    between atoms: C_13  and  C_14
REMARK    6  A    between atoms: C_14  and  C_15
REMARK    7  A    between atoms: C_22  and  C_24
REMARK    8  A    between atoms: C_24  and  O_26
REMARK    9  A    between atoms: C_29  and  C_30
REMARK                            x       y       z     vdW  Elec       q    Type
REMARK                         _______ _______ _______ _____ _____    ______ ____
ROOT
ATOM      9  C   UNL     1      -0.850   0.823  23.939  0.00  0.00    +0.043 C 
ATOM     10  C   UNL     1      -1.114   1.146  23.226  0.00  0.00    -0.033 C 
ATOM     11  C   UNL     1      -1.922   1.185  23.067  0.00  0.00    -0.048 C 
ATOM     12  C   UNL     1      -2.187   1.508  22.354  0.00  0.00    +0.026 C 
ATOM     13  C   UNL     1      -2.466   0.902  23.618  0.00  0.00    +0.026 C 
ATOM     28  C   UNL     1      -2.202   0.579  24.330  0.00  0.00    +0.005 C 
ATOM     29  C   UNL     1      -1.394   0.539  24.490  0.00  0.00    +0.006 C 
ENDROOT
BRANCH  29  30
ATOM     30  C   UNL     1      -1.130   0.217  25.201  0.00  0.00    +0.000 C 
ATOM     31  C   UNL     1      -0.961   0.710  25.842  0.00  0.00    +0.000 C 
ATOM     32  C   UNL     1      -1.033  -0.599  25.273  0.00  0.00    +0.000 C 
ENDBRANCH  29  30
BRANCH   9   8
ATOM      8  C   UNL     1      -0.041   0.783  24.098  0.00  0.00    +0.121 C 
BRANCH   8   7
ATOM      4  N   UNL     1       1.785   0.478  22.942  0.00  0.00    -0.187 NA
ATOM      5  C   UNL     1       1.265   0.757  23.519  0.00  0.00    +0.339 C 
ATOM      6  O   UNL     1       1.530   1.287  24.092  0.00  0.00    -0.249 OA
ATOM      7  N   UNL     1       0.479   0.504  23.521  0.00  0.00    -0.187 NA
BRANCH   4   3
ATOM      3  C   UNL     1       2.571   0.730  22.939  0.00  0.00    +0.117 C 
BRANCH   3   2
ATOM      1  C   UNL     1       3.905   0.611  22.441  0.00  0.00    +0.002 C 
ATOM      2  C   UNL     1       3.107   0.400  22.406  0.00  0.00    +0.023 C 
ENDBRANCH   3   2
ENDBRANCH   4   3
ENDBRANCH   8   7
ENDBRANCH   9   8
BRANCH  13  14
ATOM     14  C   UNL     1      -3.275   0.942  23.458  0.00  0.00    +0.070 C 
BRANCH  14  15
ATOM     15  C   UNL     1      -3.776   1.361  23.961  0.00  0.00    +0.139 A 
ATOM     16  N   UNL     1      -3.766   2.177  24.086  0.00  0.00    -0.229 NA
ATOM     17  C   UNL     1      -4.359   2.359  24.630  0.00  0.00    +0.100 A 
ATOM     18  C   UNL     1      -4.735   1.656  24.840  0.00  0.00    +0.100 A 
ATOM     19  N   UNL     1      -4.375   1.039  24.427  0.00  0.00    -0.229 NA
ATOM     20  C   UNL     1      -5.358   1.668  25.382  0.00  0.00    +0.021 A 
ATOM     21  C   UNL     1      -5.604   2.383  25.713  0.00  0.00    +0.008 A 
ATOM     22  C   UNL     1      -5.227   3.085  25.501  0.00  0.00    +0.077 A 
ATOM     23  C   UNL     1      -4.605   3.074  24.960  0.00  0.00    +0.027 A 
BRANCH  22  24
ATOM     24  C   UNL     1      -5.472   3.800  25.832  0.00  0.00    +0.341 C 
ATOM     25  O   UNL     1      -5.088   4.101  26.497  0.00  0.00    -0.245 OA
BRANCH  24  26
ATOM     26  O   UNL     1      -6.102   4.215  25.497  0.00  0.00    -0.441 OA
ATOM     27  C   UNL     1      -6.200   5.018  25.659  0.00  0.00    +0.256 C 
ENDBRANCH  24  26
ENDBRANCH  22  24
ENDBRANCH  14  15
ENDBRANCH  13  14
TORSDOF 9
ENDMDL
MODEL 5
REMARK VINA RESULT:      -6.9      1.259      6.700
REMARK  Name = 
REMARK  9 active torsions:
REMARK  status: ('A' for Active; 'I' for Inactive)
REMARK    1  A    between atoms: C_2  and  C_3
REMARK    2  A    between atoms: C_3  and  N_4
REMARK    3  A    between atoms: N_7  and  C_8
REMARK    4  A    between atoms: C_8  and  C_9
REMARK    5  A    between atoms: C_13  and  C_14
REMARK    6  A    between atoms: C_14  and  C_15
REMARK    7  A    between atoms: C_22  and  C_24
REMARK    8  A    between atoms: C_24  and  O_26
REMARK    9  A    between atoms: C_29  and  C_30
REMARK                            x       y       z     vdW  Elec       q    Type
REMARK                         _______ _______ _______ _____ _____    ______ ____
ROOT
ATOM      9  C   UNL     1      -1.852   1.614  24.610  0.00  0.00    +0.043 C 
ATOM     10  C   UNL     1      -2.173   0.873  24.437  0.00  0.00    -0.033 C 
ATOM     11  C   UNL     1      -1.674   0.233  24.290  0.00  0.00    -0.048 C 
ATOM     12  C   UNL     1      -1.995  -0.508  24.117  0.00  0.00    +0.026 C 
ATOM     13  C   UNL     1      -0.855   0.333  24.316  0.00  0.00    +0.026 C 
ATOM     28  C   UNL     1      -0.536   1.073  24.489  0.00  0.00    +0.005 C 
ATOM     29  C   UNL     1      -1.034   1.714  24.636  0.00  0.00    +0.006 C 
ENDROOT
BRANCH  29  30
ATOM     30  C   UNL     1      -0.714   2.454  24.809  0.00  0.00    +0.000 C 
ATOM     31  C   UNL     1      -0.592   3.003  24.206  0.00  0.00    +0.000 C 
ATOM     32  C   UNL     1      -0.516   2.646  25.587  0.00  0.00    +0.000 C 
ENDBRANCH  29  30
BRANCH   9   8
ATOM      8  C   UNL     1      -2.351   2.255  24.757  0.00  0.00    +0.121 C 
BRANCH   8   7
ATOM      4  N   UNL     1      -4.436   2.582  25.319  0.00  0.00    -0.187 NA
ATOM      5  C   UNL     1      -3.683   2.710  25.003  0.00  0.00    +0.339 C 
ATOM      6  O   UNL     1      -3.512   3.419  24.619  0.00  0.00    -0.249 OA
ATOM      7  N   UNL     1      -3.104   2.127  25.073  0.00  0.00    -0.187 NA
BRANCH   4   3
ATOM      3  C   UNL     1      -5.016   3.164  25.249  0.00  0.00    +0.117 C 
BRANCH   3   2
ATOM      1  C   UNL     1      -6.230   2.495  25.597  0.00  0.00    +0.002 C 
ATOM      2  C   UNL     1      -5.700   3.120  25.707  0.00  0.00    +0.023 C 
ENDBRANCH   3   2
ENDBRANCH   4   3
ENDBRANCH   8   7
ENDBRANCH   9   8
BRANCH  13  14
ATOM     14  C   UNL     1      -0.357  -0.308  24.169  0.00  0.00    +0.070 C 
BRANCH  14  15
ATOM     15  C   UNL     1       0.332  -0.203  23.730  0.00  0.00    +0.139 A 
ATOM     16  N   UNL     1       1.061   0.050  24.024  0.00  0.00    -0.229 NA
ATOM     17  C   UNL     1       1.594   0.077  23.395  0.00  0.00    +0.100 A 
ATOM     18  C   UNL     1       1.195  -0.160  22.713  0.00  0.00    +0.100 A 
ATOM     19  N   UNL     1       0.416  -0.334  22.920  0.00  0.00    -0.229 NA
ATOM     20  C   UNL     1       1.595  -0.188  21.991  0.00  0.00    +0.021 A 
ATOM     21  C   UNL     1       2.392   0.022  21.952  0.00  0.00    +0.008 A 
ATOM     22  C   UNL     1       2.789   0.259  22.635  0.00  0.00    +0.077 A 
ATOM     23  C   UNL     1       2.391   0.287  23.356  0.00  0.00    +0.027 A 
BRANCH  22  24
ATOM     24  C   UNL     1       3.586   0.469  22.595  0.00  0.00    +0.341 C 
ATOM     25  O   UNL     1       3.816   1.144  22.180  0.00  0.00    -0.245 OA
BRANCH  24  26
ATOM     26  O   UNL     1       4.155   0.004  22.971  0.00  0.00    -0.441 OA
ATOM     27  C   UNL     1       4.924   0.286  23.063  0.00  0.00    +0.256 C 
ENDBRANCH  24  26
ENDBRANCH  22  24
ENDBRANCH  14  15
ENDBRANCH  13  14
TORSDOF 9
ENDMDL
MODEL 6
REMARK VINA RESULT:      -6.2      2.918      3.959
REMARK  Name = 
REMARK  9 active torsions:
REMARK  status: ('A' for Active; 'I' for Inactive)
REMARK    1  A    between atoms: C_2  and  C_3
REMARK    2  A    between atoms: C_3  and  N_4
REMARK    3  A    between atoms: N_7  and  C_8
REMARK    4  A    between atoms: C_8  and  C_9
REMARK    5  A    between atoms: C_13  and  C_14
REMARK    6  A    between atoms: C_14  and  C_15
REMARK    7  A    between atoms: C_22  and  C_24
REMARK    8  A    between atoms: C_24  and  O_26
REMARK    9  A    between atoms: C_29  and  C_30
REMARK                            x       y       z     vdW  Elec       q    Type
REMARK                         _______ _______ _______ _____ _____    ______ ____
ROOT
ATOM      9  C   UNL     1      -0.627   2.579  25.769  0.00  0.00    +0.043 C 
ATOM     10  C   UNL     1      -1.302   2.966  26.046  0.00  0.00    -0.033 C 
ATOM     11  C   UNL     1      -2.011   2.907  25.629  0.00  0.00    -0.048 C 
ATOM     12  C   UNL     1      -2.686   3.294  25.906  0.00  0.00    +0.026 C 
ATOM     13  C   UNL     1      -2.046   2.462  24.935  0.00  0.00    +0.026 C 
ATOM     28  C   UNL     1      -1.373   2.075  24.659  0.00  0.00    +0.005 C 
ATOM     29  C   UNL     1      -0.663   2.133  25.076  0.00  0.00    +0.006 C 
ENDROOT
BRANCH  29  30
ATOM     30  C   UNL     1       0.011   1.747  24.799  0.00  0.00    +0.000 C 
ATOM     31  C   UNL     1       0.560   2.153  24.336  0.00  0.00    +0.000 C 
ATOM     32  C   UNL     1       0.137   0.953  24.986  0.00  0.00    +0.000 C 
ENDBRANCH  29  30
BRANCH   9   8
ATOM      8  C   UNL     1       0.082   2.637  26.187  0.00  0.00    +0.121 C 
BRANCH   8   7
ATOM      4  N   UNL     1       0.794   2.436  28.241  0.00  0.00    -0.187 NA
ATOM      5  C   UNL     1       0.770   2.631  27.439  0.00  0.00    +0.339 C 
ATOM      6  O   UNL     1       1.411   3.015  27.089  0.00  0.00    -0.249 OA
ATOM      7  N   UNL     1       0.105   2.442  26.989  0.00  0.00    -0.187 NA
BRANCH   4   3
ATOM      3  C   UNL     1       1.458   2.625  28.691  0.00  0.00    +0.117 C 
BRANCH   3   2
ATOM      1  C   UNL     1       1.964   2.101  29.921  0.00  0.00    +0.002 C 
ATOM      2  C   UNL     1       1.425   2.577  29.514  0.00  0.00    +0.023 C 
ENDBRANCH   3   2
ENDBRANCH   4   3
ENDBRANCH   8   7
ENDBRANCH   9   8
BRANCH  13  14
ATOM     14  C   UNL     1      -2.756   2.404  24.519  0.00  0.00    +0.070 C 
BRANCH  14  15
ATOM     15  C   UNL     1      -3.159   1.685  24.488  0.00  0.00    +0.139 A 
ATOM     16  N   UNL     1      -2.873   0.981  24.167  0.00  0.00    -0.229 NA
ATOM     17  C   UNL     1      -3.457   0.405  24.253  0.00  0.00    +0.100 A 
ATOM     18  C   UNL     1      -4.104   0.753  24.627  0.00  0.00    +0.100 A 
ATOM     19  N   UNL     1      -3.921   1.544  24.773  0.00  0.00    -0.229 NA
ATOM     20  C   UNL     1      -4.778   0.303  24.788  0.00  0.00    +0.021 A 
ATOM     21  C   UNL     1      -4.804  -0.493  24.574  0.00  0.00    +0.008 A 
ATOM     22  C   UNL     1      -4.155  -0.840  24.200  0.00  0.00    +0.077 A 
ATOM     23  C   UNL     1      -3.482  -0.392  24.039  0.00  0.00    +0.027 A 
BRANCH  22  24
ATOM     24  C   UNL     1      -4.181  -1.636  23.986  0.00  0.00    +0.341 C 
ATOM     25  O   UNL     1      -4.665  -1.882  23.364  0.00  0.00    -0.245 OA
BRANCH  24  26
ATOM     26  O   UNL     1      -3.722  -2.188  24.393  0.00  0.00    -0.441 OA
ATOM     27  C   UNL     1      -3.786  -2.991  24.214  0.00  0.00    +0.256 C 
ENDBRANCH  24  26
ENDBRANCH  22  24
ENDBRANCH  14  15
ENDBRANCH  13  14
TORSDOF 9
ENDMDL
MODEL 7
REMARK VINA RESULT:      -5.7     14.934     15.879
REMARK  Name = 
REMARK  9 active torsions:
REMARK  status: ('A' for Active; 'I' for Inactive)
REMARK    1  A    between atoms: C_2  and  C_3
REMARK    2  A    between atoms: C_3  and  N_4
REMARK    3  A    between atoms: N_7  and  C_8
REMARK    4  A    between atoms: C_8  and  C_9
REMARK    5  A    between atoms: C_13  and  C_14
REMARK    6  A    between atoms: C_14  and  C_15
REMARK    7  A    between atoms: C_22  and  C_24
REMARK    8  A    between atoms: C_24  and  O_26
REMARK    9  A    between atoms: C_29  and  C_30
REMARK                            x       y       z     vdW  Elec       q    Type
REMARK                         _______ _______ _______ _____ _____    ______ ____
ROOT
ATOM      9  C   UNL     1      -5.055 -10.382  14.753  0.00  0.00    +0.043 C 
ATOM     10  C   UNL     1      -4.566 -10.447  15.415  0.00  0.00    -0.033 C 
ATOM     11  C   UNL     1      -4.876 -10.326  16.170  0.00  0.00    -0.048 C 
ATOM     12  C   UNL     1      -4.387 -10.391  16.832  0.00  0.00    +0.026 C 
ATOM     13  C   UNL     1      -5.674 -10.140  16.264  0.00  0.00    +0.026 C 
ATOM     28  C   UNL     1      -6.162 -10.074  15.602  0.00  0.00    +0.005 C 
ATOM     29  C   UNL     1      -5.853 -10.195  14.847  0.00  0.00    +0.006 C 
ENDROOT
BRANCH  29  30
ATOM     30  C   UNL     1      -6.341 -10.130  14.186  0.00  0.00    +0.000 C 
ATOM     31  C   UNL     1      -6.393  -9.414  13.779  0.00  0.00    +0.000 C 
ATOM     32  C   UNL     1      -6.779 -10.781  13.930  0.00  0.00    +0.000 C 
ENDBRANCH  29  30
BRANCH   9   8
ATOM      8  C   UNL     1      -4.745 -10.503  13.999  0.00  0.00    +0.121 C 
BRANCH   8   7
ATOM      4  N   UNL     1      -2.815 -10.439  12.979  0.00  0.00    -0.187 NA
ATOM      5  C   UNL     1      -3.626 -10.526  13.110  0.00  0.00    +0.339 C 
ATOM      6  O   UNL     1      -4.126 -10.722  12.485  0.00  0.00    -0.249 OA
ATOM      7  N   UNL     1      -3.934 -10.416  13.868  0.00  0.00    -0.187 NA
BRANCH   4   3
ATOM      3  C   UNL     1      -2.507 -10.548  12.222  0.00  0.00    +0.117 C 
BRANCH   3   2
ATOM      1  C   UNL     1      -1.360 -10.045  11.533  0.00  0.00    +0.002 C 
ATOM      2  C   UNL     1      -1.690 -10.541  12.106  0.00  0.00    +0.023 C 
ENDBRANCH   3   2
ENDBRANCH   4   3
ENDBRANCH   8   7
ENDBRANCH   9   8
BRANCH  13  14
ATOM     14  C   UNL     1      -5.983 -10.019  17.019  0.00  0.00    +0.070 C 
BRANCH  14  15
ATOM     15  C   UNL     1      -6.791  -9.889  17.119  0.00  0.00    +0.139 A 
ATOM     16  N   UNL     1      -7.177  -9.162  17.064  0.00  0.00    -0.229 NA
ATOM     17  C   UNL     1      -7.981  -9.287  17.202  0.00  0.00    +0.100 A 
ATOM     18  C   UNL     1      -8.091 -10.092  17.343  0.00  0.00    +0.100 A 
ATOM     19  N   UNL     1      -7.357 -10.465  17.292  0.00  0.00    -0.229 NA
ATOM     20  C   UNL     1      -8.848 -10.383  17.500  0.00  0.00    +0.021 A 
ATOM     21  C   UNL     1      -9.493  -9.868  17.516  0.00  0.00    +0.008 A 
ATOM     22  C   UNL     1      -9.380  -9.063  17.375  0.00  0.00    +0.077 A 
ATOM     23  C   UNL     1      -8.625  -8.773  17.218  0.00  0.00    +0.027 A 
BRANCH  22  24
ATOM     24  C   UNL     1     -10.025  -8.548  17.391  0.00  0.00    +0.341 C 
ATOM     25  O   UNL     1     -10.702  -8.747  17.820  0.00  0.00    -0.245 OA
BRANCH  24  26
ATOM     26  O   UNL     1      -9.994  -7.834  16.979  0.00  0.00    -0.441 OA
ATOM     27  C   UNL     1     -10.646  -7.329  16.978  0.00  0.00    +0.256 C 
ENDBRANCH  24  26
ENDBRANCH  22  24
ENDBRANCH  14  15
ENDBRANCH  13  14
TORSDOF 9
ENDMDL
MODEL 8
REMARK VINA RESULT:      -4.5     17.633     18.841
REMARK  Name = 
REMARK  9 active torsions:
REMARK  status: ('A' for Active; 'I' for Inactive)
REMARK    1  A    between atoms: C_2  and  C_3
REMARK    2  A    between atoms: C_3  and  N_4
REMARK    3  A    between atoms: N_7  and  C_8
REMARK    4  A    between atoms: C_8  and  C_9
REMARK    5  A    between atoms: C_13  and  C_14
REMARK    6  A    between atoms: C_14  and  C_15
REMARK    7  A    between atoms: C_22  and  C_24
REMARK    8  A    between atoms: C_24  and  O_26
REMARK    9  A    between atoms: C_29  and  C_30
REMARK                            x       y       z     vdW  Elec       q    Type
REMARK                         _______ _______ _______ _____ _____    ______ ____
ROOT
ATOM      9  C   UNL     1      -4.135  -9.801  10.524  0.00  0.00    +0.043 C 
ATOM     10  C   UNL     1      -4.327  -9.747  11.326  0.00  0.00    -0.033 C 
ATOM     11  C   UNL     1      -5.100  -9.892  11.574  0.00  0.00    -0.048 C 
ATOM     12  C   UNL     1      -5.292  -9.838  12.375  0.00  0.00    +0.026 C 
ATOM     13  C   UNL     1      -5.681 -10.089  11.022  0.00  0.00    +0.026 C 
ATOM     28  C   UNL     1      -5.489 -10.142  10.223  0.00  0.00    +0.005 C 
ATOM     29  C   UNL     1      -4.715  -9.998   9.973  0.00  0.00    +0.006 C 
ENDROOT
BRANCH  29  30
ATOM     30  C   UNL     1      -4.523 -10.051   9.173  0.00  0.00    +0.000 C 
ATOM     31  C   UNL     1      -4.533  -9.375   8.700  0.00  0.00    +0.000 C 
ATOM     32  C   UNL     1      -4.320 -10.781   8.845  0.00  0.00    +0.000 C 
ENDBRANCH  29  30
BRANCH   9   8
ATOM      8  C   UNL     1      -3.361  -9.656  10.276  0.00  0.00    +0.121 C 
BRANCH   8   7
ATOM      4  N   UNL     1      -1.441  -9.245  11.230  0.00  0.00    -0.187 NA
ATOM      5  C   UNL     1      -2.059  -9.232  10.683  0.00  0.00    +0.339 C 
ATOM      6  O   UNL     1      -1.991  -8.781   9.995  0.00  0.00    -0.249 OA
ATOM      7  N   UNL     1      -2.743  -9.670  10.824  0.00  0.00    -0.187 NA
BRANCH   4   3
ATOM      3  C   UNL     1      -0.756  -8.808  11.089  0.00  0.00    +0.117 C 
BRANCH   3   2
ATOM      1  C   UNL     1       0.527  -8.370  11.541  0.00  0.00    +0.002 C 
ATOM      2  C   UNL     1      -0.094  -8.913  11.569  0.00  0.00    +0.023 C 
ENDBRANCH   3   2
ENDBRANCH   4   3
ENDBRANCH   8   7
ENDBRANCH   9   8
BRANCH  13  14
ATOM     14  C   UNL     1      -6.454 -10.233  11.272  0.00  0.00    +0.070 C 
BRANCH  14  15
ATOM     15  C   UNL     1      -7.090  -9.932  10.842  0.00  0.00    +0.139 A 
ATOM     16  N   UNL     1      -7.267  -9.134  10.733  0.00  0.00    -0.229 NA
ATOM     17  C   UNL     1      -7.947  -9.084  10.269  0.00  0.00    +0.100 A 
ATOM     18  C   UNL     1      -8.191  -9.852  10.092  0.00  0.00    +0.100 A 
ATOM     19  N   UNL     1      -7.661 -10.377  10.446  0.00  0.00    -0.229 NA
ATOM     20  C   UNL     1      -8.864  -9.975   9.630  0.00  0.00    +0.021 A 
ATOM     21  C   UNL     1      -9.293  -9.330   9.347  0.00  0.00    +0.008 A 
ATOM     22  C   UNL     1      -9.049  -8.562   9.525  0.00  0.00    +0.077 A 
ATOM     23  C   UNL     1      -8.377  -8.439   9.985  0.00  0.00    +0.027 A 
BRANCH  22  24
ATOM     24  C   UNL     1      -9.478  -7.918   9.241  0.00  0.00    +0.341 C 
ATOM     25  O   UNL     1      -9.086  -7.290   8.873  0.00  0.00    -0.245 OA
BRANCH  24  26
ATOM     26  O   UNL     1     -10.299  -7.899   9.324  0.00  0.00    -0.441 OA
ATOM     27  C   UNL     1     -10.719  -7.219   9.118  0.00  0.00    +0.256 C 
ENDBRANCH  24  26
ENDBRANCH  22  24
ENDBRANCH  14  15
ENDBRANCH  13  14
TORSDOF 9
ENDMDL
