MODEL 1
REMARK VINA RESULT:      -9.2      0.000      0.000
REMARK  Name = 
REMARK  7 active torsions:
REMARK  status: ('A' for Active; 'I' for Inactive)
REMARK    1  A    between atoms: O_2  and  C_3
REMARK    2  A    between atoms: C_3  and  C_4
REMARK    3  A    between atoms: C_4  and  N_5
REMARK    4  A    between atoms: N_5  and  C_6
REMARK    5  A    between atoms: C_9  and  C_12
REMARK    6  A    between atoms: C_15  and  C_17
REMARK    7  A    between atoms: N_21  and  C_22
REMARK                            x       y       z     vdW  Elec       q    Type
REMARK                         _______ _______ _______ _____ _____    ______ ____
ROOT
ATOM     12  C   UNL     1      -1.202   0.464  24.535  0.00  0.00    +0.205 A 
ATOM     13  N   UNL     1      -1.267   0.394  25.354  0.00  0.00    -0.056 NA
ATOM     14  O   UNL     1      -2.051   0.541  25.562  0.00  0.00    -0.336 OA
ATOM     15  C   UNL     1      -2.472   0.703  24.869  0.00  0.00    +0.251 A 
ATOM     16  N   UNL     1      -1.946   0.655  24.236  0.00  0.00    -0.190 NA
ENDROOT
BRANCH  12   9
ATOM      6  C   UNL     1       0.865   0.156  23.208  0.00  0.00    +0.148 A 
ATOM      7  C   UNL     1       0.440  -0.501  23.468  0.00  0.00    +0.036 A 
ATOM      8  C   UNL     1      -0.249  -0.398  23.911  0.00  0.00    +0.008 A 
ATOM      9  C   UNL     1      -0.513   0.362  24.093  0.00  0.00    +0.058 A 
ATOM     10  C   UNL     1      -0.088   1.020  23.832  0.00  0.00    +0.103 A 
ATOM     11  N   UNL     1       0.601   0.917  23.390  0.00  0.00    -0.228 NA
BRANCH   6   5
ATOM      5  N   UNL     1       1.553   0.054  22.766  0.00  0.00    -0.218 NA
BRANCH   5   4
ATOM      4  C   UNL     1       2.249   0.437  22.991  0.00  0.00    +0.146 C 
BRANCH   4   3
ATOM      3  C   UNL     1       2.957   0.270  22.601  0.00  0.00    +0.166 C 
BRANCH   3   2
ATOM      1  C   UNL     1       4.355   0.491  22.789  0.00  0.00    +0.174 C 
ATOM      2  O   UNL     1       3.595   0.787  22.666  0.00  0.00    -0.349 OA
ENDBRANCH   3   2
ENDBRANCH   4   3
ENDBRANCH   5   4
ENDBRANCH   6   5
ENDBRANCH  12   9
BRANCH  15  17
ATOM     17  C   UNL     1      -3.276   0.881  24.822  0.00  0.00    +0.138 C 
ATOM     18  C   UNL     1      -3.606   1.636  24.809  0.00  0.00    +0.027 C 
ATOM     19  C   UNL     1      -4.426   1.555  24.758  0.00  0.00    +0.019 C 
ATOM     20  C   UNL     1      -4.601   0.749  24.739  0.00  0.00    +0.072 C 
ATOM     21  N   UNL     1      -3.892   0.332  24.778  0.00  0.00    -0.268 NA
BRANCH  21  22
ATOM     22  C   UNL     1      -3.809  -0.489  24.775  0.00  0.00    +0.061 C 
ATOM     23  C   UNL     1      -3.828  -0.901  24.059  0.00  0.00    +0.033 C 
ATOM     24  C   UNL     1      -3.745  -1.722  24.055  0.00  0.00    +0.074 C 
ATOM     25  N   UNL     1      -3.645  -2.131  24.765  0.00  0.00    -0.271 NA
ATOM     26  C   UNL     1      -3.563  -2.951  24.760  0.00  0.00    +0.090 C 
ATOM     27  C   UNL     1      -3.627  -1.718  25.479  0.00  0.00    +0.074 C 
ATOM     28  C   UNL     1      -3.709  -0.897  25.483  0.00  0.00    +0.033 C 
ENDBRANCH  21  22
ENDBRANCH  15  17
TORSDOF 7
ENDMDL
MODEL 2
REMARK VINA RESULT:      -8.9      2.595      4.548
REMARK  Name = 
REMARK  7 active torsions:
REMARK  status: ('A' for Active; 'I' for Inactive)
REMARK    1  A    between atoms: O_2  and  C_3
REMARK    2  A    between atoms: C_3  and  C_4
REMARK    3  A    between atoms: C_4  and  N_5
REMARK    4  A    between atoms: N_5  and  C_6
REMARK    5  A    between atoms: C_9  and  C_12
REMARK    6  A    between atoms: C_15  and  C_17
REMARK    7  A    between atoms: N_21  and  C_22
REMARK                            x       y       z     vdW  Elec       q    Type
REMARK                         _______ _______ _______ _____ _____    ______ ____
ROOT
ATOM     12  C   UNL     1      -0.961   1.800  25.481  0.00  0.00    +0.205 A 
ATOM     13  N   UNL     1      -0.745   2.076  26.228  0.00  0.00    -0.056 NA
ATOM     14  O   UNL     1      -0.736   2.900  26.203  0.00  0.00    -0.336 OA
ATOM     15  C   UNL     1      -0.948   3.134  25.440  0.00  0.00    +0.251 A 
ATOM     16  N   UNL     1      -1.087   2.455  24.995  0.00  0.00    -0.190 NA
ENDROOT
BRANCH  12   9
ATOM      6  C   UNL     1      -1.194  -0.572  24.817  0.00  0.00    +0.148 A 
ATOM      7  C   UNL     1      -1.365  -0.342  25.590  0.00  0.00    +0.036 A 
ATOM      8  C   UNL     1      -1.288   0.449  25.811  0.00  0.00    +0.008 A 
ATOM      9  C   UNL     1      -1.039   1.010  25.260  0.00  0.00    +0.058 A 
ATOM     10  C   UNL     1      -0.867   0.779  24.486  0.00  0.00    +0.103 A 
ATOM     11  N   UNL     1      -0.945  -0.012  24.264  0.00  0.00    -0.228 NA
BRANCH   6   5
ATOM      5  N   UNL     1      -1.271  -1.363  24.595  0.00  0.00    -0.218 NA
BRANCH   5   4
ATOM      4  C   UNL     1      -1.988  -1.757  24.714  0.00  0.00    +0.146 C 
BRANCH   4   3
ATOM      3  C   UNL     1      -2.141  -2.463  24.315  0.00  0.00    +0.166 C 
BRANCH   3   2
ATOM      1  C   UNL     1      -3.502  -2.894  24.260  0.00  0.00    +0.174 C 
ATOM      2  O   UNL     1      -2.743  -2.961  24.577  0.00  0.00    -0.349 OA
ENDBRANCH   3   2
ENDBRANCH   4   3
ENDBRANCH   5   4
ENDBRANCH   6   5
ENDBRANCH  12   9
BRANCH  15  17
ATOM     17  C   UNL     1      -1.009   3.912  25.172  0.00  0.00    +0.138 C 
ATOM     18  C   UNL     1      -0.385   4.390  24.924  0.00  0.00    +0.027 C 
ATOM     19  C   UNL     1      -0.697   5.122  24.704  0.00  0.00    +0.019 C 
ATOM     20  C   UNL     1      -1.514   5.095  24.817  0.00  0.00    +0.072 C 
ATOM     21  N   UNL     1      -1.707   4.348  25.106  0.00  0.00    -0.268 NA
BRANCH  21  22
ATOM     22  C   UNL     1      -2.464   4.082  25.297  0.00  0.00    +0.061 C 
ATOM     23  C   UNL     1      -2.945   3.755  24.710  0.00  0.00    +0.033 C 
ATOM     24  C   UNL     1      -3.703   3.488  24.900  0.00  0.00    +0.074 C 
ATOM     25  N   UNL     1      -3.979   3.548  25.676  0.00  0.00    -0.271 NA
ATOM     26  C   UNL     1      -4.736   3.281  25.865  0.00  0.00    +0.090 C 
ATOM     27  C   UNL     1      -3.498   3.874  26.261  0.00  0.00    +0.074 C 
ATOM     28  C   UNL     1      -2.741   4.141  26.071  0.00  0.00    +0.033 C 
ENDBRANCH  21  22
ENDBRANCH  15  17
TORSDOF 7
ENDMDL
MODEL 3
REMARK VINA RESULT:      -8.5      2.563      5.065
REMARK  Name = 
REMARK  7 active torsions:
REMARK  status: ('A' for Active; 'I' for Inactive)
REMARK    1  A    between atoms: O_2  and  C_3
REMARK    2  A    between atoms: C_3  and  C_4
REMARK    3  A    between atoms: C_4  and  N_5
REMARK    4  A    between atoms: N_5  and  C_6
REMARK    5  A    between atoms: C_9  and  C_12
REMARK    6  A    between atoms: C_15  and  C_17
REMARK    7  A    between atoms: N_21  and  C_22
REMARK                            x       y       z     vdW  Elec       q    Type
REMARK                         _______ _______ _______ _____ _____    ______ ____
ROOT
ATOM     12  C   UNL     1      -3.608   1.874  24.319  0.00  0.00    +0.205 A 
ATOM     13  N   UNL     1      -3.620   2.433  23.713  0.00  0.00    -0.056 NA
ATOM     14  O   UNL     1      -3.385   3.158  24.028  0.00  0.00    -0.336 OA
ATOM     15  C   UNL     1      -3.227   3.046  24.831  0.00  0.00    +0.251 A 
ATOM     16  N   UNL     1      -3.364   2.253  25.010  0.00  0.00    -0.190 NA
ENDROOT
BRANCH  12   9
ATOM      6  C   UNL     1      -4.196  -0.520  24.102  0.00  0.00    +0.148 A 
ATOM      7  C   UNL     1      -4.555  -0.058  24.683  0.00  0.00    +0.036 A 
ATOM      8  C   UNL     1      -4.359   0.740  24.755  0.00  0.00    +0.008 A 
ATOM      9  C   UNL     1      -3.804   1.076  24.247  0.00  0.00    +0.058 A 
ATOM     10  C   UNL     1      -3.444   0.613  23.665  0.00  0.00    +0.103 A 
ATOM     11  N   UNL     1      -3.640  -0.185  23.593  0.00  0.00    -0.228 NA
BRANCH   6   5
ATOM      5  N   UNL     1      -4.392  -1.318  24.030  0.00  0.00    -0.218 NA
BRANCH   5   4
ATOM      4  C   UNL     1      -3.885  -1.897  24.329  0.00  0.00    +0.146 C 
BRANCH   4   3
ATOM      3  C   UNL     1      -3.999  -2.689  24.128  0.00  0.00    +0.166 C 
BRANCH   3   2
ATOM      1  C   UNL     1      -2.791  -3.332  24.538  0.00  0.00    +0.174 C 
ATOM      2  O   UNL     1      -3.614  -3.281  24.554  0.00  0.00    -0.349 OA
ENDBRANCH   3   2
ENDBRANCH   4   3
ENDBRANCH   5   4
ENDBRANCH   6   5
ENDBRANCH  12   9
BRANCH  15  17
ATOM     17  C   UNL     1      -2.975   3.627  25.360  0.00  0.00    +0.138 C 
ATOM     18  C   UNL     1      -3.460   4.154  25.769  0.00  0.00    +0.027 C 
ATOM     19  C   UNL     1      -2.977   4.635  26.235  0.00  0.00    +0.019 C 
ATOM     20  C   UNL     1      -2.195   4.405  26.113  0.00  0.00    +0.072 C 
ATOM     21  N   UNL     1      -2.192   3.782  25.573  0.00  0.00    -0.268 NA
BRANCH  21  22
ATOM     22  C   UNL     1      -1.526   3.384  25.294  0.00  0.00    +0.061 C 
ATOM     23  C   UNL     1      -1.217   2.749  25.722  0.00  0.00    +0.033 C 
ATOM     24  C   UNL     1      -0.551   2.349  25.443  0.00  0.00    +0.074 C 
ATOM     25  N   UNL     1      -0.195   2.584  24.737  0.00  0.00    -0.271 NA
ATOM     26  C   UNL     1       0.471   2.185  24.458  0.00  0.00    +0.090 C 
ATOM     27  C   UNL     1      -0.504   3.218  24.310  0.00  0.00    +0.074 C 
ATOM     28  C   UNL     1      -1.170   3.618  24.589  0.00  0.00    +0.033 C 
ENDBRANCH  21  22
ENDBRANCH  15  17
TORSDOF 7
ENDMDL
MODEL 4
REMARK VINA RESULT:      -8.5      0.819      2.125
REMARK  Name = 
REMARK  7 active torsions:
REMARK  status: ('A' for Active; 'I' for Inactive)
REMARK    1  A    between atoms: O_2  and  C_3
REMARK    2  A    between atoms: C_3  and  C_4
REMARK    3  A    between atoms: C_4  and  N_5
REMARK    4  A    between atoms: N_5  and  C_6
REMARK    5  A    between atoms: C_9  and  C_12
REMARK    6  A    between atoms: C_15  and  C_17
REMARK    7  A    between atoms: N_21  and  C_22
REMARK                            x       y       z     vdW  Elec       q    Type
REMARK                         _______ _______ _______ _____ _____    ______ ____
ROOT
ATOM     12  C   UNL     1      -0.948   0.077  24.441  0.00  0.00    +0.205 A 
ATOM     13  N   UNL     1      -1.056   0.282  25.233  0.00  0.00    -0.056 NA
ATOM     14  O   UNL     1      -1.838   0.118  25.435  0.00  0.00    -0.336 OA
ATOM     15  C   UNL     1      -2.214  -0.189  24.767  0.00  0.00    +0.251 A 
ATOM     16  N   UNL     1      -1.664  -0.214  24.154  0.00  0.00    -0.190 NA
ENDROOT
BRANCH  12   9
ATOM      6  C   UNL     1       1.155   0.295  23.155  0.00  0.00    +0.148 A 
ATOM      7  C   UNL     1       0.802  -0.444  23.244  0.00  0.00    +0.036 A 
ATOM      8  C   UNL     1       0.101  -0.517  23.673  0.00  0.00    +0.008 A 
ATOM      9  C   UNL     1      -0.247   0.150  24.013  0.00  0.00    +0.058 A 
ATOM     10  C   UNL     1       0.108   0.890  23.924  0.00  0.00    +0.103 A 
ATOM     11  N   UNL     1       0.809   0.963  23.495  0.00  0.00    -0.228 NA
BRANCH   6   5
ATOM      5  N   UNL     1       1.856   0.368  22.727  0.00  0.00    -0.218 NA
BRANCH   5   4
ATOM      4  C   UNL     1       2.568   0.514  23.120  0.00  0.00    +0.146 C 
BRANCH   4   3
ATOM      3  C   UNL     1       3.273   0.557  22.694  0.00  0.00    +0.166 C 
BRANCH   3   2
ATOM      1  C   UNL     1       4.657   0.563  23.049  0.00  0.00    +0.174 C 
ATOM      2  O   UNL     1       3.926   0.944  23.016  0.00  0.00    -0.349 OA
ENDBRANCH   3   2
ENDBRANCH   4   3
ENDBRANCH   5   4
ENDBRANCH   6   5
ENDBRANCH  12   9
BRANCH  15  17
ATOM     17  C   UNL     1      -3.003  -0.428  24.723  0.00  0.00    +0.138 C 
ATOM     18  C   UNL     1      -3.282  -1.198  24.817  0.00  0.00    +0.027 C 
ATOM     19  C   UNL     1      -4.103  -1.183  24.729  0.00  0.00    +0.019 C 
ATOM     20  C   UNL     1      -4.329  -0.404  24.580  0.00  0.00    +0.072 C 
ATOM     21  N   UNL     1      -3.651   0.063  24.576  0.00  0.00    -0.268 NA
BRANCH  21  22
ATOM     22  C   UNL     1      -3.621   0.878  24.448  0.00  0.00    +0.061 C 
ATOM     23  C   UNL     1      -3.528   1.171  23.682  0.00  0.00    +0.033 C 
ATOM     24  C   UNL     1      -3.498   1.985  23.553  0.00  0.00    +0.074 C 
ATOM     25  N   UNL     1      -3.563   2.506  24.191  0.00  0.00    -0.271 NA
ATOM     26  C   UNL     1      -3.534   3.320  24.061  0.00  0.00    +0.090 C 
ATOM     27  C   UNL     1      -3.657   2.213  24.955  0.00  0.00    +0.074 C 
ATOM     28  C   UNL     1      -3.686   1.398  25.084  0.00  0.00    +0.033 C 
ENDBRANCH  21  22
ENDBRANCH  15  17
TORSDOF 7
ENDMDL
MODEL 5
REMARK VINA RESULT:      -8.4      1.461      2.826
REMARK  Name = 
REMARK  7 active torsions:
REMARK  status: ('A' for Active; 'I' for Inactive)
REMARK    1  A    between atoms: O_2  and  C_3
REMARK    2  A    between atoms: C_3  and  C_4
REMARK    3  A    between atoms: C_4  and  N_5
REMARK    4  A    between atoms: N_5  and  C_6
REMARK    5  A    between atoms: C_9  and  C_12
REMARK    6  A    between atoms: C_15  and  C_17
REMARK    7  A    between atoms: N_21  and  C_22
REMARK                            x       y       z     vdW  Elec       q    Type
REMARK                         _______ _______ _______ _____ _____    ______ ____
ROOT
ATOM     12  C   UNL     1      -1.551   0.691  24.634  0.00  0.00    +0.205 A 
ATOM     13  N   UNL     1      -1.629   0.713  25.455  0.00  0.00    -0.056 NA
ATOM     14  O   UNL     1      -2.392   0.970  25.632  0.00  0.00    -0.336 OA
ATOM     15  C   UNL     1      -2.786   1.108  24.919  0.00  0.00    +0.251 A 
ATOM     16  N   UNL     1      -2.265   0.935  24.304  0.00  0.00    -0.190 NA
ENDROOT
BRANCH  12   9
ATOM      6  C   UNL     1       0.474   0.011  23.384  0.00  0.00    +0.148 A 
ATOM      7  C   UNL     1       0.029  -0.555  23.786  0.00  0.00    +0.036 A 
ATOM      8  C   UNL     1      -0.646  -0.328  24.202  0.00  0.00    +0.008 A 
ATOM      9  C   UNL     1      -0.876   0.464  24.218  0.00  0.00    +0.058 A 
ATOM     10  C   UNL     1      -0.429   1.030  23.815  0.00  0.00    +0.103 A 
ATOM     11  N   UNL     1       0.246   0.804  23.399  0.00  0.00    -0.228 NA
BRANCH   6   5
ATOM      5  N   UNL     1       1.149  -0.216  22.967  0.00  0.00    -0.218 NA
BRANCH   5   4
ATOM      4  C   UNL     1       1.797   0.295  22.921  0.00  0.00    +0.146 C 
BRANCH   4   3
ATOM      3  C   UNL     1       2.520   0.019  22.634  0.00  0.00    +0.166 C 
BRANCH   3   2
ATOM      1  C   UNL     1       3.849   0.540  22.656  0.00  0.00    +0.174 C 
ATOM      2  O   UNL     1       3.082   0.553  22.353  0.00  0.00    -0.349 OA
ENDBRANCH   3   2
ENDBRANCH   4   3
ENDBRANCH   5   4
ENDBRANCH   6   5
ENDBRANCH  12   9
BRANCH  15  17
ATOM     17  C   UNL     1      -3.563   1.372  24.839  0.00  0.00    +0.138 C 
ATOM     18  C   UNL     1      -4.226   0.898  24.716  0.00  0.00    +0.027 C 
ATOM     19  C   UNL     1      -4.887   1.392  24.669  0.00  0.00    +0.019 C 
ATOM     20  C   UNL     1      -4.630   2.170  24.762  0.00  0.00    +0.072 C 
ATOM     21  N   UNL     1      -3.813   2.159  24.867  0.00  0.00    -0.268 NA
BRANCH  21  22
ATOM     22  C   UNL     1      -3.329   2.817  24.981  0.00  0.00    +0.061 C 
ATOM     23  C   UNL     1      -3.034   3.229  24.329  0.00  0.00    +0.033 C 
ATOM     24  C   UNL     1      -2.549   3.887  24.442  0.00  0.00    +0.074 C 
ATOM     25  N   UNL     1      -2.359   4.133  25.207  0.00  0.00    -0.271 NA
ATOM     26  C   UNL     1      -1.875   4.791  25.320  0.00  0.00    +0.090 C 
ATOM     27  C   UNL     1      -2.653   3.721  25.858  0.00  0.00    +0.074 C 
ATOM     28  C   UNL     1      -3.138   3.063  25.745  0.00  0.00    +0.033 C 
ENDBRANCH  21  22
ENDBRANCH  15  17
TORSDOF 7
ENDMDL
MODEL 6
REMARK VINA RESULT:      -7.9      2.649      3.129
REMARK  Name = 
REMARK  7 active torsions:
REMARK  status: ('A' for Active; 'I' for Inactive)
REMARK    1  A    between atoms: O_2  and  C_3
REMARK    2  A    between atoms: C_3  and  C_4
REMARK    3  A    between atoms: C_4  and  N_5
REMARK    4  A    between atoms: N_5  and  C_6
REMARK    5  A    between atoms: C_9  and  C_12
REMARK    6  A    between atoms: C_15  and  C_17
REMARK    7  A    between atoms: N_21  and  C_22
REMARK                            x       y       z     vdW  Elec       q    Type
REMARK                         _______ _______ _______ _____ _____    ______ ____
ROOT
ATOM     12  C   UNL     1      -2.193   2.014  24.896  0.00  0.00    +0.205 A 
ATOM     13  N   UNL     1      -2.261   1.900  24.082  0.00  0.00    -0.056 NA
ATOM     14  O   UNL     1      -3.056   1.771  23.907  0.00  0.00    -0.336 OA
ATOM     15  C   UNL     1      -3.481   1.804  24.615  0.00  0.00    +0.251 A 
ATOM     16  N   UNL     1      -2.947   1.954  25.225  0.00  0.00    -0.190 NA
ENDROOT
BRANCH  12   9
ATOM      6  C   UNL     1      -0.096   2.455  26.133  0.00  0.00    +0.148 A 
ATOM      7  C   UNL     1      -0.642   3.062  26.018  0.00  0.00    +0.036 A 
ATOM      8  C   UNL     1      -1.341   2.915  25.606  0.00  0.00    +0.008 A 
ATOM      9  C   UNL     1      -1.494   2.161  25.308  0.00  0.00    +0.058 A 
ATOM     10  C   UNL     1      -0.947   1.553  25.424  0.00  0.00    +0.103 A 
ATOM     11  N   UNL     1      -0.248   1.701  25.836  0.00  0.00    -0.228 NA
BRANCH   6   5
ATOM      5  N   UNL     1       0.603   2.602  26.546  0.00  0.00    -0.218 NA
BRANCH   5   4
ATOM      4  C   UNL     1       0.627   2.508  27.366  0.00  0.00    +0.146 C 
BRANCH   4   3
ATOM      3  C   UNL     1       1.320   2.674  27.781  0.00  0.00    +0.166 C 
BRANCH   3   2
ATOM      1  C   UNL     1       2.049   2.705  29.008  0.00  0.00    +0.174 C 
ATOM      2  O   UNL     1       1.365   2.516  28.588  0.00  0.00    -0.349 OA
ENDBRANCH   3   2
ENDBRANCH   4   3
ENDBRANCH   5   4
ENDBRANCH   6   5
ENDBRANCH  12   9
BRANCH  15  17
ATOM     17  C   UNL     1      -4.296   1.704  24.696  0.00  0.00    +0.138 C 
ATOM     18  C   UNL     1      -4.858   2.307  24.718  0.00  0.00    +0.027 C 
ATOM     19  C   UNL     1      -5.602   1.958  24.804  0.00  0.00    +0.019 C 
ATOM     20  C   UNL     1      -5.497   1.140  24.835  0.00  0.00    +0.072 C 
ATOM     21  N   UNL     1      -4.691   0.983  24.768  0.00  0.00    -0.268 NA
BRANCH  21  22
ATOM     22  C   UNL     1      -4.339   0.237  24.772  0.00  0.00    +0.061 C 
ATOM     23  C   UNL     1      -4.207  -0.160  24.060  0.00  0.00    +0.033 C 
ATOM     24  C   UNL     1      -3.856  -0.907  24.064  0.00  0.00    +0.074 C 
ATOM     25  N   UNL     1      -3.636  -1.256  24.779  0.00  0.00    -0.271 NA
ATOM     26  C   UNL     1      -3.284  -2.002  24.782  0.00  0.00    +0.090 C 
ATOM     27  C   UNL     1      -3.768  -0.859  25.489  0.00  0.00    +0.074 C 
ATOM     28  C   UNL     1      -4.120  -0.113  25.486  0.00  0.00    +0.033 C 
ENDBRANCH  21  22
ENDBRANCH  15  17
TORSDOF 7
ENDMDL
MODEL 7
REMARK VINA RESULT:      -7.8      2.717      4.149
REMARK  Name = 
REMARK  7 active torsions:
REMARK  status: ('A' for Active; 'I' for Inactive)
REMARK    1  A    between atoms: O_2  and  C_3
REMARK    2  A    between atoms: C_3  and  C_4
REMARK    3  A    between atoms: C_4  and  N_5
REMARK    4  A    between atoms: N_5  and  C_6
REMARK    5  A    between atoms: C_9  and  C_12
REMARK    6  A    between atoms: C_15  and  C_17
REMARK    7  A    between atoms: N_21  and  C_22
REMARK                            x       y       z     vdW  Elec       q    Type
REMARK                         _______ _______ _______ _____ _____    ______ ____
ROOT
ATOM     12  C   UNL     1      -3.762   0.457  24.924  0.00  0.00    +0.205 A 
ATOM     13  N   UNL     1      -4.028   0.092  25.613  0.00  0.00    -0.056 NA
ATOM     14  O   UNL     1      -4.127  -0.711  25.456  0.00  0.00    -0.336 OA
ATOM     15  C   UNL     1      -3.921  -0.843  24.667  0.00  0.00    +0.251 A 
ATOM     16  N   UNL     1      -3.696  -0.121  24.339  0.00  0.00    -0.190 NA
ENDROOT
BRANCH  12   9
ATOM      6  C   UNL     1      -3.252   2.864  24.654  0.00  0.00    +0.148 A 
ATOM      7  C   UNL     1      -4.000   2.577  24.459  0.00  0.00    +0.036 A 
ATOM      8  C   UNL     1      -4.170   1.774  24.549  0.00  0.00    +0.008 A 
ATOM      9  C   UNL     1      -3.592   1.259  24.834  0.00  0.00    +0.058 A 
ATOM     10  C   UNL     1      -2.843   1.547  25.029  0.00  0.00    +0.103 A 
ATOM     11  N   UNL     1      -2.673   2.349  24.939  0.00  0.00    -0.228 NA
BRANCH   6   5
ATOM      5  N   UNL     1      -3.082   3.666  24.564  0.00  0.00    -0.218 NA
BRANCH   5   4
ATOM      4  C   UNL     1      -2.446   4.001  24.971  0.00  0.00    +0.146 C 
BRANCH   4   3
ATOM      3  C   UNL     1      -2.242   4.790  24.839  0.00  0.00    +0.166 C 
BRANCH   3   2
ATOM      1  C   UNL     1      -0.922   5.326  24.934  0.00  0.00    +0.174 C 
ATOM      2  O   UNL     1      -1.645   5.141  25.286  0.00  0.00    -0.349 OA
ENDBRANCH   3   2
ENDBRANCH   4   3
ENDBRANCH   5   4
ENDBRANCH   6   5
ENDBRANCH  12   9
BRANCH  15  17
ATOM     17  C   UNL     1      -3.937  -1.570  24.278  0.00  0.00    +0.138 C 
ATOM     18  C   UNL     1      -4.587  -1.899  23.891  0.00  0.00    +0.027 C 
ATOM     19  C   UNL     1      -4.357  -2.628  23.581  0.00  0.00    +0.019 C 
ATOM     20  C   UNL     1      -3.565  -2.750  23.777  0.00  0.00    +0.072 C 
ATOM     21  N   UNL     1      -3.305  -2.097  24.207  0.00  0.00    -0.268 NA
BRANCH  21  22
ATOM     22  C   UNL     1      -2.547  -1.987  24.513  0.00  0.00    +0.061 C 
ATOM     23  C   UNL     1      -1.954  -1.665  24.038  0.00  0.00    +0.033 C 
ATOM     24  C   UNL     1      -1.195  -1.555  24.343  0.00  0.00    +0.074 C 
ATOM     25  N   UNL     1      -1.030  -1.766  25.124  0.00  0.00    -0.271 NA
ATOM     26  C   UNL     1      -0.272  -1.656  25.429  0.00  0.00    +0.090 C 
ATOM     27  C   UNL     1      -1.623  -2.088  25.599  0.00  0.00    +0.074 C 
ATOM     28  C   UNL     1      -2.382  -2.198  25.293  0.00  0.00    +0.033 C 
ENDBRANCH  21  22
ENDBRANCH  15  17
TORSDOF 7
ENDMDL
MODEL 8
REMARK VINA RESULT:      -7.7      2.652      4.341
REMARK  Name = 
REMARK  7 active torsions:
REMARK  status: ('A' for Active; 'I' for Inactive)
REMARK    1  A    between atoms: O_2  and  C_3
REMARK    2  A    between atoms: C_3  and  C_4
REMARK    3  A    between atoms: C_4  and  N_5
REMARK    4  A    between atoms: N_5  and  C_6
REMARK    5  A    between atoms: C_9  and  C_12
REMARK    6  A    between atoms: C_15  and  C_17
REMARK    7  A    between atoms: N_21  and  C_22
REMARK                            x       y       z     vdW  Elec       q    Type
REMARK                         _______ _______ _______ _____ _____    ______ ____
ROOT
ATOM     12  C   UNL     1      -3.722   1.114  24.333  0.00  0.00    +0.205 A 
ATOM     13  N   UNL     1      -3.828   1.559  23.647  0.00  0.00    -0.056 NA
ATOM     14  O   UNL     1      -4.277   2.223  23.841  0.00  0.00    -0.336 OA
ATOM     15  C   UNL     1      -4.447   2.188  24.648  0.00  0.00    +0.251 A 
ATOM     16  N   UNL     1      -4.104   1.503  24.951  0.00  0.00    -0.190 NA
ENDROOT
BRANCH  12   9
ATOM      6  C   UNL     1      -2.472  -1.016  24.505  0.00  0.00    +0.148 A 
ATOM      7  C   UNL     1      -3.295  -1.015  24.564  0.00  0.00    +0.036 A 
ATOM      8  C   UNL     1      -3.711  -0.305  24.506  0.00  0.00    +0.008 A 
ATOM      9  C   UNL     1      -3.305   0.404  24.390  0.00  0.00    +0.058 A 
ATOM     10  C   UNL     1      -2.482   0.402  24.331  0.00  0.00    +0.103 A 
ATOM     11  N   UNL     1      -2.065  -0.308  24.389  0.00  0.00    -0.228 NA
BRANCH   6   5
ATOM      5  N   UNL     1      -2.056  -1.726  24.562  0.00  0.00    -0.218 NA
BRANCH   5   4
ATOM      4  C   UNL     1      -1.365  -1.764  25.012  0.00  0.00    +0.146 C 
BRANCH   4   3
ATOM      3  C   UNL     1      -0.882  -2.432  24.971  0.00  0.00    +0.166 C 
BRANCH   3   2
ATOM      1  C   UNL     1       0.467  -2.589  25.413  0.00  0.00    +0.174 C 
ATOM      2  O   UNL     1      -0.342  -2.587  25.575  0.00  0.00    -0.349 OA
ENDBRANCH   3   2
ENDBRANCH   4   3
ENDBRANCH   5   4
ENDBRANCH   6   5
ENDBRANCH  12   9
BRANCH  15  17
ATOM     17  C   UNL     1      -4.885   2.743  25.075  0.00  0.00    +0.138 C 
ATOM     18  C   UNL     1      -5.688   2.693  25.254  0.00  0.00    +0.027 C 
ATOM     19  C   UNL     1      -5.894   3.365  25.687  0.00  0.00    +0.019 C 
ATOM     20  C   UNL     1      -5.217   3.829  25.776  0.00  0.00    +0.072 C 
ATOM     21  N   UNL     1      -4.593   3.445  25.397  0.00  0.00    -0.268 NA
BRANCH  21  22
ATOM     22  C   UNL     1      -3.815   3.714  25.349  0.00  0.00    +0.061 C 
ATOM     23  C   UNL     1      -3.297   3.590  25.980  0.00  0.00    +0.033 C 
ATOM     24  C   UNL     1      -2.518   3.859  25.932  0.00  0.00    +0.074 C 
ATOM     25  N   UNL     1      -2.258   4.251  25.254  0.00  0.00    -0.271 NA
ATOM     26  C   UNL     1      -1.479   4.519  25.207  0.00  0.00    +0.090 C 
ATOM     27  C   UNL     1      -2.775   4.374  24.624  0.00  0.00    +0.074 C 
ATOM     28  C   UNL     1      -3.555   4.105  24.672  0.00  0.00    +0.033 C 
ENDBRANCH  21  22
ENDBRANCH  15  17
TORSDOF 7
ENDMDL
