MODEL 1
REMARK VINA RESULT:     -12.5      0.000      0.000
REMARK  Name = 
REMARK  6 active torsions:
REMARK  status: ('A' for Active; 'I' for Inactive)
REMARK    1  A    between atoms: C_5  and  S_8
REMARK    2  A    between atoms: S_8  and  N_11
REMARK    3  A    between atoms: N_11  and  C_12
REMARK    4  A    between atoms: C_12  and  C_13
REMARK    5  A    between atoms: C_20  and  C_21
REMARK    6  A    between atoms: C_21  and  N_22
REMARK                            x       y       z     vdW  Elec       q    Type
REMARK                         _______ _______ _______ _____ _____    ______ ____
ROOT
ATOM     13  C   UNL     1      -4.354   2.462  24.815  0.00  0.00    +0.077 C 
ATOM     14  C   UNL     1      -5.016   2.094  24.995  0.00  0.00    +0.018 C 
ATOM     15  C   UNL     1      -5.121   1.291  25.003  0.00  0.00    +0.006 C 
ATOM     16  C   UNL     1      -5.957   1.068  25.236  0.00  0.00    +0.017 C 
ATOM     17  C   UNL     1      -5.465   1.477  25.107  0.00  0.00    +0.072 C 
ATOM     18  N   UNL     1      -4.469   1.645  24.826  0.00  0.00    -0.272 NA
ATOM     19  C   UNL     1      -3.910   0.946  24.647  0.00  0.00    +0.074 C 
ATOM     20  C   UNL     1      -4.578   0.625  24.829  0.00  0.00    +0.036 C 
ENDROOT
BRANCH  13  12
ATOM     12  C   UNL     1      -3.895   3.138  24.703  0.00  0.00    +0.131 C 
BRANCH  12  11
ATOM     11  N   UNL     1      -3.515   3.491  25.344  0.00  0.00    -0.076 NA
BRANCH  11   8
ATOM      8  S   UNL     1      -2.810   3.905  25.230  0.00  0.00    +0.077 S 
ATOM      9  O   UNL     1      -2.535   3.636  25.961  0.00  0.00    -0.152 OA
ATOM     10  O   UNL     1      -3.086   4.173  24.501  0.00  0.00    -0.152 OA
BRANCH   8   5
ATOM      1 CL   UNL     1       0.010   5.558  24.779  0.00  0.00    -0.082 Cl
ATOM      2  C   UNL     1      -0.695   5.145  24.892  0.00  0.00    +0.058 A 
ATOM      3  C   UNL     1      -0.703   4.321  24.842  0.00  0.00    +0.013 A 
ATOM      4  C   UNL     1      -1.409   3.908  24.954  0.00  0.00    +0.021 A 
ATOM      5  C   UNL     1      -2.106   4.318  25.117  0.00  0.00    +0.124 A 
ATOM      6  C   UNL     1      -2.098   5.142  25.168  0.00  0.00    +0.021 A 
ATOM      7  C   UNL     1      -1.392   5.555  25.055  0.00  0.00    +0.013 A 
ENDBRANCH   8   5
ENDBRANCH  11   8
ENDBRANCH  12  11
ENDBRANCH  13  12
BRANCH  20  21
ATOM     21  C   UNL     1      -4.752  -0.181  24.857  0.00  0.00    +0.092 C 
BRANCH  21  22
ATOM     22  N   UNL     1      -4.161  -0.725  25.047  0.00  0.00    -0.307 N 
ATOM     23  C   UNL     1      -3.609  -0.648  25.655  0.00  0.00    +0.095 C 
ATOM     24  C   UNL     1      -3.126  -1.316  25.648  0.00  0.00    +0.049 C 
ATOM     25  C   UNL     1      -3.380  -1.806  25.034  0.00  0.00    -0.007 A 
ATOM     26  C   UNL     1      -3.110  -2.539  24.766  0.00  0.00    -0.003 A 
ATOM     27  C   UNL     1      -3.481  -2.906  24.127  0.00  0.00    -0.000 A 
ATOM     28  C   UNL     1      -4.122  -2.541  23.756  0.00  0.00    +0.001 A 
ATOM     29  C   UNL     1      -4.390  -1.808  24.025  0.00  0.00    +0.014 A 
ATOM     30  C   UNL     1      -4.020  -1.441  24.664  0.00  0.00    +0.044 A 
ENDBRANCH  21  22
ENDBRANCH  20  21
TORSDOF 6
ENDMDL
MODEL 2
REMARK VINA RESULT:     -12.5      2.422      5.727
REMARK  Name = 
REMARK  6 active torsions:
REMARK  status: ('A' for Active; 'I' for Inactive)
REMARK    1  A    between atoms: C_5  and  S_8
REMARK    2  A    between atoms: S_8  and  N_11
REMARK    3  A    between atoms: N_11  and  C_12
REMARK    4  A    between atoms: C_12  and  C_13
REMARK    5  A    between atoms: C_20  and  C_21
REMARK    6  A    between atoms: C_21  and  N_22
REMARK                            x       y       z     vdW  Elec       q    Type
REMARK                         _______ _______ _______ _____ _____    ______ ____
ROOT
ATOM     13  C   UNL     1      -4.403   1.571  24.838  0.00  0.00    +0.077 C 
ATOM     14  C   UNL     1      -4.696   2.232  25.124  0.00  0.00    +0.018 C 
ATOM     15  C   UNL     1      -4.271   2.898  25.304  0.00  0.00    +0.006 C 
ATOM     16  C   UNL     1      -4.795   3.552  25.621  0.00  0.00    +0.017 C 
ATOM     17  C   UNL     1      -4.663   2.958  25.384  0.00  0.00    +0.072 C 
ATOM     18  N   UNL     1      -3.976   2.253  25.024  0.00  0.00    -0.272 NA
ATOM     19  C   UNL     1      -3.088   2.453  24.964  0.00  0.00    +0.074 C 
ATOM     20  C   UNL     1      -3.415   3.083  25.243  0.00  0.00    +0.036 C 
ENDROOT
BRANCH  13  12
ATOM     12  C   UNL     1      -4.466   0.796  24.564  0.00  0.00    +0.131 C 
BRANCH  12  11
ATOM     11  N   UNL     1      -4.565   0.176  25.099  0.00  0.00    -0.076 NA
BRANCH  11   8
ATOM      8  S   UNL     1      -4.296  -0.581  24.909  0.00  0.00    +0.077 S 
ATOM      9  O   UNL     1      -4.023  -0.678  25.682  0.00  0.00    -0.152 OA
ATOM     10  O   UNL     1      -4.570  -0.485  24.137  0.00  0.00    -0.152 OA
BRANCH   8   5
ATOM      1 CL   UNL     1      -3.221  -3.608  24.153  0.00  0.00    -0.082 Cl
ATOM      2  C   UNL     1      -3.490  -2.852  24.342  0.00  0.00    +0.058 A 
ATOM      3  C   UNL     1      -3.224  -2.479  25.029  0.00  0.00    +0.013 A 
ATOM      4  C   UNL     1      -3.493  -1.722  25.217  0.00  0.00    +0.021 A 
ATOM      5  C   UNL     1      -4.028  -1.338  24.720  0.00  0.00    +0.124 A 
ATOM      6  C   UNL     1      -4.294  -1.711  24.033  0.00  0.00    +0.021 A 
ATOM      7  C   UNL     1      -4.024  -2.468  23.845  0.00  0.00    +0.013 A 
ENDBRANCH   8   5
ENDBRANCH  11   8
ENDBRANCH  12  11
ENDBRANCH  13  12
BRANCH  20  21
ATOM     21  C   UNL     1      -3.043   3.791  25.446  0.00  0.00    +0.092 C 
BRANCH  21  22
ATOM     22  N   UNL     1      -2.222   3.853  25.401  0.00  0.00    -0.307 N 
ATOM     23  C   UNL     1      -1.680   3.255  25.574  0.00  0.00    +0.095 C 
ATOM     24  C   UNL     1      -0.921   3.555  25.454  0.00  0.00    +0.049 C 
ATOM     25  C   UNL     1      -0.995   4.340  25.208  0.00  0.00    -0.007 A 
ATOM     26  C   UNL     1      -0.432   4.910  25.009  0.00  0.00    -0.003 A 
ATOM     27  C   UNL     1      -0.674   5.664  24.777  0.00  0.00    -0.000 A 
ATOM     28  C   UNL     1      -1.478   5.848  24.744  0.00  0.00    +0.001 A 
ATOM     29  C   UNL     1      -2.039   5.277  24.943  0.00  0.00    +0.014 A 
ATOM     30  C   UNL     1      -1.798   4.523  25.175  0.00  0.00    +0.044 A 
ENDBRANCH  21  22
ENDBRANCH  20  21
TORSDOF 6
ENDMDL
MODEL 3
REMARK VINA RESULT:     -11.7      1.839      2.725
REMARK  Name = 
REMARK  6 active torsions:
REMARK  status: ('A' for Active; 'I' for Inactive)
REMARK    1  A    between atoms: C_5  and  S_8
REMARK    2  A    between atoms: S_8  and  N_11
REMARK    3  A    between atoms: N_11  and  C_12
REMARK    4  A    between atoms: C_12  and  C_13
REMARK    5  A    between atoms: C_20  and  C_21
REMARK    6  A    between atoms: C_21  and  N_22
REMARK                            x       y       z     vdW  Elec       q    Type
REMARK                         _______ _______ _______ _____ _____    ______ ____
ROOT
ATOM     13  C   UNL     1      -0.869   0.906  25.538  0.00  0.00    +0.077 C 
ATOM     14  C   UNL     1      -0.594   0.196  25.379  0.00  0.00    +0.018 C 
ATOM     15  C   UNL     1      -1.043  -0.468  25.259  0.00  0.00    +0.006 C 
ATOM     16  C   UNL     1      -0.536  -1.187  25.088  0.00  0.00    +0.017 C 
ATOM     17  C   UNL     1      -0.650  -0.558  25.224  0.00  0.00    +0.072 C 
ATOM     18  N   UNL     1      -1.320   0.226  25.415  0.00  0.00    -0.272 NA
ATOM     19  C   UNL     1      -2.220   0.080  25.421  0.00  0.00    +0.074 C 
ATOM     20  C   UNL     1      -1.910  -0.600  25.267  0.00  0.00    +0.036 C 
ENDROOT
BRANCH  13  12
ATOM     12  C   UNL     1      -0.781   1.709  25.701  0.00  0.00    +0.131 C 
BRANCH  12  11
ATOM     11  N   UNL     1      -0.481   2.218  25.125  0.00  0.00    -0.076 NA
BRANCH  11   8
ATOM      8  S   UNL     1      -0.718   3.008  25.107  0.00  0.00    +0.077 S 
ATOM      9  O   UNL     1      -0.900   2.935  24.305  0.00  0.00    -0.152 OA
ATOM     10  O   UNL     1      -0.536   3.081  25.908  0.00  0.00    -0.152 OA
BRANCH   8   5
ATOM      1 CL   UNL     1      -1.666   6.168  25.031  0.00  0.00    -0.082 Cl
ATOM      2  C   UNL     1      -1.429   5.378  25.050  0.00  0.00    +0.058 A 
ATOM      3  C   UNL     1      -0.687   5.163  24.760  0.00  0.00    +0.013 A 
ATOM      4  C   UNL     1      -0.451   4.372  24.779  0.00  0.00    +0.021 A 
ATOM      5  C   UNL     1      -0.955   3.798  25.088  0.00  0.00    +0.124 A 
ATOM      6  C   UNL     1      -1.697   4.013  25.379  0.00  0.00    +0.021 A 
ATOM      7  C   UNL     1      -1.933   4.804  25.359  0.00  0.00    +0.013 A 
ENDBRANCH   8   5
ENDBRANCH  11   8
ENDBRANCH  12  11
ENDBRANCH  13  12
BRANCH  20  21
ATOM     21  C   UNL     1      -2.307  -1.311  25.135  0.00  0.00    +0.092 C 
BRANCH  21  22
ATOM     22  N   UNL     1      -3.040  -1.310  24.757  0.00  0.00    -0.307 N 
ATOM     23  C   UNL     1      -3.522  -0.651  24.632  0.00  0.00    +0.095 C 
ATOM     24  C   UNL     1      -4.200  -0.901  24.235  0.00  0.00    +0.049 C 
ATOM     25  C   UNL     1      -4.137  -1.716  24.115  0.00  0.00    -0.007 A 
ATOM     26  C   UNL     1      -4.642  -2.260  23.752  0.00  0.00    -0.003 A 
ATOM     27  C   UNL     1      -4.429  -3.056  23.713  0.00  0.00    -0.000 A 
ATOM     28  C   UNL     1      -3.712  -3.308  24.035  0.00  0.00    +0.001 A 
ATOM     29  C   UNL     1      -3.209  -2.764  24.397  0.00  0.00    +0.014 A 
ATOM     30  C   UNL     1      -3.422  -1.968  24.437  0.00  0.00    +0.044 A 
ENDBRANCH  21  22
ENDBRANCH  20  21
TORSDOF 6
ENDMDL
MODEL 4
REMARK VINA RESULT:     -11.2      2.970      6.264
REMARK  Name = 
REMARK  6 active torsions:
REMARK  status: ('A' for Active; 'I' for Inactive)
REMARK    1  A    between atoms: C_5  and  S_8
REMARK    2  A    between atoms: S_8  and  N_11
REMARK    3  A    between atoms: N_11  and  C_12
REMARK    4  A    between atoms: C_12  and  C_13
REMARK    5  A    between atoms: C_20  and  C_21
REMARK    6  A    between atoms: C_21  and  N_22
REMARK                            x       y       z     vdW  Elec       q    Type
REMARK                         _______ _______ _______ _____ _____    ______ ____
ROOT
ATOM     13  C   UNL     1      -1.219   0.646  25.208  0.00  0.00    +0.077 C 
ATOM     14  C   UNL     1      -0.648   0.966  25.628  0.00  0.00    +0.018 C 
ATOM     15  C   UNL     1      -0.571   1.755  25.795  0.00  0.00    +0.006 C 
ATOM     16  C   UNL     1       0.155   1.921  26.294  0.00  0.00    +0.017 C 
ATOM     17  C   UNL     1      -0.267   1.548  25.963  0.00  0.00    +0.072 C 
ATOM     18  N   UNL     1      -1.134   1.448  25.382  0.00  0.00    -0.272 NA
ATOM     19  C   UNL     1      -1.635   2.178  25.162  0.00  0.00    +0.074 C 
ATOM     20  C   UNL     1      -1.059   2.452  25.579  0.00  0.00    +0.036 C 
ENDROOT
BRANCH  13  12
ATOM     12  C   UNL     1      -1.607   0.006  24.861  0.00  0.00    +0.131 C 
BRANCH  12  11
ATOM     11  N   UNL     1      -2.008  -0.539  25.332  0.00  0.00    -0.076 NA
BRANCH  11   8
ATOM      8  S   UNL     1      -2.551  -1.059  24.991  0.00  0.00    +0.077 S 
ATOM      9  O   UNL     1      -3.099  -0.871  25.580  0.00  0.00    -0.152 OA
ATOM     10  O   UNL     1      -2.004  -1.246  24.403  0.00  0.00    -0.152 OA
BRANCH   8   5
ATOM      1 CL   UNL     1      -4.726  -3.137  23.634  0.00  0.00    -0.082 Cl
ATOM      2  C   UNL     1      -4.182  -2.618  23.973  0.00  0.00    +0.058 A 
ATOM      3  C   UNL     1      -3.562  -2.911  24.432  0.00  0.00    +0.013 A 
ATOM      4  C   UNL     1      -3.018  -2.391  24.771  0.00  0.00    +0.021 A 
ATOM      5  C   UNL     1      -3.095  -1.578  24.652  0.00  0.00    +0.124 A 
ATOM      6  C   UNL     1      -3.715  -1.285  24.193  0.00  0.00    +0.021 A 
ATOM      7  C   UNL     1      -4.258  -1.805  23.854  0.00  0.00    +0.013 A 
ENDBRANCH   8   5
ENDBRANCH  11   8
ENDBRANCH  12  11
ENDBRANCH  13  12
BRANCH  20  21
ATOM     21  C   UNL     1      -0.922   3.239  25.785  0.00  0.00    +0.092 C 
BRANCH  21  22
ATOM     22  N   UNL     1      -1.517   3.801  25.683  0.00  0.00    -0.307 N 
ATOM     23  C   UNL     1      -2.306   3.720  25.912  0.00  0.00    +0.095 C 
ATOM     24  C   UNL     1      -2.704   4.412  25.706  0.00  0.00    +0.049 C 
ATOM     25  C   UNL     1      -2.161   4.921  25.349  0.00  0.00    -0.007 A 
ATOM     26  C   UNL     1      -2.241   5.680  25.035  0.00  0.00    -0.003 A 
ATOM     27  C   UNL     1      -1.587   6.061  24.707  0.00  0.00    -0.000 A 
ATOM     28  C   UNL     1      -0.853   5.684  24.693  0.00  0.00    +0.001 A 
ATOM     29  C   UNL     1      -0.774   4.925  25.007  0.00  0.00    +0.014 A 
ATOM     30  C   UNL     1      -1.428   4.544  25.335  0.00  0.00    +0.044 A 
ENDBRANCH  21  22
ENDBRANCH  20  21
TORSDOF 6
ENDMDL
MODEL 5
REMARK VINA RESULT:     -10.7      4.664      5.284
REMARK  Name = 
REMARK  6 active torsions:
REMARK  status: ('A' for Active; 'I' for Inactive)
REMARK    1  A    between atoms: C_5  and  S_8
REMARK    2  A    between atoms: S_8  and  N_11
REMARK    3  A    between atoms: N_11  and  C_12
REMARK    4  A    between atoms: C_12  and  C_13
REMARK    5  A    between atoms: C_20  and  C_21
REMARK    6  A    between atoms: C_21  and  N_22
REMARK                            x       y       z     vdW  Elec       q    Type
REMARK                         _______ _______ _______ _____ _____    ______ ____
ROOT
ATOM     13  C   UNL     1       0.535   0.148  23.488  0.00  0.00    +0.077 C 
ATOM     14  C   UNL     1      -0.037   0.652  23.638  0.00  0.00    +0.018 C 
ATOM     15  C   UNL     1      -0.759   0.464  23.956  0.00  0.00    +0.006 C 
ATOM     16  C   UNL     1      -1.279   1.188  24.052  0.00  0.00    +0.017 C 
ATOM     17  C   UNL     1      -0.738   0.862  23.886  0.00  0.00    +0.072 C 
ATOM     18  N   UNL     1      -0.202  -0.035  23.811  0.00  0.00    -0.272 NA
ATOM     19  C   UNL     1      -0.572  -0.825  24.081  0.00  0.00    +0.074 C 
ATOM     20  C   UNL     1      -1.108  -0.299  24.214  0.00  0.00    +0.036 C 
ENDROOT
BRANCH  13  12
ATOM     12  C   UNL     1       1.288  -0.051  23.217  0.00  0.00    +0.131 C 
BRANCH  12  11
ATOM     11  N   UNL     1       1.795   0.538  22.938  0.00  0.00    -0.076 NA
BRANCH  11   8
ATOM      8  S   UNL     1       2.613   0.439  22.992  0.00  0.00    +0.077 S 
ATOM      9  O   UNL     1       2.663   1.123  23.453  0.00  0.00    -0.152 OA
ATOM     10  O   UNL     1       2.561  -0.243  22.533  0.00  0.00    -0.152 OA
BRANCH   8   5
ATOM      1 CL   UNL     1       5.882   0.051  23.212  0.00  0.00    -0.082 Cl
ATOM      2  C   UNL     1       5.065   0.149  23.157  0.00  0.00    +0.058 A 
ATOM      3  C   UNL     1       4.752   0.845  22.844  0.00  0.00    +0.013 A 
ATOM      4  C   UNL     1       3.934   0.941  22.789  0.00  0.00    +0.021 A 
ATOM      5  C   UNL     1       3.430   0.342  23.047  0.00  0.00    +0.124 A 
ATOM      6  C   UNL     1       3.742  -0.354  23.360  0.00  0.00    +0.021 A 
ATOM      7  C   UNL     1       4.560  -0.451  23.415  0.00  0.00    +0.013 A 
ENDBRANCH   8   5
ENDBRANCH  11   8
ENDBRANCH  12  11
ENDBRANCH  13  12
BRANCH  20  21
ATOM     21  C   UNL     1      -1.858  -0.421  24.533  0.00  0.00    +0.092 C 
BRANCH  21  22
ATOM     22  N   UNL     1      -2.164  -1.185  24.589  0.00  0.00    -0.307 N 
ATOM     23  C   UNL     1      -1.753  -1.854  24.847  0.00  0.00    +0.095 C 
ATOM     24  C   UNL     1      -2.268  -2.497  24.815  0.00  0.00    +0.049 C 
ATOM     25  C   UNL     1      -2.997  -2.226  24.537  0.00  0.00    -0.007 A 
ATOM     26  C   UNL     1      -3.711  -2.614  24.394  0.00  0.00    -0.003 A 
ATOM     27  C   UNL     1      -4.360  -2.191  24.111  0.00  0.00    -0.000 A 
ATOM     28  C   UNL     1      -4.296  -1.380  23.972  0.00  0.00    +0.001 A 
ATOM     29  C   UNL     1      -3.582  -0.993  24.115  0.00  0.00    +0.014 A 
ATOM     30  C   UNL     1      -2.932  -1.416  24.398  0.00  0.00    +0.044 A 
ENDBRANCH  21  22
ENDBRANCH  20  21
TORSDOF 6
ENDMDL
MODEL 6
REMARK VINA RESULT:     -10.3      3.491      4.791
REMARK  Name = 
REMARK  6 active torsions:
REMARK  status: ('A' for Active; 'I' for Inactive)
REMARK    1  A    between atoms: C_5  and  S_8
REMARK    2  A    between atoms: S_8  and  N_11
REMARK    3  A    between atoms: N_11  and  C_12
REMARK    4  A    between atoms: C_12  and  C_13
REMARK    5  A    between atoms: C_20  and  C_21
REMARK    6  A    between atoms: C_21  and  N_22
REMARK                            x       y       z     vdW  Elec       q    Type
REMARK                         _______ _______ _______ _____ _____    ______ ____
ROOT
ATOM     13  C   UNL     1      -1.381   0.053  24.289  0.00  0.00    +0.077 C 
ATOM     14  C   UNL     1      -2.000  -0.389  24.449  0.00  0.00    +0.018 C 
ATOM     15  C   UNL     1      -2.759  -0.121  24.545  0.00  0.00    +0.006 C 
ATOM     16  C   UNL     1      -3.328  -0.790  24.725  0.00  0.00    +0.017 C 
ATOM     17  C   UNL     1      -2.747  -0.522  24.593  0.00  0.00    +0.072 C 
ATOM     18  N   UNL     1      -2.156   0.319  24.388  0.00  0.00    -0.272 NA
ATOM     19  C   UNL     1      -2.527   1.152  24.348  0.00  0.00    +0.074 C 
ATOM     20  C   UNL     1      -3.108   0.683  24.505  0.00  0.00    +0.036 C 
ENDROOT
BRANCH  13  12
ATOM     12  C   UNL     1      -0.578   0.168  24.138  0.00  0.00    +0.131 C 
BRANCH  12  11
ATOM     11  N   UNL     1      -0.210  -0.246  23.527  0.00  0.00    -0.076 NA
BRANCH  11   8
ATOM      8  S   UNL     1       0.564  -0.059  23.309  0.00  0.00    +0.077 S 
ATOM      9  O   UNL     1       0.277   0.501  22.774  0.00  0.00    -0.152 OA
ATOM     10  O   UNL     1       0.850  -0.618  23.844  0.00  0.00    -0.152 OA
BRANCH   8   5
ATOM      1 CL   UNL     1       3.656   0.693  22.436  0.00  0.00    -0.082 Cl
ATOM      2  C   UNL     1       2.884   0.506  22.655  0.00  0.00    +0.058 A 
ATOM      3  C   UNL     1       2.507   0.935  23.251  0.00  0.00    +0.013 A 
ATOM      4  C   UNL     1       1.734   0.746  23.468  0.00  0.00    +0.021 A 
ATOM      5  C   UNL     1       1.337   0.129  23.091  0.00  0.00    +0.124 A 
ATOM      6  C   UNL     1       1.713  -0.300  22.495  0.00  0.00    +0.021 A 
ATOM      7  C   UNL     1       2.487  -0.111  22.277  0.00  0.00    +0.013 A 
ENDBRANCH   8   5
ENDBRANCH  11   8
ENDBRANCH  12  11
ENDBRANCH  13  12
BRANCH  20  21
ATOM     21  C   UNL     1      -3.899   0.889  24.614  0.00  0.00    +0.092 C 
BRANCH  21  22
ATOM     22  N   UNL     1      -4.122   1.684  24.620  0.00  0.00    -0.307 N 
ATOM     23  C   UNL     1      -3.752   2.294  24.205  0.00  0.00    +0.095 C 
ATOM     24  C   UNL     1      -4.154   2.995  24.370  0.00  0.00    +0.049 C 
ATOM     25  C   UNL     1      -4.773   2.817  24.888  0.00  0.00    -0.007 A 
ATOM     26  C   UNL     1      -5.352   3.290  25.238  0.00  0.00    -0.003 A 
ATOM     27  C   UNL     1      -5.910   2.952  25.742  0.00  0.00    -0.000 A 
ATOM     28  C   UNL     1      -5.890   2.141  25.897  0.00  0.00    +0.001 A 
ATOM     29  C   UNL     1      -5.311   1.669  25.546  0.00  0.00    +0.014 A 
ATOM     30  C   UNL     1      -4.752   2.007  25.042  0.00  0.00    +0.044 A 
ENDBRANCH  21  22
ENDBRANCH  20  21
TORSDOF 6
ENDMDL
MODEL 7
REMARK VINA RESULT:      -9.7      4.314      5.360
REMARK  Name = 
REMARK  6 active torsions:
REMARK  status: ('A' for Active; 'I' for Inactive)
REMARK    1  A    between atoms: C_5  and  S_8
REMARK    2  A    between atoms: S_8  and  N_11
REMARK    3  A    between atoms: N_11  and  C_12
REMARK    4  A    between atoms: C_12  and  C_13
REMARK    5  A    between atoms: C_20  and  C_21
REMARK    6  A    between atoms: C_21  and  N_22
REMARK                            x       y       z     vdW  Elec       q    Type
REMARK                         _______ _______ _______ _____ _____    ______ ____
ROOT
ATOM     13  C   UNL     1       0.065   0.368  23.803  0.00  0.00    +0.077 C 
ATOM     14  C   UNL     1      -0.399  -0.177  24.106  0.00  0.00    +0.018 C 
ATOM     15  C   UNL     1      -1.185  -0.082  24.284  0.00  0.00    +0.006 C 
ATOM     16  C   UNL     1      -1.542  -0.830  24.625  0.00  0.00    +0.017 C 
ATOM     17  C   UNL     1      -1.066  -0.458  24.376  0.00  0.00    +0.072 C 
ATOM     18  N   UNL     1      -0.735   0.457  23.986  0.00  0.00    -0.272 NA
ATOM     19  C   UNL     1      -1.305   1.165  23.905  0.00  0.00    +0.074 C 
ATOM     20  C   UNL     1      -1.726   0.603  24.202  0.00  0.00    +0.036 C 
ENDROOT
BRANCH  13  12
ATOM     12  C   UNL     1       0.789   0.642  23.519  0.00  0.00    +0.131 C 
BRANCH  12  11
ATOM     11  N   UNL     1       1.219   0.191  22.979  0.00  0.00    -0.076 NA
BRANCH  11   8
ATOM      8  S   UNL     1       2.044   0.221  22.980  0.00  0.00    +0.077 S 
ATOM      9  O   UNL     1       2.015   0.992  23.273  0.00  0.00    -0.152 OA
ATOM     10  O   UNL     1       2.072  -0.550  22.689  0.00  0.00    -0.152 OA
BRANCH   8   5
ATOM      1 CL   UNL     1       5.342   0.344  22.986  0.00  0.00    -0.082 Cl
ATOM      2  C   UNL     1       4.518   0.313  22.984  0.00  0.00    +0.058 A 
ATOM      3  C   UNL     1       4.082   0.949  22.690  0.00  0.00    +0.013 A 
ATOM      4  C   UNL     1       3.257   0.917  22.689  0.00  0.00    +0.021 A 
ATOM      5  C   UNL     1       2.868   0.251  22.982  0.00  0.00    +0.124 A 
ATOM      6  C   UNL     1       3.305  -0.385  23.276  0.00  0.00    +0.021 A 
ATOM      7  C   UNL     1       4.129  -0.353  23.277  0.00  0.00    +0.013 A 
ENDBRANCH   8   5
ENDBRANCH  11   8
ENDBRANCH  12  11
ENDBRANCH  13  12
BRANCH  20  21
ATOM     21  C   UNL     1      -2.526   0.633  24.405  0.00  0.00    +0.092 C 
BRANCH  21  22
ATOM     22  N   UNL     1      -2.969   1.307  24.236  0.00  0.00    -0.307 N 
ATOM     23  C   UNL     1      -2.722   1.949  23.778  0.00  0.00    +0.095 C 
ATOM     24  C   UNL     1      -3.338   2.497  23.753  0.00  0.00    +0.049 C 
ATOM     25  C   UNL     1      -3.966   2.194  24.196  0.00  0.00    -0.007 A 
ATOM     26  C   UNL     1      -4.716   2.494  24.365  0.00  0.00    -0.003 A 
ATOM     27  C   UNL     1      -5.238   2.059  24.832  0.00  0.00    -0.000 A 
ATOM     28  C   UNL     1      -5.010   1.323  25.131  0.00  0.00    +0.001 A 
ATOM     29  C   UNL     1      -4.260   1.024  24.961  0.00  0.00    +0.014 A 
ATOM     30  C   UNL     1      -3.738   1.460  24.493  0.00  0.00    +0.044 A 
ENDBRANCH  21  22
ENDBRANCH  20  21
TORSDOF 6
ENDMDL
MODEL 8
REMARK VINA RESULT:      -9.0     14.325     16.349
REMARK  Name = 
REMARK  6 active torsions:
REMARK  status: ('A' for Active; 'I' for Inactive)
REMARK    1  A    between atoms: C_5  and  S_8
REMARK    2  A    between atoms: S_8  and  N_11
REMARK    3  A    between atoms: N_11  and  C_12
REMARK    4  A    between atoms: C_12  and  C_13
REMARK    5  A    between atoms: C_20  and  C_21
REMARK    6  A    between atoms: C_21  and  N_22
REMARK                            x       y       z     vdW  Elec       q    Type
REMARK                         _______ _______ _______ _____ _____    ______ ____
ROOT
ATOM     13  C   UNL     1      -3.547 -10.666  15.565  0.00  0.00    +0.077 C 
ATOM     14  C   UNL     1      -2.806 -10.533  15.371  0.00  0.00    +0.018 C 
ATOM     15  C   UNL     1      -2.511 -10.524  14.616  0.00  0.00    +0.006 C 
ATOM     16  C   UNL     1      -1.631 -10.353  14.604  0.00  0.00    +0.017 C 
ATOM     17  C   UNL     1      -2.215 -10.449  14.881  0.00  0.00    +0.072 C 
ATOM     18  N   UNL     1      -3.240 -10.654  14.800  0.00  0.00    -0.272 NA
ATOM     19  C   UNL     1      -3.627 -10.781  13.983  0.00  0.00    +0.074 C 
ATOM     20  C   UNL     1      -2.892 -10.647  13.835  0.00  0.00    +0.036 C 
ENDROOT
BRANCH  13  12
ATOM     12  C   UNL     1      -4.161 -10.751  16.110  0.00  0.00    +0.131 C 
BRANCH  12  11
ATOM     11  N   UNL     1      -4.277 -10.181  16.694  0.00  0.00    -0.076 NA
BRANCH  11   8
ATOM      8  S   UNL     1      -4.888 -10.268  17.242  0.00  0.00    +0.077 S 
ATOM      9  O   UNL     1      -4.357 -10.600  17.780  0.00  0.00    -0.152 OA
ATOM     10  O   UNL     1      -5.418  -9.937  16.703  0.00  0.00    -0.152 OA
BRANCH   8   5
ATOM      1 CL   UNL     1      -7.331 -10.619  19.433  0.00  0.00    -0.082 Cl
ATOM      2  C   UNL     1      -6.720 -10.531  18.885  0.00  0.00    +0.058 A 
ATOM      3  C   UNL     1      -6.873 -10.194  18.147  0.00  0.00    +0.013 A 
ATOM      4  C   UNL     1      -6.262 -10.107  17.600  0.00  0.00    +0.021 A 
ATOM      5  C   UNL     1      -5.498 -10.356  17.789  0.00  0.00    +0.124 A 
ATOM      6  C   UNL     1      -5.346 -10.692  18.527  0.00  0.00    +0.021 A 
ATOM      7  C   UNL     1      -5.957 -10.780  19.075  0.00  0.00    +0.013 A 
ENDBRANCH   8   5
ENDBRANCH  11   8
ENDBRANCH  12  11
ENDBRANCH  13  12
BRANCH  20  21
ATOM     21  C   UNL     1      -2.529 -10.623  13.094  0.00  0.00    +0.092 C 
BRANCH  21  22
ATOM     22  N   UNL     1      -2.978 -10.474  12.419  0.00  0.00    -0.307 N 
ATOM     23  C   UNL     1      -3.754 -10.724  12.288  0.00  0.00    +0.095 C 
ATOM     24  C   UNL     1      -3.987 -10.454  11.544  0.00  0.00    +0.049 C 
ATOM     25  C   UNL     1      -3.354 -10.038  11.215  0.00  0.00    -0.007 A 
ATOM     26  C   UNL     1      -3.266  -9.650  10.492  0.00  0.00    -0.003 A 
ATOM     27  C   UNL     1      -2.555  -9.274  10.310  0.00  0.00    -0.000 A 
ATOM     28  C   UNL     1      -1.931  -9.287  10.851  0.00  0.00    +0.001 A 
ATOM     29  C   UNL     1      -2.020  -9.675  11.573  0.00  0.00    +0.014 A 
ATOM     30  C   UNL     1      -2.731 -10.051  11.755  0.00  0.00    +0.044 A 
ENDBRANCH  21  22
ENDBRANCH  20  21
TORSDOF 6
ENDMDL
MODEL 9
REMARK VINA RESULT:      -8.6     14.375     15.947
REMARK  Name = 
REMARK  6 active torsions:
REMARK  status: ('A' for Active; 'I' for Inactive)
REMARK    1  A    between atoms: C_5  and  S_8
REMARK    2  A    between atoms: S_8  and  N_11
REMARK    3  A    between atoms: N_11  and  C_12
REMARK    4  A    between atoms: C_12  and  C_13
REMARK    5  A    between atoms: C_20  and  C_21
REMARK    6  A    between atoms: C_21  and  N_22
REMARK                            x       y       z     vdW  Elec       q    Type
REMARK                         _______ _______ _______ _____ _____    ______ ____
ROOT
ATOM     13  C   UNL     1      -5.722 -10.195  16.125  0.00  0.00    +0.077 C 
ATOM     14  C   UNL     1      -5.002 -10.387  16.347  0.00  0.00    +0.018 C 
ATOM     15  C   UNL     1      -4.387 -10.562  15.849  0.00  0.00    +0.006 C 
ATOM     16  C   UNL     1      -3.638 -10.758  16.302  0.00  0.00    +0.017 C 
ATOM     17  C   UNL     1      -4.265 -10.589  16.234  0.00  0.00    +0.072 C 
ATOM     18  N   UNL     1      -5.091 -10.375  15.625  0.00  0.00    -0.272 NA
ATOM     19  C   UNL     1      -5.022 -10.409  14.716  0.00  0.00    +0.074 C 
ATOM     20  C   UNL     1      -4.329 -10.593  14.974  0.00  0.00    +0.036 C 
ENDROOT
BRANCH  13  12
ATOM     12  C   UNL     1      -6.505  -9.980  16.273  0.00  0.00    +0.131 C 
BRANCH  12  11
ATOM     11  N   UNL     1      -6.727  -9.720  17.024  0.00  0.00    -0.076 NA
BRANCH  11   8
ATOM      8  S   UNL     1      -7.521  -9.569  17.191  0.00  0.00    +0.077 S 
ATOM      9  O   UNL     1      -7.421  -9.887  17.946  0.00  0.00    -0.152 OA
ATOM     10  O   UNL     1      -7.619  -9.251  16.436  0.00  0.00    -0.152 OA
BRANCH   8   5
ATOM      1 CL   UNL     1     -10.695  -8.967  17.864  0.00  0.00    -0.082 Cl
ATOM      2  C   UNL     1      -9.901  -9.118  17.696  0.00  0.00    +0.058 A 
ATOM      3  C   UNL     1      -9.563  -9.838  17.914  0.00  0.00    +0.013 A 
ATOM      4  C   UNL     1      -8.769  -9.987  17.746  0.00  0.00    +0.021 A 
ATOM      5  C   UNL     1      -8.314  -9.418  17.359  0.00  0.00    +0.124 A 
ATOM      6  C   UNL     1      -8.653  -8.698  17.140  0.00  0.00    +0.021 A 
ATOM      7  C   UNL     1      -9.447  -8.548  17.309  0.00  0.00    +0.013 A 
ENDBRANCH   8   5
ENDBRANCH  11   8
ENDBRANCH  12  11
ENDBRANCH  13  12
BRANCH  20  21
ATOM     21  C   UNL     1      -3.663 -10.781  14.525  0.00  0.00    +0.092 C 
BRANCH  21  22
ATOM     22  N   UNL     1      -3.691 -10.728  13.702  0.00  0.00    -0.307 N 
ATOM     23  C   UNL     1      -4.371 -10.776  13.236  0.00  0.00    +0.095 C 
ATOM     24  C   UNL     1      -4.145 -10.695  12.447  0.00  0.00    +0.049 C 
ATOM     25  C   UNL     1      -3.326 -10.597  12.426  0.00  0.00    -0.007 A 
ATOM     26  C   UNL     1      -2.799 -10.492  11.799  0.00  0.00    -0.003 A 
ATOM     27  C   UNL     1      -1.992 -10.407  11.948  0.00  0.00    -0.000 A 
ATOM     28  C   UNL     1      -1.712 -10.428  12.724  0.00  0.00    +0.001 A 
ATOM     29  C   UNL     1      -2.239 -10.533  13.350  0.00  0.00    +0.014 A 
ATOM     30  C   UNL     1      -3.046 -10.617  13.201  0.00  0.00    +0.044 A 
ENDBRANCH  21  22
ENDBRANCH  20  21
TORSDOF 6
ENDMDL
MODEL 10
REMARK VINA RESULT:      -8.5     14.279     16.545
REMARK  Name = 
REMARK  6 active torsions:
REMARK  status: ('A' for Active; 'I' for Inactive)
REMARK    1  A    between atoms: C_5  and  S_8
REMARK    2  A    between atoms: S_8  and  N_11
REMARK    3  A    between atoms: N_11  and  C_12
REMARK    4  A    between atoms: C_12  and  C_13
REMARK    5  A    between atoms: C_20  and  C_21
REMARK    6  A    between atoms: C_21  and  N_22
REMARK                            x       y       z     vdW  Elec       q    Type
REMARK                         _______ _______ _______ _____ _____    ______ ____
ROOT
ATOM     13  C   UNL     1      -6.113 -10.174  14.484  0.00  0.00    +0.077 C 
ATOM     14  C   UNL     1      -6.561 -10.013  13.869  0.00  0.00    +0.018 C 
ATOM     15  C   UNL     1      -6.298  -9.898  13.111  0.00  0.00    +0.006 C 
ATOM     16  C   UNL     1      -6.973  -9.723  12.547  0.00  0.00    +0.017 C 
ATOM     17  C   UNL     1      -6.701  -9.859  13.125  0.00  0.00    +0.072 C 
ATOM     18  N   UNL     1      -5.853 -10.055  13.710  0.00  0.00    -0.272 NA
ATOM     19  C   UNL     1      -5.021 -10.069  13.335  0.00  0.00    +0.074 C 
ATOM     20  C   UNL     1      -5.495  -9.913  12.759  0.00  0.00    +0.036 C 
ENDROOT
BRANCH  13  12
ATOM     12  C   UNL     1      -5.991 -10.336  15.283  0.00  0.00    +0.131 C 
BRANCH  12  11
ATOM     11  N   UNL     1      -6.456  -9.966  15.855  0.00  0.00    -0.076 NA
BRANCH  11   8
ATOM      8  S   UNL     1      -6.335 -10.129  16.655  0.00  0.00    +0.077 S 
ATOM      9  O   UNL     1      -7.002 -10.615  16.657  0.00  0.00    -0.152 OA
ATOM     10  O   UNL     1      -5.669  -9.643  16.653  0.00  0.00    -0.152 OA
BRANCH   8   5
ATOM      1 CL   UNL     1      -5.852 -10.781  19.854  0.00  0.00    -0.082 Cl
ATOM      2  C   UNL     1      -5.973 -10.618  19.054  0.00  0.00    +0.058 A 
ATOM      3  C   UNL     1      -5.365 -10.745  18.511  0.00  0.00    +0.013 A 
ATOM      4  C   UNL     1      -5.486 -10.581  17.711  0.00  0.00    +0.021 A 
ATOM      5  C   UNL     1      -6.215 -10.292  17.455  0.00  0.00    +0.124 A 
ATOM      6  C   UNL     1      -6.823 -10.165  17.998  0.00  0.00    +0.021 A 
ATOM      7  C   UNL     1      -6.701 -10.328  18.798  0.00  0.00    +0.013 A 
ENDBRANCH   8   5
ENDBRANCH  11   8
ENDBRANCH  12  11
ENDBRANCH  13  12
BRANCH  20  21
ATOM     21  C   UNL     1      -5.294  -9.785  11.969  0.00  0.00    +0.092 C 
BRANCH  21  22
ATOM     22  N   UNL     1      -4.515  -9.887  11.719  0.00  0.00    -0.307 N 
ATOM     23  C   UNL     1      -3.940 -10.344  12.096  0.00  0.00    +0.095 C 
ATOM     24  C   UNL     1      -3.243 -10.289  11.660  0.00  0.00    +0.049 C 
ATOM     25  C   UNL     1      -3.387  -9.797  11.012  0.00  0.00    -0.007 A 
ATOM     26  C   UNL     1      -2.902  -9.544  10.394  0.00  0.00    -0.003 A 
ATOM     27  C   UNL     1      -3.204  -9.042   9.813  0.00  0.00    -0.000 A 
ATOM     28  C   UNL     1      -3.990  -8.793   9.850  0.00  0.00    +0.001 A 
ATOM     29  C   UNL     1      -4.473  -9.046  10.469  0.00  0.00    +0.014 A 
ATOM     30  C   UNL     1      -4.172  -9.549  11.050  0.00  0.00    +0.044 A 
ENDBRANCH  21  22
ENDBRANCH  20  21
TORSDOF 6
ENDMDL
