MODEL 1
REMARK VINA RESULT:      -9.7      0.000      0.000
REMARK  Name = 
REMARK  6 active torsions:
REMARK  status: ('A' for Active; 'I' for Inactive)
REMARK    1  A    between atoms: C_2  and  C_5
REMARK    2  A    between atoms: C_5  and  C_6
REMARK    3  A    between atoms: N_8  and  C_9
REMARK    4  A    between atoms: C_9  and  C_10
REMARK    5  A    between atoms: C_13  and  N_14
REMARK    6  A    between atoms: N_14  and  C_15
REMARK                            x       y       z     vdW  Elec       q    Type
REMARK                         _______ _______ _______ _____ _____    ______ ____
ROOT
ATOM     10  C   UNL     1      -3.293   1.333  24.560  0.00  0.00    +0.169 C 
ATOM     11  O   UNL     1      -2.713   0.811  24.288  0.00  0.00    -0.350 OA
ATOM     12  C   UNL     1      -3.028   0.048  24.308  0.00  0.00    +0.162 C 
ATOM     13  C   UNL     1      -3.801   0.099  24.591  0.00  0.00    +0.135 C 
ATOM     21  C   UNL     1      -3.964   0.893  24.747  0.00  0.00    +0.199 C 
ATOM     22  O   UNL     1      -4.676   1.193  25.039  0.00  0.00    -0.219 OA
ENDROOT
BRANCH  10   9
ATOM      9  C   UNL     1      -3.213   2.151  24.632  0.00  0.00    +0.147 C 
BRANCH   9   8
ATOM      6  C   UNL     1      -2.426   3.280  25.015  0.00  0.00    +0.241 C 
ATOM      7  O   UNL     1      -2.926   3.775  24.584  0.00  0.00    -0.273 OA
ATOM      8  N   UNL     1      -2.569   2.468  25.039  0.00  0.00    -0.203 NA
BRANCH   6   5
ATOM      5  C   UNL     1      -1.783   3.598  25.422  0.00  0.00    +0.087 C 
BRANCH   5   2
ATOM      1  C   UNL     1      -1.267   5.129  25.084  0.00  0.00    +0.000 C 
ATOM      2  C   UNL     1      -1.525   4.363  25.253  0.00  0.00    +0.009 C 
ATOM      3  C   UNL     1      -2.141   4.671  25.707  0.00  0.00    +0.000 C 
ATOM      4  C   UNL     1      -0.908   4.056  24.799  0.00  0.00    +0.000 C 
ENDBRANCH   5   2
ENDBRANCH   6   5
ENDBRANCH   9   8
ENDBRANCH  10   9
BRANCH  13  14
ATOM     14  N   UNL     1      -4.320  -0.533  24.699  0.00  0.00    -0.215 NA
BRANCH  14  15
ATOM     15  C   UNL     1      -4.047  -1.308  24.629  0.00  0.00    +0.078 C 
ATOM     16  C   UNL     1      -3.644  -1.662  25.257  0.00  0.00    +0.050 C 
ATOM     17  C   UNL     1      -3.371  -2.437  25.187  0.00  0.00    +0.144 C 
ATOM     18  O   UNL     1      -3.499  -2.859  24.491  0.00  0.00    -0.354 OA
ATOM     19  C   UNL     1      -3.902  -2.506  23.863  0.00  0.00    +0.144 C 
ATOM     20  C   UNL     1      -4.176  -1.730  23.932  0.00  0.00    +0.050 C 
ENDBRANCH  14  15
ENDBRANCH  13  14
TORSDOF 6
ENDMDL
MODEL 2
REMARK VINA RESULT:      -9.5      1.211      5.494
REMARK  Name = 
REMARK  6 active torsions:
REMARK  status: ('A' for Active; 'I' for Inactive)
REMARK    1  A    between atoms: C_2  and  C_5
REMARK    2  A    between atoms: C_5  and  C_6
REMARK    3  A    between atoms: N_8  and  C_9
REMARK    4  A    between atoms: C_9  and  C_10
REMARK    5  A    between atoms: C_13  and  N_14
REMARK    6  A    between atoms: N_14  and  C_15
REMARK                            x       y       z     vdW  Elec       q    Type
REMARK                         _______ _______ _______ _____ _____    ______ ____
ROOT
ATOM     10  C   UNL     1      -2.073   1.083  24.923  0.00  0.00    +0.169 C 
ATOM     11  O   UNL     1      -2.596   1.656  24.641  0.00  0.00    -0.350 OA
ATOM     12  C   UNL     1      -2.333   2.393  24.903  0.00  0.00    +0.162 C 
ATOM     13  C   UNL     1      -1.648   2.275  25.348  0.00  0.00    +0.135 C 
ATOM     21  C   UNL     1      -1.488   1.465  25.360  0.00  0.00    +0.199 C 
ATOM     22  O   UNL     1      -0.852   1.102  25.742  0.00  0.00    -0.219 OA
ENDROOT
BRANCH  10   9
ATOM      9  C   UNL     1      -2.128   0.270  24.792  0.00  0.00    +0.147 C 
BRANCH   9   8
ATOM      6  C   UNL     1      -2.918  -0.917  24.711  0.00  0.00    +0.241 C 
ATOM      7  O   UNL     1      -2.270  -1.328  24.407  0.00  0.00    -0.273 OA
ATOM      8  N   UNL     1      -2.847  -0.118  24.904  0.00  0.00    -0.203 NA
BRANCH   6   5
ATOM      5  C   UNL     1      -3.637  -1.306  24.822  0.00  0.00    +0.087 C 
BRANCH   5   2
ATOM      1  C   UNL     1      -3.878  -2.800  24.164  0.00  0.00    +0.000 C 
ATOM      2  C   UNL     1      -3.758  -2.053  24.493  0.00  0.00    +0.009 C 
ATOM      3  C   UNL     1      -4.139  -1.708  23.849  0.00  0.00    +0.000 C 
ATOM      4  C   UNL     1      -3.376  -2.399  25.138  0.00  0.00    +0.000 C 
ENDBRANCH   5   2
ENDBRANCH   6   5
ENDBRANCH   9   8
ENDBRANCH  10   9
BRANCH  13  14
ATOM     14  N   UNL     1      -1.201   2.863  25.715  0.00  0.00    -0.215 NA
BRANCH  14  15
ATOM     15  C   UNL     1      -1.282   3.650  25.481  0.00  0.00    +0.078 C 
ATOM     16  C   UNL     1      -1.924   4.095  25.749  0.00  0.00    +0.050 C 
ATOM     17  C   UNL     1      -2.005   4.882  25.515  0.00  0.00    +0.144 C 
ATOM     18  O   UNL     1      -1.447   5.224  25.015  0.00  0.00    -0.354 OA
ATOM     19  C   UNL     1      -0.806   4.779  24.747  0.00  0.00    +0.144 C 
ATOM     20  C   UNL     1      -0.723   3.992  24.980  0.00  0.00    +0.050 C 
ENDBRANCH  14  15
ENDBRANCH  13  14
TORSDOF 6
ENDMDL
