REMARK  Name = 
REMARK  7 active torsions:
REMARK  status: ('A' for Active; 'I' for Inactive)
REMARK    1  A    between atoms: O_2  and  C_3
REMARK    2  A    between atoms: C_6  and  C_9
REMARK    3  A    between atoms: C_11  and  C_12
REMARK    4  A    between atoms: C_12  and  C_13
REMARK    5  A    between atoms: C_18  and  C_19
REMARK    6  A    between atoms: C_19  and  C_20
REMARK    7  A    between atoms: N_25  and  C_28
REMARK                            x       y       z     vdW  Elec       q    Type
REMARK                         _______ _______ _______ _____ _____    ______ ____
ROOT
ATOM     13  C   UNL     1       5.898  -6.862   0.000  0.00  0.00    +0.024 C 
ATOM     14  C   UNL     1       6.234  -6.109   0.000  0.00  0.00    +0.089 C 
ATOM     15  N   UNL     1       7.054  -6.022   0.000  0.00  0.00    -0.218 NA
ATOM     16  C   UNL     1       7.539  -6.690   0.000  0.00  0.00    +0.089 C 
ATOM     17  C   UNL     1       7.203  -7.444   0.000  0.00  0.00    +0.019 C 
ATOM     18  C   UNL     1       6.383  -7.530   0.000  0.00  0.00    +0.012 C 
ENDROOT
BRANCH  13  12
ATOM     12  C   UNL     1       5.077  -6.949   0.000  0.00  0.00    +0.051 C 
BRANCH  12  11
ATOM      9  C   UNL     1       4.180  -5.012   0.000  0.00  0.00    +0.177 A 
ATOM     10  C   UNL     1       4.848  -5.497   0.000  0.00  0.00    +0.058 A 
ATOM     11  C   UNL     1       4.593  -6.281   0.000  0.00  0.00    +0.101 A 
ATOM     35  N   UNL     1       3.768  -6.281   0.000  0.00  0.00    -0.081 NA
ATOM     36  O   UNL     1       3.513  -5.497   0.000  0.00  0.00    -0.354 OA
BRANCH   9   6
ATOM      3  C   UNL     1       4.180  -2.537   0.000  0.00  0.00    +0.139 A 
ATOM      4  C   UNL     1       4.895  -2.949   0.000  0.00  0.00    +0.037 A 
ATOM      5  C   UNL     1       4.895  -3.774   0.000  0.00  0.00    +0.006 A 
ATOM      6  C   UNL     1       4.180  -4.187   0.000  0.00  0.00    +0.037 A 
ATOM      7  C   UNL     1       3.466  -3.774   0.000  0.00  0.00    +0.006 A 
ATOM      8  C   UNL     1       3.466  -2.949   0.000  0.00  0.00    +0.037 A 
BRANCH   3   2
ATOM      1  C   UNL     1       3.466  -1.299   0.000  0.00  0.00    +0.252 C 
ATOM      2  O   UNL     1       4.180  -1.712   0.000  0.00  0.00    -0.471 OA
ENDBRANCH   3   2
ENDBRANCH   9   6
ENDBRANCH  12  11
ENDBRANCH  13  12
BRANCH  18  19
ATOM     19  C   UNL     1       6.047  -8.284   0.000  0.00  0.00    +0.085 C 
BRANCH  19  20
ATOM     20  C   UNL     1       6.532  -8.951   0.000  0.00  0.00    +0.226 C 
ATOM     21  O   UNL     1       7.353  -8.865   0.000  0.00  0.00    -0.275 OA
ATOM     22  N   UNL     1       6.197  -9.705   0.000  0.00  0.00    -0.276 N 
ATOM     23  C   UNL     1       6.682 -10.372   0.000  0.00  0.00    +0.115 C 
ATOM     24  C   UNL     1       6.346 -11.126   0.000  0.00  0.00    +0.112 C 
ATOM     25  N   UNL     1       5.526 -11.212   0.000  0.00  0.00    -0.304 N 
ATOM     26  C   UNL     1       5.041 -10.544   0.000  0.00  0.00    +0.112 C 
ATOM     27  C   UNL     1       5.376  -9.791   0.000  0.00  0.00    +0.115 C 
BRANCH  25  28
ATOM     28  C   UNL     1       5.190 -11.966   0.000  0.00  0.00    +0.048 A 
ATOM     29  C   UNL     1       5.675 -12.633   0.000  0.00  0.00    +0.017 A 
ATOM     30  C   UNL     1       5.339 -13.387   0.000  0.00  0.00    +0.031 A 
ATOM     31  C   UNL     1       4.519 -13.473   0.000  0.00  0.00    +0.140 A 
ATOM     32  F   UNL     1       4.183 -14.227   0.000  0.00  0.00    -0.204 F 
ATOM     33  C   UNL     1       4.034 -12.806   0.000  0.00  0.00    +0.031 A 
ATOM     34  C   UNL     1       4.370 -12.052   0.000  0.00  0.00    +0.017 A 
ENDBRANCH  25  28
ENDBRANCH  19  20
ENDBRANCH  18  19
TORSDOF 7
