REMARK  Name = 
REMARK  7 active torsions:
REMARK  status: ('A' for Active; 'I' for Inactive)
REMARK    1  A    between atoms: N_2  and  C_3
REMARK    2  A    between atoms: C_3  and  C_4
REMARK    3  A    between atoms: C_3  and  C_8
REMARK    4  A    between atoms: C_4  and  C_5
REMARK    5  A    between atoms: N_10  and  C_11
REMARK    6  A    between atoms: C_13  and  C_20
REMARK    7  A    between atoms: N_22  and  C_23
REMARK                            x       y       z     vdW  Elec       q    Type
REMARK                         _______ _______ _______ _____ _____    ______ ____
ROOT
ATOM     11  C   UNL     1       5.463  -7.884   0.000  0.00  0.00    +0.131 C 
ATOM     12  C   UNL     1       6.178  -7.472   0.000  0.00  0.00    +0.064 C 
ATOM     13  C   UNL     1       6.893  -7.884   0.000  0.00  0.00    +0.200 C 
ATOM     14  O   UNL     1       7.175  -7.109   0.000  0.00  0.00    -0.216 OA
ATOM     15  C   UNL     1       6.893  -8.709   0.000  0.00  0.00    +0.075 C 
ATOM     16  C   UNL     1       6.178  -9.122   0.000  0.00  0.00    +0.187 C 
ATOM     17  O   UNL     1       6.178  -9.947   0.000  0.00  0.00    -0.220 OA
ATOM     18  C   UNL     1       5.463  -8.709   0.000  0.00  0.00    +0.202 C 
ATOM     19  O   UNL     1       4.749  -9.122   0.000  0.00  0.00    -0.219 OA
ENDROOT
BRANCH  11  10
ATOM      8  C   UNL     1       4.035  -7.884   0.000  0.00  0.00    +0.257 C 
ATOM      9  O   UNL     1       4.035  -8.709   0.000  0.00  0.00    -0.272 OA
ATOM     10  N   UNL     1       4.749  -7.472   0.000  0.00  0.00    -0.203 NA
BRANCH   8   3
ATOM      3  C   UNL     1       3.320  -7.472   0.000  0.00  0.00    +0.150 C 
BRANCH   3   2
ATOM      1  C   UNL     1       4.035  -6.234   0.000  0.00  0.00    +0.108 C 
ATOM      2  N   UNL     1       3.320  -6.647   0.000  0.00  0.00    -0.209 NA
ENDBRANCH   3   2
BRANCH   3   4
ATOM      4  C   UNL     1       2.606  -7.884   0.000  0.00  0.00    +0.027 C 
BRANCH   4   5
ATOM      5  C   UNL     1       1.891  -7.472   0.000  0.00  0.00    +0.002 C 
ATOM      6  C   UNL     1       1.177  -7.884   0.000  0.00  0.00    +0.000 C 
ATOM      7  C   UNL     1       1.891  -6.647   0.000  0.00  0.00    +0.000 C 
ENDBRANCH   4   5
ENDBRANCH   3   4
ENDBRANCH   8   3
ENDBRANCH  11  10
BRANCH  13  20
ATOM     20  C   UNL     1       7.705  -8.028   0.000  0.00  0.00    +0.269 C 
ATOM     21  O   UNL     1       7.987  -8.803   0.000  0.00  0.00    -0.271 OA
ATOM     22  N   UNL     1       8.235  -7.396   0.000  0.00  0.00    -0.196 NA
BRANCH  22  23
ATOM     23  C   UNL     1       9.048  -7.539   0.000  0.00  0.00    +0.173 C 
ATOM     24  C   UNL     1       9.578  -6.907   0.000  0.00  0.00    +0.033 C 
ATOM     25  C   UNL     1      10.390  -7.050   0.000  0.00  0.00    +0.026 C 
ATOM     26  C   UNL     1      10.673  -7.825   0.000  0.00  0.00    +0.115 C 
ATOM     27  N   UNL     1      10.142  -8.457   0.000  0.00  0.00    -0.204 NA
ATOM     28  C   UNL     1       9.330  -8.314   0.000  0.00  0.00    +0.261 C 
ATOM     29  O   UNL     1       8.800  -8.946   0.000  0.00  0.00    -0.271 OA
ENDBRANCH  22  23
ENDBRANCH  13  20
TORSDOF 7
