MODEL 1
REMARK VINA RESULT:     -10.9      0.000      0.000
REMARK  Name = 
REMARK  10 active torsions:
REMARK  status: ('A' for Active; 'I' for Inactive)
REMARK    1  A    between atoms: O_2  and  C_3
REMARK    2  A    between atoms: C_6  and  S_9
REMARK    3  A    between atoms: S_9  and  N_12
REMARK    4  A    between atoms: C_15  and  N_32
REMARK    5  A    between atoms: C_17  and  C_18
REMARK    6  A    between atoms: N_20  and  C_21
REMARK    7  A    between atoms: C_21  and  C_22
REMARK    8  A    between atoms: C_21  and  C_29
REMARK    9  A    between atoms: C_22  and  C_23
REMARK   10  A    between atoms: C_33  and  C_35
REMARK                            x       y       z     vdW  Elec       q    Type
REMARK                         _______ _______ _______ _____ _____    ______ ____
ROOT
ATOM     12  N   UNL     1      -1.068   1.580  24.225  0.00  0.00    -0.148 NA
ATOM     13  C   UNL     1      -1.271   2.358  24.040  0.00  0.00    +0.098 C 
ATOM     14  C   UNL     1      -1.947   2.697  24.367  0.00  0.00    +0.041 C 
ATOM     15  C   UNL     1      -2.422   2.259  24.879  0.00  0.00    +0.099 C 
ATOM     16  C   UNL     1      -2.220   1.481  25.064  0.00  0.00    +0.049 C 
ATOM     17  C   UNL     1      -1.544   1.142  24.737  0.00  0.00    +0.159 C 
ENDROOT
BRANCH  12   9
ATOM      9  S   UNL     1      -0.391   1.240  23.898  0.00  0.00    +0.064 S 
ATOM     10  O   UNL     1       0.049   1.490  24.549  0.00  0.00    -0.153 OA
ATOM     11  O   UNL     1      -0.832   0.990  23.246  0.00  0.00    -0.153 OA
BRANCH   9   6
ATOM      3  C   UNL     1       1.640   0.221  22.917  0.00  0.00    +0.139 A 
ATOM      4  C   UNL     1       0.894   0.011  22.633  0.00  0.00    +0.038 A 
ATOM      5  C   UNL     1       0.217   0.351  22.960  0.00  0.00    +0.023 A 
ATOM      6  C   UNL     1       0.286   0.900  23.571  0.00  0.00    +0.122 A 
ATOM      7  C   UNL     1       1.030   1.111  23.855  0.00  0.00    +0.023 A 
ATOM      8  C   UNL     1       1.707   0.771  23.528  0.00  0.00    +0.038 A 
BRANCH   3   2
ATOM      1  C   UNL     1       2.979   0.348  22.434  0.00  0.00    +0.252 C 
ATOM      2  O   UNL     1       2.317  -0.119  22.590  0.00  0.00    -0.471 OA
ENDBRANCH   3   2
ENDBRANCH   9   6
ENDBRANCH  12   9
BRANCH  17  18
ATOM     18  C   UNL     1      -1.342   0.363  24.922  0.00  0.00    +0.258 C 
ATOM     19  O   UNL     1      -0.560   0.171  25.102  0.00  0.00    -0.272 OA
ATOM     20  N   UNL     1      -1.923  -0.224  24.927  0.00  0.00    -0.197 NA
BRANCH  20  21
ATOM     21  C   UNL     1      -1.721  -1.002  25.113  0.00  0.00    +0.174 C 
BRANCH  21  29
ATOM     29  C   UNL     1      -1.394  -1.180  25.849  0.00  0.00    +0.281 C 
ATOM     30  N   UNL     1      -0.683  -1.595  25.895  0.00  0.00    -0.086 NA
ATOM     31  O   UNL     1      -1.777  -0.941  26.538  0.00  0.00    -0.270 OA
ENDBRANCH  21  29
BRANCH  21  22
ATOM     22  C   UNL     1      -1.846  -1.602  24.561  0.00  0.00    +0.031 C 
BRANCH  22  23
ATOM     23  C   UNL     1      -2.607  -1.887  24.427  0.00  0.00    +0.002 C 
ATOM     24  C   UNL     1      -3.164  -1.416  24.043  0.00  0.00    +0.000 C 
ATOM     25  C   UNL     1      -3.926  -1.702  23.910  0.00  0.00    +0.000 C 
ATOM     26  C   UNL     1      -4.133  -2.460  24.161  0.00  0.00    +0.000 C 
ATOM     27  C   UNL     1      -3.576  -2.933  24.546  0.00  0.00    +0.000 C 
ATOM     28  C   UNL     1      -2.813  -2.646  24.679  0.00  0.00    +0.000 C 
ENDBRANCH  22  23
ENDBRANCH  21  22
ENDBRANCH  20  21
ENDBRANCH  17  18
BRANCH  15  32
ATOM     32  N   UNL     1      -3.099   2.599  25.206  0.00  0.00    -0.203 NA
ATOM     33  C   UNL     1      -3.811   2.584  24.789  0.00  0.00    +0.265 C 
ATOM     34  O   UNL     1      -3.846   2.229  24.045  0.00  0.00    -0.268 OA
BRANCH  33  35
ATOM     35  C   UNL     1      -4.487   2.923  25.116  0.00  0.00    +0.058 A 
ATOM     36  C   UNL     1      -5.096   2.442  25.399  0.00  0.00    +0.025 A 
ATOM     37  C   UNL     1      -5.773   2.781  25.726  0.00  0.00    +0.099 A 
ATOM     38  N   UNL     1      -5.842   3.603  25.770  0.00  0.00    -0.242 NA
ATOM     39  C   UNL     1      -5.234   4.084  25.488  0.00  0.00    +0.099 A 
ATOM     40  C   UNL     1      -4.557   3.744  25.161  0.00  0.00    +0.025 A 
ENDBRANCH  33  35
ENDBRANCH  15  32
TORSDOF 10
ENDMDL
MODEL 2
REMARK VINA RESULT:     -10.6      1.326      4.861
REMARK  Name = 
REMARK  10 active torsions:
REMARK  status: ('A' for Active; 'I' for Inactive)
REMARK    1  A    between atoms: O_2  and  C_3
REMARK    2  A    between atoms: C_6  and  S_9
REMARK    3  A    between atoms: S_9  and  N_12
REMARK    4  A    between atoms: C_15  and  N_32
REMARK    5  A    between atoms: C_17  and  C_18
REMARK    6  A    between atoms: N_20  and  C_21
REMARK    7  A    between atoms: C_21  and  C_22
REMARK    8  A    between atoms: C_21  and  C_29
REMARK    9  A    between atoms: C_22  and  C_23
REMARK   10  A    between atoms: C_33  and  C_35
REMARK                            x       y       z     vdW  Elec       q    Type
REMARK                         _______ _______ _______ _____ _____    ______ ____
ROOT
ATOM     12  N   UNL     1      -2.112   1.645  24.026  0.00  0.00    -0.148 NA
ATOM     13  C   UNL     1      -1.698   2.063  23.448  0.00  0.00    +0.098 C 
ATOM     14  C   UNL     1      -0.991   1.762  23.149  0.00  0.00    +0.041 C 
ATOM     15  C   UNL     1      -0.697   1.044  23.428  0.00  0.00    +0.099 C 
ATOM     16  C   UNL     1      -1.112   0.626  24.006  0.00  0.00    +0.049 C 
ATOM     17  C   UNL     1      -1.819   0.927  24.305  0.00  0.00    +0.159 C 
ENDROOT
BRANCH  12   9
ATOM      9  S   UNL     1      -2.820   1.946  24.325  0.00  0.00    +0.064 S 
ATOM     10  O   UNL     1      -2.412   2.270  24.965  0.00  0.00    -0.153 OA
ATOM     11  O   UNL     1      -3.228   1.622  23.685  0.00  0.00    -0.153 OA
BRANCH   9   6
ATOM      3  C   UNL     1      -4.943   2.848  25.222  0.00  0.00    +0.139 A 
ATOM      4  C   UNL     1      -4.951   2.351  24.564  0.00  0.00    +0.038 A 
ATOM      5  C   UNL     1      -4.243   2.050  24.265  0.00  0.00    +0.023 A 
ATOM      6  C   UNL     1      -3.528   2.247  24.624  0.00  0.00    +0.122 A 
ATOM      7  C   UNL     1      -3.519   2.744  25.282  0.00  0.00    +0.023 A 
ATOM      8  C   UNL     1      -4.227   3.044  25.581  0.00  0.00    +0.038 A 
BRANCH   3   2
ATOM      1  C   UNL     1      -6.116   2.688  26.022  0.00  0.00    +0.252 C 
ATOM      2  O   UNL     1      -5.651   3.149  25.521  0.00  0.00    -0.471 OA
ENDBRANCH   3   2
ENDBRANCH   9   6
ENDBRANCH  12   9
BRANCH  17  18
ATOM     18  C   UNL     1      -2.233   0.508  24.884  0.00  0.00    +0.258 C 
ATOM     19  O   UNL     1      -2.504   0.897  25.559  0.00  0.00    -0.272 OA
ATOM     20  N   UNL     1      -2.377  -0.299  24.786  0.00  0.00    -0.197 NA
BRANCH  20  21
ATOM     21  C   UNL     1      -2.791  -0.716  25.364  0.00  0.00    +0.174 C 
BRANCH  21  29
ATOM     29  C   UNL     1      -2.422  -0.913  26.076  0.00  0.00    +0.281 C 
ATOM     30  N   UNL     1      -1.632  -1.148  26.079  0.00  0.00    -0.086 NA
ATOM     31  O   UNL     1      -2.844  -0.874  26.783  0.00  0.00    -0.270 OA
ENDBRANCH  21  29
BRANCH  21  22
ATOM     22  C   UNL     1      -3.575  -0.936  25.231  0.00  0.00    +0.031 C 
BRANCH  22  23
ATOM     23  C   UNL     1      -3.746  -1.577  24.742  0.00  0.00    +0.002 C 
ATOM     24  C   UNL     1      -3.447  -2.325  24.921  0.00  0.00    +0.000 C 
ATOM     25  C   UNL     1      -3.618  -2.966  24.431  0.00  0.00    +0.000 C 
ATOM     26  C   UNL     1      -4.088  -2.861  23.762  0.00  0.00    +0.000 C 
ATOM     27  C   UNL     1      -4.387  -2.112  23.581  0.00  0.00    +0.000 C 
ATOM     28  C   UNL     1      -4.216  -1.471  24.071  0.00  0.00    +0.000 C 
ENDBRANCH  22  23
ENDBRANCH  21  22
ENDBRANCH  20  21
ENDBRANCH  17  18
BRANCH  15  32
ATOM     32  N   UNL     1       0.010   0.743  23.129  0.00  0.00    -0.203 NA
ATOM     33  C   UNL     1       0.731   0.988  23.447  0.00  0.00    +0.265 C 
ATOM     34  O   UNL     1       0.743   1.534  24.066  0.00  0.00    -0.268 OA
BRANCH  33  35
ATOM     35  C   UNL     1       1.437   0.687  23.149  0.00  0.00    +0.058 A 
ATOM     36  C   UNL     1       2.148   1.083  23.293  0.00  0.00    +0.025 A 
ATOM     37  C   UNL     1       2.856   0.782  22.994  0.00  0.00    +0.099 A 
ATOM     38  N   UNL     1       2.854   0.086  22.550  0.00  0.00    -0.242 NA
ATOM     39  C   UNL     1       2.144  -0.309  22.406  0.00  0.00    +0.099 A 
ATOM     40  C   UNL     1       1.436  -0.008  22.705  0.00  0.00    +0.025 A 
ENDBRANCH  33  35
ENDBRANCH  15  32
TORSDOF 10
ENDMDL
MODEL 3
REMARK VINA RESULT:      -9.5      1.977      5.977
REMARK  Name = 
REMARK  10 active torsions:
REMARK  status: ('A' for Active; 'I' for Inactive)
REMARK    1  A    between atoms: O_2  and  C_3
REMARK    2  A    between atoms: C_6  and  S_9
REMARK    3  A    between atoms: S_9  and  N_12
REMARK    4  A    between atoms: C_15  and  N_32
REMARK    5  A    between atoms: C_17  and  C_18
REMARK    6  A    between atoms: N_20  and  C_21
REMARK    7  A    between atoms: C_21  and  C_22
REMARK    8  A    between atoms: C_21  and  C_29
REMARK    9  A    between atoms: C_22  and  C_23
REMARK   10  A    between atoms: C_33  and  C_35
REMARK                            x       y       z     vdW  Elec       q    Type
REMARK                         _______ _______ _______ _____ _____    ______ ____
ROOT
ATOM     12  N   UNL     1      -0.470   0.620  23.780  0.00  0.00    -0.148 NA
ATOM     13  C   UNL     1      -0.148   0.253  23.116  0.00  0.00    +0.098 C 
ATOM     14  C   UNL     1       0.654   0.334  22.948  0.00  0.00    +0.041 C 
ATOM     15  C   UNL     1       1.137   0.782  23.444  0.00  0.00    +0.099 C 
ATOM     16  C   UNL     1       0.815   1.149  24.109  0.00  0.00    +0.049 C 
ATOM     17  C   UNL     1       0.012   1.068  24.277  0.00  0.00    +0.159 C 
ENDROOT
BRANCH  12   9
ATOM      9  S   UNL     1      -1.274   0.539  23.948  0.00  0.00    +0.064 S 
ATOM     10  O   UNL     1      -1.104  -0.089  24.456  0.00  0.00    -0.153 OA
ATOM     11  O   UNL     1      -1.443   1.167  23.441  0.00  0.00    -0.153 OA
BRANCH   9   6
ATOM      3  C   UNL     1      -3.685   0.296  24.452  0.00  0.00    +0.139 A 
ATOM      4  C   UNL     1      -3.432   0.858  23.905  0.00  0.00    +0.038 A 
ATOM      5  C   UNL     1      -2.628   0.939  23.737  0.00  0.00    +0.023 A 
ATOM      6  C   UNL     1      -2.078   0.458  24.116  0.00  0.00    +0.122 A 
ATOM      7  C   UNL     1      -2.329  -0.105  24.664  0.00  0.00    +0.023 A 
ATOM      8  C   UNL     1      -3.133  -0.186  24.831  0.00  0.00    +0.038 A 
BRANCH   3   2
ATOM      1  C   UNL     1      -4.887   0.809  25.029  0.00  0.00    +0.252 C 
ATOM      2  O   UNL     1      -4.489   0.214  24.620  0.00  0.00    -0.471 OA
ENDBRANCH   3   2
ENDBRANCH   9   6
ENDBRANCH  12   9
BRANCH  17  18
ATOM     18  C   UNL     1      -0.310   1.436  24.942  0.00  0.00    +0.258 C 
ATOM     19  O   UNL     1      -0.731   0.992  25.496  0.00  0.00    -0.272 OA
ATOM     20  N   UNL     1      -0.210   2.248  25.054  0.00  0.00    -0.197 NA
BRANCH  20  21
ATOM     21  C   UNL     1      -0.532   2.615  25.719  0.00  0.00    +0.174 C 
BRANCH  21  29
ATOM     29  C   UNL     1      -0.127   2.596  26.438  0.00  0.00    +0.281 C 
ATOM     30  N   UNL     1      -0.521   2.370  27.126  0.00  0.00    -0.086 NA
ATOM     31  O   UNL     1       0.670   2.803  26.467  0.00  0.00    -0.270 OA
ENDBRANCH  21  29
BRANCH  21  22
ATOM     22  C   UNL     1      -1.259   3.001  25.664  0.00  0.00    +0.031 C 
BRANCH  22  23
ATOM     23  C   UNL     1      -1.291   3.789  25.426  0.00  0.00    +0.002 C 
ATOM     24  C   UNL     1      -0.673   4.113  24.987  0.00  0.00    +0.000 C 
ATOM     25  C   UNL     1      -0.705   4.902  24.749  0.00  0.00    +0.000 C 
ATOM     26  C   UNL     1      -1.355   5.368  24.949  0.00  0.00    +0.000 C 
ATOM     27  C   UNL     1      -1.975   5.044  25.389  0.00  0.00    +0.000 C 
ATOM     28  C   UNL     1      -1.942   4.255  25.627  0.00  0.00    +0.000 C 
ENDBRANCH  22  23
ENDBRANCH  21  22
ENDBRANCH  20  21
ENDBRANCH  17  18
BRANCH  15  32
ATOM     32  N   UNL     1       1.941   0.863  23.277  0.00  0.00    -0.203 NA
ATOM     33  C   UNL     1       2.404   0.194  23.144  0.00  0.00    +0.265 C 
ATOM     34  O   UNL     1       2.064  -0.557  23.180  0.00  0.00    -0.268 OA
BRANCH  33  35
ATOM     35  C   UNL     1       3.207   0.275  22.977  0.00  0.00    +0.058 A 
ATOM     36  C   UNL     1       3.761  -0.192  23.372  0.00  0.00    +0.025 A 
ATOM     37  C   UNL     1       4.565  -0.111  23.204  0.00  0.00    +0.099 A 
ATOM     38  N   UNL     1       4.815   0.437  22.640  0.00  0.00    -0.242 NA
ATOM     39  C   UNL     1       4.262   0.904  22.246  0.00  0.00    +0.099 A 
ATOM     40  C   UNL     1       3.458   0.823  22.414  0.00  0.00    +0.025 A 
ENDBRANCH  33  35
ENDBRANCH  15  32
TORSDOF 10
ENDMDL
MODEL 4
REMARK VINA RESULT:      -9.2      1.916      4.659
REMARK  Name = 
REMARK  10 active torsions:
REMARK  status: ('A' for Active; 'I' for Inactive)
REMARK    1  A    between atoms: O_2  and  C_3
REMARK    2  A    between atoms: C_6  and  S_9
REMARK    3  A    between atoms: S_9  and  N_12
REMARK    4  A    between atoms: C_15  and  N_32
REMARK    5  A    between atoms: C_17  and  C_18
REMARK    6  A    between atoms: N_20  and  C_21
REMARK    7  A    between atoms: C_21  and  C_22
REMARK    8  A    between atoms: C_21  and  C_29
REMARK    9  A    between atoms: C_22  and  C_23
REMARK   10  A    between atoms: C_33  and  C_35
REMARK                            x       y       z     vdW  Elec       q    Type
REMARK                         _______ _______ _______ _____ _____    ______ ____
ROOT
ATOM     12  N   UNL     1      -1.590   1.530  24.694  0.00  0.00    -0.148 NA
ATOM     13  C   UNL     1      -1.135   0.924  25.019  0.00  0.00    +0.098 C 
ATOM     14  C   UNL     1      -1.375   0.140  24.941  0.00  0.00    +0.041 C 
ATOM     15  C   UNL     1      -2.072  -0.040  24.539  0.00  0.00    +0.099 C 
ATOM     16  C   UNL     1      -2.528   0.566  24.214  0.00  0.00    +0.049 C 
ATOM     17  C   UNL     1      -2.287   1.350  24.291  0.00  0.00    +0.159 C 
ENDROOT
BRANCH  12   9
ATOM      9  S   UNL     1      -1.349   2.315  24.772  0.00  0.00    +0.064 S 
ATOM     10  O   UNL     1      -1.710   2.353  25.513  0.00  0.00    -0.153 OA
ATOM     11  O   UNL     1      -0.988   2.278  24.031  0.00  0.00    -0.153 OA
BRANCH   9   6
ATOM      3  C   UNL     1      -0.626   4.670  25.006  0.00  0.00    +0.139 A 
ATOM      4  C   UNL     1      -0.345   4.212  24.380  0.00  0.00    +0.038 A 
ATOM      5  C   UNL     1      -0.586   3.427  24.302  0.00  0.00    +0.023 A 
ATOM      6  C   UNL     1      -1.108   3.100  24.850  0.00  0.00    +0.122 A 
ATOM      7  C   UNL     1      -1.389   3.557  25.476  0.00  0.00    +0.023 A 
ATOM      8  C   UNL     1      -1.148   4.342  25.554  0.00  0.00    +0.038 A 
BRANCH   3   2
ATOM      1  C   UNL     1      -0.903   6.068  24.891  0.00  0.00    +0.252 C 
ATOM      2  O   UNL     1      -0.385   5.456  25.084  0.00  0.00    -0.471 OA
ENDBRANCH   3   2
ENDBRANCH   9   6
ENDBRANCH  12   9
BRANCH  17  18
ATOM     18  C   UNL     1      -2.743   1.956  23.966  0.00  0.00    +0.258 C 
ATOM     19  O   UNL     1      -2.398   2.502  23.453  0.00  0.00    -0.272 OA
ATOM     20  N   UNL     1      -3.545   2.016  24.154  0.00  0.00    -0.197 NA
BRANCH  20  21
ATOM     21  C   UNL     1      -4.001   2.622  23.829  0.00  0.00    +0.174 C 
BRANCH  21  29
ATOM     29  C   UNL     1      -3.997   2.749  23.014  0.00  0.00    +0.281 C 
ATOM     30  N   UNL     1      -3.964   3.517  22.717  0.00  0.00    -0.086 NA
ATOM     31  O   UNL     1      -4.026   2.108  22.497  0.00  0.00    -0.270 OA
ENDBRANCH  21  29
BRANCH  21  22
ATOM     22  C   UNL     1      -4.460   3.100  24.320  0.00  0.00    +0.031 C 
BRANCH  22  23
ATOM     23  C   UNL     1      -5.000   2.759  24.840  0.00  0.00    +0.002 C 
ATOM     24  C   UNL     1      -5.517   2.174  24.574  0.00  0.00    +0.000 C 
ATOM     25  C   UNL     1      -6.058   1.833  25.095  0.00  0.00    +0.000 C 
ATOM     26  C   UNL     1      -6.082   2.076  25.883  0.00  0.00    +0.000 C 
ATOM     27  C   UNL     1      -5.564   2.661  26.150  0.00  0.00    +0.000 C 
ATOM     28  C   UNL     1      -5.023   3.002  25.629  0.00  0.00    +0.000 C 
ENDBRANCH  22  23
ENDBRANCH  21  22
ENDBRANCH  20  21
ENDBRANCH  17  18
BRANCH  15  32
ATOM     32  N   UNL     1      -2.313  -0.826  24.461  0.00  0.00    -0.203 NA
ATOM     33  C   UNL     1      -2.942  -1.111  24.912  0.00  0.00    +0.265 C 
ATOM     34  O   UNL     1      -3.329  -0.611  25.443  0.00  0.00    -0.268 OA
BRANCH  33  35
ATOM     35  C   UNL     1      -3.182  -1.896  24.835  0.00  0.00    +0.058 A 
ATOM     36  C   UNL     1      -3.688  -2.113  24.219  0.00  0.00    +0.025 A 
ATOM     37  C   UNL     1      -3.929  -2.898  24.141  0.00  0.00    +0.099 A 
ATOM     38  N   UNL     1      -3.665  -3.467  24.679  0.00  0.00    -0.242 NA
ATOM     39  C   UNL     1      -3.160  -3.249  25.293  0.00  0.00    +0.099 A 
ATOM     40  C   UNL     1      -2.919  -2.464  25.371  0.00  0.00    +0.025 A 
ENDBRANCH  33  35
ENDBRANCH  15  32
TORSDOF 10
ENDMDL
MODEL 5
REMARK VINA RESULT:      -9.1      1.547      3.462
REMARK  Name = 
REMARK  10 active torsions:
REMARK  status: ('A' for Active; 'I' for Inactive)
REMARK    1  A    between atoms: O_2  and  C_3
REMARK    2  A    between atoms: C_6  and  S_9
REMARK    3  A    between atoms: S_9  and  N_12
REMARK    4  A    between atoms: C_15  and  N_32
REMARK    5  A    between atoms: C_17  and  C_18
REMARK    6  A    between atoms: N_20  and  C_21
REMARK    7  A    between atoms: C_21  and  C_22
REMARK    8  A    between atoms: C_21  and  C_29
REMARK    9  A    between atoms: C_22  and  C_23
REMARK   10  A    between atoms: C_33  and  C_35
REMARK                            x       y       z     vdW  Elec       q    Type
REMARK                         _______ _______ _______ _____ _____    ______ ____
ROOT
ATOM     12  N   UNL     1      -1.688   0.547  24.244  0.00  0.00    -0.148 NA
ATOM     13  C   UNL     1      -2.347   0.137  23.963  0.00  0.00    +0.098 C 
ATOM     14  C   UNL     1      -3.097   0.311  24.257  0.00  0.00    +0.041 C 
ATOM     15  C   UNL     1      -3.190   0.894  24.833  0.00  0.00    +0.099 C 
ATOM     16  C   UNL     1      -2.531   1.304  25.114  0.00  0.00    +0.049 C 
ATOM     17  C   UNL     1      -1.781   1.130  24.820  0.00  0.00    +0.159 C 
ENDROOT
BRANCH  12   9
ATOM      9  S   UNL     1      -0.937   0.373  23.950  0.00  0.00    +0.064 S 
ATOM     10  O   UNL     1      -1.035   0.943  23.362  0.00  0.00    -0.153 OA
ATOM     11  O   UNL     1      -0.839  -0.198  24.538  0.00  0.00    -0.153 OA
BRANCH   9   6
ATOM      3  C   UNL     1       1.316  -0.149  23.067  0.00  0.00    +0.139 A 
ATOM      4  C   UNL     1       0.898   0.500  22.776  0.00  0.00    +0.038 A 
ATOM      5  C   UNL     1       0.147   0.674  23.070  0.00  0.00    +0.023 A 
ATOM      6  C   UNL     1      -0.186   0.199  23.656  0.00  0.00    +0.122 A 
ATOM      7  C   UNL     1       0.230  -0.450  23.947  0.00  0.00    +0.023 A 
ATOM      8  C   UNL     1       0.981  -0.624  23.653  0.00  0.00    +0.038 A 
BRANCH   3   2
ATOM      1  C   UNL     1       2.620   0.280  22.672  0.00  0.00    +0.252 C 
ATOM      2  O   UNL     1       2.066  -0.323  22.773  0.00  0.00    -0.471 OA
ENDBRANCH   3   2
ENDBRANCH   9   6
ENDBRANCH  12   9
BRANCH  17  18
ATOM     18  C   UNL     1      -1.122   1.540  25.101  0.00  0.00    +0.258 C 
ATOM     19  O   UNL     1      -0.393   1.159  25.159  0.00  0.00    -0.272 OA
ATOM     20  N   UNL     1      -1.193   2.332  25.325  0.00  0.00    -0.197 NA
BRANCH  20  21
ATOM     21  C   UNL     1      -0.535   2.741  25.606  0.00  0.00    +0.174 C 
BRANCH  21  29
ATOM     29  C   UNL     1      -0.191   2.527  26.324  0.00  0.00    +0.281 C 
ATOM     30  N   UNL     1       0.627   2.437  26.380  0.00  0.00    -0.086 NA
ATOM     31  O   UNL     1      -0.665   2.403  26.987  0.00  0.00    -0.270 OA
ENDBRANCH  21  29
BRANCH  21  22
ATOM     22  C   UNL     1      -0.220   3.365  25.167  0.00  0.00    +0.031 C 
BRANCH  22  23
ATOM     23  C   UNL     1      -0.642   4.069  25.090  0.00  0.00    +0.002 C 
ATOM     24  C   UNL     1      -0.354   4.672  24.606  0.00  0.00    +0.000 C 
ATOM     25  C   UNL     1      -0.776   5.376  24.528  0.00  0.00    +0.000 C 
ATOM     26  C   UNL     1      -1.486   5.479  24.935  0.00  0.00    +0.000 C 
ATOM     27  C   UNL     1      -1.774   4.876  25.420  0.00  0.00    +0.000 C 
ATOM     28  C   UNL     1      -1.352   4.171  25.497  0.00  0.00    +0.000 C 
ENDBRANCH  22  23
ENDBRANCH  21  22
ENDBRANCH  20  21
ENDBRANCH  17  18
BRANCH  15  32
ATOM     32  N   UNL     1      -3.941   1.068  25.127  0.00  0.00    -0.203 NA
ATOM     33  C   UNL     1      -4.390   1.668  24.783  0.00  0.00    +0.265 C 
ATOM     34  O   UNL     1      -4.088   2.095  24.144  0.00  0.00    -0.268 OA
BRANCH  33  35
ATOM     35  C   UNL     1      -5.140   1.842  25.077  0.00  0.00    +0.058 A 
ATOM     36  C   UNL     1      -5.799   1.433  24.794  0.00  0.00    +0.025 A 
ATOM     37  C   UNL     1      -6.550   1.607  25.089  0.00  0.00    +0.099 A 
ATOM     38  N   UNL     1      -6.643   2.190  25.666  0.00  0.00    -0.242 NA
ATOM     39  C   UNL     1      -5.984   2.598  25.948  0.00  0.00    +0.099 A 
ATOM     40  C   UNL     1      -5.233   2.424  25.654  0.00  0.00    +0.025 A 
ENDBRANCH  33  35
ENDBRANCH  15  32
TORSDOF 10
ENDMDL
MODEL 6
REMARK VINA RESULT:      -8.5      1.704      4.171
REMARK  Name = 
REMARK  10 active torsions:
REMARK  status: ('A' for Active; 'I' for Inactive)
REMARK    1  A    between atoms: O_2  and  C_3
REMARK    2  A    between atoms: C_6  and  S_9
REMARK    3  A    between atoms: S_9  and  N_12
REMARK    4  A    between atoms: C_15  and  N_32
REMARK    5  A    between atoms: C_17  and  C_18
REMARK    6  A    between atoms: N_20  and  C_21
REMARK    7  A    between atoms: C_21  and  C_22
REMARK    8  A    between atoms: C_21  and  C_29
REMARK    9  A    between atoms: C_22  and  C_23
REMARK   10  A    between atoms: C_33  and  C_35
REMARK                            x       y       z     vdW  Elec       q    Type
REMARK                         _______ _______ _______ _____ _____    ______ ____
ROOT
ATOM     12  N   UNL     1      -3.061   0.824  24.485  0.00  0.00    -0.148 NA
ATOM     13  C   UNL     1      -3.583   1.417  24.720  0.00  0.00    +0.098 C 
ATOM     14  C   UNL     1      -3.342   2.205  24.712  0.00  0.00    +0.041 C 
ATOM     15  C   UNL     1      -2.579   2.402  24.470  0.00  0.00    +0.099 C 
ATOM     16  C   UNL     1      -2.057   1.808  24.235  0.00  0.00    +0.049 C 
ATOM     17  C   UNL     1      -2.297   1.020  24.243  0.00  0.00    +0.159 C 
ENDROOT
BRANCH  12   9
ATOM      9  S   UNL     1      -3.301   0.035  24.493  0.00  0.00    +0.064 S 
ATOM     10  O   UNL     1      -3.502   0.088  23.694  0.00  0.00    -0.153 OA
ATOM     11  O   UNL     1      -3.101  -0.019  25.291  0.00  0.00    -0.153 OA
BRANCH   9   6
ATOM      3  C   UNL     1      -4.024  -2.332  24.516  0.00  0.00    +0.139 A 
ATOM      4  C   UNL     1      -4.103  -1.883  23.828  0.00  0.00    +0.038 A 
ATOM      5  C   UNL     1      -3.862  -1.094  23.821  0.00  0.00    +0.023 A 
ATOM      6  C   UNL     1      -3.542  -0.754  24.500  0.00  0.00    +0.122 A 
ATOM      7  C   UNL     1      -3.463  -1.203  25.187  0.00  0.00    +0.023 A 
ATOM      8  C   UNL     1      -3.703  -1.992  25.195  0.00  0.00    +0.038 A 
BRANCH   3   2
ATOM      1  C   UNL     1      -3.800  -3.698  24.160  0.00  0.00    +0.252 C 
ATOM      2  O   UNL     1      -4.264  -3.121  24.523  0.00  0.00    -0.471 OA
ENDBRANCH   3   2
ENDBRANCH   9   6
ENDBRANCH  12   9
BRANCH  17  18
ATOM     18  C   UNL     1      -1.774   0.427  24.007  0.00  0.00    +0.258 C 
ATOM     19  O   UNL     1      -2.003  -0.124  23.437  0.00  0.00    -0.272 OA
ATOM     20  N   UNL     1      -1.020   0.384  24.343  0.00  0.00    -0.197 NA
BRANCH  20  21
ATOM     21  C   UNL     1      -0.498  -0.209  24.107  0.00  0.00    +0.174 C 
BRANCH  21  29
ATOM     29  C   UNL     1      -0.328  -0.836  24.616  0.00  0.00    +0.281 C 
ATOM     30  N   UNL     1      -0.299  -1.607  24.326  0.00  0.00    -0.086 NA
ATOM     31  O   UNL     1      -0.187  -0.691  25.415  0.00  0.00    -0.270 OA
ENDBRANCH  21  29
BRANCH  21  22
ATOM     22  C   UNL     1      -0.146  -0.175  23.362  0.00  0.00    +0.031 C 
BRANCH  22  23
ATOM     23  C   UNL     1       0.608   0.146  23.276  0.00  0.00    +0.002 C 
ATOM     24  C   UNL     1       1.179  -0.253  22.834  0.00  0.00    +0.000 C 
ATOM     25  C   UNL     1       1.934   0.068  22.748  0.00  0.00    +0.000 C 
ATOM     26  C   UNL     1       2.119   0.789  23.104  0.00  0.00    +0.000 C 
ATOM     27  C   UNL     1       1.548   1.188  23.547  0.00  0.00    +0.000 C 
ATOM     28  C   UNL     1       0.793   0.867  23.633  0.00  0.00    +0.000 C 
ENDBRANCH  22  23
ENDBRANCH  21  22
ENDBRANCH  20  21
ENDBRANCH  17  18
BRANCH  15  32
ATOM     32  N   UNL     1      -2.338   3.191  24.462  0.00  0.00    -0.203 NA
ATOM     33  C   UNL     1      -1.954   3.512  25.118  0.00  0.00    +0.265 C 
ATOM     34  O   UNL     1      -1.810   3.043  25.782  0.00  0.00    -0.268 OA
BRANCH  33  35
ATOM     35  C   UNL     1      -1.713   4.300  25.110  0.00  0.00    +0.058 A 
ATOM     36  C   UNL     1      -2.242   4.895  25.329  0.00  0.00    +0.025 A 
ATOM     37  C   UNL     1      -2.002   5.684  25.321  0.00  0.00    +0.099 A 
ATOM     38  N   UNL     1      -1.232   5.879  25.095  0.00  0.00    -0.242 NA
ATOM     39  C   UNL     1      -0.704   5.284  24.877  0.00  0.00    +0.099 A 
ATOM     40  C   UNL     1      -0.944   4.495  24.884  0.00  0.00    +0.025 A 
ENDBRANCH  33  35
ENDBRANCH  15  32
TORSDOF 10
ENDMDL
