REMARK  Name = 
REMARK  7 active torsions:
REMARK  status: ('A' for Active; 'I' for Inactive)
REMARK    1  A    between atoms: O_2  and  C_3
REMARK    2  A    between atoms: C_3  and  C_4
REMARK    3  A    between atoms: N_8  and  C_9
REMARK    4  A    between atoms: C_9  and  C_10
REMARK    5  A    between atoms: C_17  and  C_18
REMARK    6  A    between atoms: C_18  and  N_19
REMARK    7  A    between atoms: N_22  and  C_23
REMARK                            x       y       z     vdW  Elec       q    Type
REMARK                         _______ _______ _______ _____ _____    ______ ____
ROOT
ATOM     10  C   UNL     1       1.661  -1.343   0.000  0.00  0.00    +0.032 C 
ATOM     11  C   UNL     1       1.814  -2.106   0.000  0.00  0.00    +0.073 C 
ATOM     12  N   UNL     1       1.065  -1.759   0.000  0.00  0.00    -0.272 NA
ATOM     13  C   UNL     1       1.205  -0.720   0.000  0.00  0.00    +0.072 C 
ATOM     14  C   UNL     1       0.961  -0.114   0.000  0.00  0.00    +0.017 C 
ATOM     15  C   UNL     1       0.923  -1.010   0.000  0.00  0.00    +0.005 C 
ATOM     16  C   UNL     1       0.119  -1.362   0.000  0.00  0.00    +0.018 C 
ATOM     17  C   UNL     1       0.226  -2.118   0.000  0.00  0.00    +0.079 C 
ENDROOT
BRANCH  10   9
ATOM      9  C   UNL     1       2.307  -0.828   0.000  0.00  0.00    +0.073 C 
BRANCH   9   8
ATOM      4  C   UNL     1       2.772   0.566   0.000  0.00  0.00    +0.087 C 
ATOM      5  C   UNL     1       2.403   1.304   0.000  0.00  0.00    +0.020 C 
ATOM      6  C   UNL     1       1.588   1.182   0.000  0.00  0.00    +0.019 C 
ATOM      7  C   UNL     1       1.452   0.368   0.000  0.00  0.00    +0.072 C 
ATOM      8  N   UNL     1       2.184  -0.013   0.000  0.00  0.00    -0.272 NA
BRANCH   4   3
ATOM      3  C   UNL     1       3.586   0.431   0.000  0.00  0.00    +0.158 C 
BRANCH   3   2
ATOM      1  C   UNL     1       4.924   0.932   0.000  0.00  0.00    +0.174 C 
ATOM      2  O   UNL     1       4.110   1.067   0.000  0.00  0.00    -0.350 OA
ENDBRANCH   3   2
ENDBRANCH   4   3
ENDBRANCH   9   8
ENDBRANCH  10   9
BRANCH  17  18
ATOM     18  C   UNL     1      -0.179  -2.836   0.000  0.00  0.00    +0.133 C 
BRANCH  18  19
ATOM     19  N   UNL     1       0.241  -3.546   0.000  0.00  0.00    -0.185 NA
ATOM     20  C   UNL     1      -0.163  -4.265   0.000  0.00  0.00    +0.344 C 
ATOM     21  O   UNL     1      -0.988  -4.274   0.000  0.00  0.00    -0.249 OA
ATOM     22  N   UNL     1       0.257  -4.975   0.000  0.00  0.00    -0.161 NA
BRANCH  22  23
ATOM     23  C   UNL     1      -0.148  -5.694   0.000  0.00  0.00    +0.075 A 
ATOM     24  C   UNL     1       0.272  -6.404   0.000  0.00  0.00    +0.017 A 
ATOM     25  C   UNL     1      -0.133  -7.123   0.000  0.00  0.00    +0.001 A 
ATOM     26  C   UNL     1      -0.958  -7.132   0.000  0.00  0.00    +0.000 A 
ATOM     27  C   UNL     1      -1.378  -6.422   0.000  0.00  0.00    +0.001 A 
ATOM     28  C   UNL     1      -0.973  -5.703   0.000  0.00  0.00    +0.017 A 
ENDBRANCH  22  23
ENDBRANCH  18  19
ENDBRANCH  17  18
TORSDOF 7
