MODEL 1
REMARK VINA RESULT:      -8.5      0.000      0.000
REMARK  Name = 
REMARK  3 active torsions:
REMARK  status: ('A' for Active; 'I' for Inactive)
REMARK    1  A    between atoms: O_2  and  C_3
REMARK    2  A    between atoms: C_6  and  C_7
REMARK    3  A    between atoms: C_7  and  N_8
REMARK                            x       y       z     vdW  Elec       q    Type
REMARK                         _______ _______ _______ _____ _____    ______ ____
ROOT
ATOM      7  C   UNL     1      -3.925   1.137  24.224  0.00  0.00    +0.099 C 
ENDROOT
BRANCH   7   8
ATOM      8  N   UNL     1      -4.351   1.696  24.655  0.00  0.00    -0.265 NA
ATOM      9  C   UNL     1      -5.161   1.553  24.723  0.00  0.00    +0.105 C 
ATOM     10  C   UNL     1      -5.732   2.003  25.115  0.00  0.00    +0.160 C 
ATOM     11  O   UNL     1      -5.633   2.706  25.534  0.00  0.00    -0.350 OA
ATOM     12  C   UNL     1      -4.941   3.134  25.667  0.00  0.00    +0.176 C 
ATOM     13  C   UNL     1      -4.175   2.963  25.412  0.00  0.00    +0.197 C 
ATOM     14  O   UNL     1      -3.594   3.505  25.637  0.00  0.00    -0.219 OA
ATOM     15  C   UNL     1      -3.913   2.323  24.962  0.00  0.00    +0.108 C 
ENDBRANCH   7   8
BRANCH   7   6
ATOM      3  C   UNL     1      -3.667  -1.165  25.095  0.00  0.00    +0.139 A 
ATOM      4  C   UNL     1      -3.196  -0.556  25.391  0.00  0.00    +0.037 A 
ATOM      5  C   UNL     1      -3.282   0.210  25.101  0.00  0.00    +0.000 A 
ATOM      6  C   UNL     1      -3.839   0.370  24.514  0.00  0.00    -0.006 A 
ATOM     16  C   UNL     1      -4.310  -0.239  24.218  0.00  0.00    +0.000 A 
ATOM     17  C   UNL     1      -4.224  -1.005  24.508  0.00  0.00    +0.037 A 
BRANCH   3   2
ATOM      1  C   UNL     1      -3.311  -2.533  24.889  0.00  0.00    +0.252 C 
ATOM      2  O   UNL     1      -3.581  -1.933  25.385  0.00  0.00    -0.471 OA
ENDBRANCH   3   2
ENDBRANCH   7   6
TORSDOF 3
ENDMDL
MODEL 2
REMARK VINA RESULT:      -8.5      1.714      2.195
REMARK  Name = 
REMARK  3 active torsions:
REMARK  status: ('A' for Active; 'I' for Inactive)
REMARK    1  A    between atoms: O_2  and  C_3
REMARK    2  A    between atoms: C_6  and  C_7
REMARK    3  A    between atoms: C_7  and  N_8
REMARK                            x       y       z     vdW  Elec       q    Type
REMARK                         _______ _______ _______ _____ _____    ______ ____
ROOT
ATOM      7  C   UNL     1      -3.975   0.764  24.487  0.00  0.00    +0.099 C 
ENDROOT
BRANCH   7   8
ATOM      8  N   UNL     1      -3.309   1.210  24.294  0.00  0.00    -0.265 NA
ATOM      9  C   UNL     1      -2.817   1.411  24.925  0.00  0.00    +0.105 C 
ATOM     10  C   UNL     1      -2.118   1.848  24.913  0.00  0.00    +0.160 C 
ATOM     11  O   UNL     1      -1.737   2.191  24.268  0.00  0.00    -0.350 OA
ATOM     12  C   UNL     1      -1.961   2.183  23.474  0.00  0.00    +0.176 C 
ATOM     13  C   UNL     1      -2.622   1.829  23.131  0.00  0.00    +0.197 C 
ATOM     14  O   UNL     1      -2.693   1.920  22.313  0.00  0.00    -0.219 OA
ATOM     15  C   UNL     1      -3.222   1.396  23.495  0.00  0.00    +0.108 C 
ENDBRANCH   7   8
BRANCH   7   6
ATOM      3  C   UNL     1      -3.777  -1.683  24.801  0.00  0.00    +0.139 A 
ATOM      4  C   UNL     1      -3.632  -1.173  25.433  0.00  0.00    +0.037 A 
ATOM      5  C   UNL     1      -3.698  -0.358  25.328  0.00  0.00    +0.000 A 
ATOM      6  C   UNL     1      -3.909  -0.052  24.592  0.00  0.00    -0.006 A 
ATOM     16  C   UNL     1      -4.054  -0.562  23.960  0.00  0.00    +0.000 A 
ATOM     17  C   UNL     1      -3.988  -1.377  24.065  0.00  0.00    +0.037 A 
BRANCH   3   2
ATOM      1  C   UNL     1      -3.109  -2.916  24.526  0.00  0.00    +0.252 C 
ATOM      2  O   UNL     1      -3.711  -2.499  24.905  0.00  0.00    -0.471 OA
ENDBRANCH   3   2
ENDBRANCH   7   6
TORSDOF 3
ENDMDL
MODEL 3
REMARK VINA RESULT:      -8.0      1.343      3.624
REMARK  Name = 
REMARK  3 active torsions:
REMARK  status: ('A' for Active; 'I' for Inactive)
REMARK    1  A    between atoms: O_2  and  C_3
REMARK    2  A    between atoms: C_6  and  C_7
REMARK    3  A    between atoms: C_7  and  N_8
REMARK                            x       y       z     vdW  Elec       q    Type
REMARK                         _______ _______ _______ _____ _____    ______ ____
ROOT
ATOM      7  C   UNL     1      -3.593   0.336  24.118  0.00  0.00    +0.099 C 
ENDROOT
BRANCH   7   8
ATOM      8  N   UNL     1      -3.057  -0.005  24.644  0.00  0.00    -0.265 NA
ATOM      9  C   UNL     1      -3.367  -0.580  25.149  0.00  0.00    +0.105 C 
ATOM     10  C   UNL     1      -2.978  -1.017  25.730  0.00  0.00    +0.160 C 
ATOM     11  O   UNL     1      -2.184  -0.989  25.950  0.00  0.00    -0.350 OA
ATOM     12  C   UNL     1      -1.581  -0.517  25.644  0.00  0.00    +0.176 C 
ATOM     13  C   UNL     1      -1.625   0.045  25.041  0.00  0.00    +0.197 C 
ATOM     14  O   UNL     1      -0.918   0.430  24.859  0.00  0.00    -0.219 OA
ATOM     15  C   UNL     1      -2.282   0.272  24.596  0.00  0.00    +0.108 C 
ENDBRANCH   7   8
BRANCH   7   6
ATOM      3  C   UNL     1      -4.969   2.265  24.832  0.00  0.00    +0.139 A 
ATOM      4  C   UNL     1      -4.269   2.389  24.413  0.00  0.00    +0.037 A 
ATOM      5  C   UNL     1      -3.811   1.747  24.176  0.00  0.00    +0.000 A 
ATOM      6  C   UNL     1      -4.051   0.979  24.356  0.00  0.00    -0.006 A 
ATOM     16  C   UNL     1      -4.751   0.855  24.775  0.00  0.00    +0.000 A 
ATOM     17  C   UNL     1      -5.209   1.497  25.012  0.00  0.00    +0.037 A 
BRANCH   3   2
ATOM      1  C   UNL     1      -5.226   3.329  25.749  0.00  0.00    +0.252 C 
ATOM      2  O   UNL     1      -5.428   2.908  25.070  0.00  0.00    -0.471 OA
ENDBRANCH   3   2
ENDBRANCH   7   6
TORSDOF 3
ENDMDL
