MODEL 1
REMARK VINA RESULT:     -13.3      0.000      0.000
REMARK  Name = 
REMARK  4 active torsions:
REMARK  status: ('A' for Active; 'I' for Inactive)
REMARK    1  A    between atoms: C_2  and  C_26
REMARK    2  A    between atoms: N_3  and  C_4
REMARK    3  A    between atoms: C_8  and  N_12
REMARK    4  A    between atoms: C_16  and  C_17
REMARK                            x       y       z     vdW  Elec       q    Type
REMARK                         _______ _______ _______ _____ _____    ______ ____
ROOT
ATOM      4  C   UNL     1      -3.805   0.660  24.484  0.00  0.00    +0.155 C 
ATOM      5  C   UNL     1      -4.287   0.984  25.070  0.00  0.00    +0.166 C 
ATOM      6  O   UNL     1      -4.125   1.792  25.114  0.00  0.00    -0.350 OA
ATOM      7  C   UNL     1      -3.543   1.967  24.556  0.00  0.00    +0.169 C 
ATOM      8  C   UNL     1      -3.084   2.574  24.239  0.00  0.00    +0.167 C 
ATOM      9  C   UNL     1      -2.602   2.250  23.654  0.00  0.00    +0.169 C 
ATOM     10  O   UNL     1      -2.764   1.443  23.609  0.00  0.00    -0.350 OA
ATOM     11  C   UNL     1      -3.345   1.267  24.167  0.00  0.00    +0.167 C 
ENDROOT
BRANCH   8  12
ATOM     12  N   UNL     1      -3.103   3.367  24.468  0.00  0.00    -0.210 N 
ATOM     13  N   UNL     1      -3.742   3.882  24.379  0.00  0.00    -0.043 NA
ATOM     14  N   UNL     1      -3.521   4.617  24.681  0.00  0.00    -0.023 NA
ATOM     15  N   UNL     1      -2.745   4.556  24.956  0.00  0.00    -0.108 NA
ATOM     16  C   UNL     1      -2.487   3.784  24.825  0.00  0.00    +0.184 A 
BRANCH  16  17
ATOM     17  C   UNL     1      -1.744   3.482  25.016  0.00  0.00    +0.041 A 
ATOM     18  C   UNL     1      -1.601   3.186  25.772  0.00  0.00    +0.043 A 
ATOM     19  C   UNL     1      -0.857   2.884  25.964  0.00  0.00    +0.177 A 
ATOM     20  C   UNL     1      -0.257   2.878  25.398  0.00  0.00    +0.176 A 
ATOM     21  O   UNL     1       0.415   2.548  25.743  0.00  0.00    -0.435 OA
ATOM     22  C   UNL     1       0.230   2.350  26.522  0.00  0.00    +0.429 C 
ATOM     23  O   UNL     1      -0.556   2.558  26.658  0.00  0.00    -0.435 OA
ATOM     24  C   UNL     1      -0.400   3.174  24.641  0.00  0.00    +0.040 A 
ATOM     25  C   UNL     1      -1.143   3.476  24.450  0.00  0.00    +0.006 A 
ENDBRANCH  16  17
ENDBRANCH   8  12
BRANCH   4   3
ATOM      1  O   UNL     1      -3.945  -0.531  25.618  0.00  0.00    -0.268 OA
ATOM      2  C   UNL     1      -3.856  -0.728  24.822  0.00  0.00    +0.265 C 
ATOM      3  N   UNL     1      -3.786  -0.132  24.255  0.00  0.00    -0.198 NA
BRANCH   2  26
ATOM     26  C   UNL     1      -3.836  -1.520  24.592  0.00  0.00    +0.055 A 
ATOM     27  C   UNL     1      -3.385  -2.062  25.020  0.00  0.00    +0.005 A 
ATOM     28  C   UNL     1      -3.365  -2.854  24.791  0.00  0.00    +0.000 A 
ATOM     29  C   UNL     1      -3.796  -3.104  24.133  0.00  0.00    +0.000 A 
ATOM     30  C   UNL     1      -4.247  -2.562  23.705  0.00  0.00    +0.000 A 
ATOM     31  C   UNL     1      -4.267  -1.770  23.935  0.00  0.00    +0.005 A 
ENDBRANCH   2  26
ENDBRANCH   4   3
TORSDOF 4
ENDMDL
MODEL 2
REMARK VINA RESULT:     -13.0      1.466      2.493
REMARK  Name = 
REMARK  4 active torsions:
REMARK  status: ('A' for Active; 'I' for Inactive)
REMARK    1  A    between atoms: C_2  and  C_26
REMARK    2  A    between atoms: N_3  and  C_4
REMARK    3  A    between atoms: C_8  and  N_12
REMARK    4  A    between atoms: C_16  and  C_17
REMARK                            x       y       z     vdW  Elec       q    Type
REMARK                         _______ _______ _______ _____ _____    ______ ____
ROOT
ATOM      4  C   UNL     1      -2.150   0.225  24.744  0.00  0.00    +0.155 C 
ATOM      5  C   UNL     1      -1.795   0.344  25.480  0.00  0.00    +0.166 C 
ATOM      6  O   UNL     1      -1.571   1.136  25.529  0.00  0.00    -0.350 OA
ATOM      7  C   UNL     1      -1.787   1.508  24.825  0.00  0.00    +0.169 C 
ATOM      8  C   UNL     1      -1.783   2.226  24.421  0.00  0.00    +0.167 C 
ATOM      9  C   UNL     1      -2.138   2.108  23.686  0.00  0.00    +0.169 C 
ATOM     10  O   UNL     1      -2.362   1.316  23.636  0.00  0.00    -0.350 OA
ATOM     11  C   UNL     1      -2.146   0.944  24.340  0.00  0.00    +0.167 C 
ENDROOT
BRANCH   8  12
ATOM     12  N   UNL     1      -1.477   2.939  24.702  0.00  0.00    -0.210 N 
ATOM     13  N   UNL     1      -0.677   3.120  24.798  0.00  0.00    -0.043 NA
ATOM     14  N   UNL     1      -0.622   3.888  25.092  0.00  0.00    -0.023 NA
ATOM     15  N   UNL     1      -1.388   4.183  25.178  0.00  0.00    -0.108 NA
ATOM     16  C   UNL     1      -1.916   3.597  24.938  0.00  0.00    +0.184 A 
BRANCH  16  17
ATOM     17  C   UNL     1      -2.738   3.658  24.933  0.00  0.00    +0.041 A 
ATOM     18  C   UNL     1      -3.169   3.473  25.611  0.00  0.00    +0.043 A 
ATOM     19  C   UNL     1      -3.992   3.533  25.607  0.00  0.00    +0.177 A 
ATOM     20  C   UNL     1      -4.384   3.779  24.924  0.00  0.00    +0.176 A 
ATOM     21  O   UNL     1      -5.193   3.787  25.083  0.00  0.00    -0.435 OA
ATOM     22  C   UNL     1      -5.302   3.545  25.864  0.00  0.00    +0.429 C 
ATOM     23  O   UNL     1      -4.560   3.389  26.187  0.00  0.00    -0.435 OA
ATOM     24  C   UNL     1      -3.953   3.964  24.245  0.00  0.00    +0.040 A 
ATOM     25  C   UNL     1      -3.130   3.904  24.250  0.00  0.00    +0.006 A 
ENDBRANCH  16  17
ENDBRANCH   8  12
BRANCH   4   3
ATOM      1  O   UNL     1      -3.281  -0.593  25.624  0.00  0.00    -0.268 OA
ATOM      2  C   UNL     1      -3.022  -0.896  24.902  0.00  0.00    +0.265 C 
ATOM      3  N   UNL     1      -2.456  -0.487  24.463  0.00  0.00    -0.198 NA
BRANCH   2  26
ATOM     26  C   UNL     1      -3.327  -1.608  24.619  0.00  0.00    +0.055 A 
ATOM     27  C   UNL     1      -3.969  -1.604  24.101  0.00  0.00    +0.005 A 
ATOM     28  C   UNL     1      -4.275  -2.316  23.817  0.00  0.00    +0.000 A 
ATOM     29  C   UNL     1      -3.939  -3.032  24.053  0.00  0.00    +0.000 A 
ATOM     30  C   UNL     1      -3.298  -3.036  24.572  0.00  0.00    +0.000 A 
ATOM     31  C   UNL     1      -2.992  -2.324  24.855  0.00  0.00    +0.005 A 
ENDBRANCH   2  26
ENDBRANCH   4   3
TORSDOF 4
ENDMDL
MODEL 3
REMARK VINA RESULT:     -11.7      2.016      5.605
REMARK  Name = 
REMARK  4 active torsions:
REMARK  status: ('A' for Active; 'I' for Inactive)
REMARK    1  A    between atoms: C_2  and  C_26
REMARK    2  A    between atoms: N_3  and  C_4
REMARK    3  A    between atoms: C_8  and  N_12
REMARK    4  A    between atoms: C_16  and  C_17
REMARK                            x       y       z     vdW  Elec       q    Type
REMARK                         _______ _______ _______ _____ _____    ______ ____
ROOT
ATOM      4  C   UNL     1      -0.913   1.846  25.215  0.00  0.00    +0.155 C 
ATOM      5  C   UNL     1      -0.600   1.592  25.934  0.00  0.00    +0.166 C 
ATOM      6  O   UNL     1      -0.542   0.769  25.910  0.00  0.00    -0.350 OA
ATOM      7  C   UNL     1      -0.819   0.515  25.176  0.00  0.00    +0.169 C 
ATOM      8  C   UNL     1      -0.954  -0.150  24.708  0.00  0.00    +0.167 C 
ATOM      9  C   UNL     1      -1.268   0.104  23.988  0.00  0.00    +0.169 C 
ATOM     10  O   UNL     1      -1.326   0.926  24.012  0.00  0.00    -0.350 OA
ATOM     11  C   UNL     1      -1.049   1.181  24.746  0.00  0.00    +0.167 C 
ENDROOT
BRANCH   8  12
ATOM     12  N   UNL     1      -0.803  -0.932  24.921  0.00  0.00    -0.210 N 
ATOM     13  N   UNL     1      -0.058  -1.270  25.034  0.00  0.00    -0.043 NA
ATOM     14  N   UNL     1      -0.164  -2.060  25.241  0.00  0.00    -0.023 NA
ATOM     15  N   UNL     1      -0.975  -2.213  25.257  0.00  0.00    -0.108 NA
ATOM     16  C   UNL     1      -1.370  -1.517  25.059  0.00  0.00    +0.184 A 
BRANCH  16  17
ATOM     17  C   UNL     1      -2.187  -1.420  25.008  0.00  0.00    +0.041 A 
ATOM     18  C   UNL     1      -2.575  -1.559  24.293  0.00  0.00    +0.043 A 
ATOM     19  C   UNL     1      -3.393  -1.463  24.242  0.00  0.00    +0.177 A 
ATOM     20  C   UNL     1      -3.823  -1.228  24.905  0.00  0.00    +0.176 A 
ATOM     21  O   UNL     1      -4.617  -1.178  24.690  0.00  0.00    -0.435 OA
ATOM     22  C   UNL     1      -4.679  -1.383  23.894  0.00  0.00    +0.429 C 
ATOM     23  O   UNL     1      -3.922  -1.558  23.617  0.00  0.00    -0.435 OA
ATOM     24  C   UNL     1      -3.435  -1.089  25.621  0.00  0.00    +0.040 A 
ATOM     25  C   UNL     1      -2.617  -1.185  25.671  0.00  0.00    +0.006 A 
ENDBRANCH  16  17
ENDBRANCH   8  12
BRANCH   4   3
ATOM      1  O   UNL     1      -0.996   3.018  26.373  0.00  0.00    -0.268 OA
ATOM      2  C   UNL     1      -1.106   3.214  25.580  0.00  0.00    +0.265 C 
ATOM      3  N   UNL     1      -1.064   2.628  25.001  0.00  0.00    -0.198 NA
BRANCH   2  26
ATOM     26  C   UNL     1      -1.258   3.996  25.365  0.00  0.00    +0.055 A 
ATOM     27  C   UNL     1      -1.996   4.330  25.518  0.00  0.00    +0.005 A 
ATOM     28  C   UNL     1      -2.149   5.112  25.303  0.00  0.00    +0.000 A 
ATOM     29  C   UNL     1      -1.561   5.560  24.935  0.00  0.00    +0.000 A 
ATOM     30  C   UNL     1      -0.823   5.226  24.783  0.00  0.00    +0.000 A 
ATOM     31  C   UNL     1      -0.671   4.444  24.998  0.00  0.00    +0.005 A 
ENDBRANCH   2  26
ENDBRANCH   4   3
TORSDOF 4
ENDMDL
MODEL 4
REMARK VINA RESULT:     -11.4      2.507      4.651
REMARK  Name = 
REMARK  4 active torsions:
REMARK  status: ('A' for Active; 'I' for Inactive)
REMARK    1  A    between atoms: C_2  and  C_26
REMARK    2  A    between atoms: N_3  and  C_4
REMARK    3  A    between atoms: C_8  and  N_12
REMARK    4  A    between atoms: C_16  and  C_17
REMARK                            x       y       z     vdW  Elec       q    Type
REMARK                         _______ _______ _______ _____ _____    ______ ____
ROOT
ATOM      4  C   UNL     1      -2.486   1.992  24.323  0.00  0.00    +0.155 C 
ATOM      5  C   UNL     1      -2.407   1.945  23.503  0.00  0.00    +0.166 C 
ATOM      6  O   UNL     1      -1.735   1.496  23.337  0.00  0.00    -0.350 OA
ATOM      7  C   UNL     1      -1.398   1.265  24.053  0.00  0.00    +0.169 C 
ATOM      8  C   UNL     1      -0.775   0.846  24.393  0.00  0.00    +0.167 C 
ATOM      9  C   UNL     1      -0.854   0.893  25.213  0.00  0.00    +0.169 C 
ATOM     10  O   UNL     1      -1.525   1.341  25.380  0.00  0.00    -0.350 OA
ATOM     11  C   UNL     1      -1.862   1.572  24.663  0.00  0.00    +0.167 C 
ENDROOT
BRANCH   8  12
ATOM     12  N   UNL     1      -0.178   0.449  23.985  0.00  0.00    -0.210 N 
ATOM     13  N   UNL     1       0.425   0.800  23.545  0.00  0.00    -0.043 NA
ATOM     14  N   UNL     1       0.897   0.200  23.233  0.00  0.00    -0.023 NA
ATOM     15  N   UNL     1       0.586  -0.523  23.481  0.00  0.00    -0.108 NA
ATOM     16  C   UNL     1      -0.078  -0.370  23.946  0.00  0.00    +0.184 A 
BRANCH  16  17
ATOM     17  C   UNL     1      -0.558  -0.934  24.307  0.00  0.00    +0.041 A 
ATOM     18  C   UNL     1      -1.201  -1.251  23.899  0.00  0.00    +0.043 A 
ATOM     19  C   UNL     1      -1.681  -1.817  24.261  0.00  0.00    +0.177 A 
ATOM     20  C   UNL     1      -1.518  -2.065  25.030  0.00  0.00    +0.176 A 
ATOM     21  O   UNL     1      -2.084  -2.625  25.243  0.00  0.00    -0.435 OA
ATOM     22  C   UNL     1      -2.597  -2.724  24.605  0.00  0.00    +0.429 C 
ATOM     23  O   UNL     1      -2.347  -2.224  23.998  0.00  0.00    -0.435 OA
ATOM     24  C   UNL     1      -0.875  -1.747  25.439  0.00  0.00    +0.040 A 
ATOM     25  C   UNL     1      -0.395  -1.182  25.077  0.00  0.00    +0.006 A 
ENDBRANCH  16  17
ENDBRANCH   8  12
BRANCH   4   3
ATOM      1  O   UNL     1      -4.059   1.824  23.855  0.00  0.00    -0.268 OA
ATOM      2  C   UNL     1      -3.869   2.305  24.498  0.00  0.00    +0.265 C 
ATOM      3  N   UNL     1      -3.082   2.388  24.732  0.00  0.00    -0.198 NA
BRANCH   2  26
ATOM     26  C   UNL     1      -4.465   2.702  24.907  0.00  0.00    +0.055 A 
ATOM     27  C   UNL     1      -5.080   2.276  25.255  0.00  0.00    +0.005 A 
ATOM     28  C   UNL     1      -5.677   2.673  25.664  0.00  0.00    +0.000 A 
ATOM     29  C   UNL     1      -5.658   3.495  25.726  0.00  0.00    +0.000 A 
ATOM     30  C   UNL     1      -5.042   3.921  25.379  0.00  0.00    +0.000 A 
ATOM     31  C   UNL     1      -4.446   3.524  24.969  0.00  0.00    +0.005 A 
ENDBRANCH   2  26
ENDBRANCH   4   3
TORSDOF 4
ENDMDL
