MODEL 1
REMARK VINA RESULT:     -12.5      0.000      0.000
REMARK  Name = 
REMARK  4 active torsions:
REMARK  status: ('A' for Active; 'I' for Inactive)
REMARK    1  A    between atoms: C_2  and  C_3
REMARK    2  A    between atoms: C_5  and  C_6
REMARK    3  A    between atoms: C_6  and  N_7
REMARK    4  A    between atoms: C_10  and  C_12
REMARK                            x       y       z     vdW  Elec       q    Type
REMARK                         _______ _______ _______ _____ _____    ______ ____
ROOT
ATOM      7  N   UNL     1      -4.309   2.176  24.587  0.00  0.00    -0.269 NA
ATOM      8  C   UNL     1      -5.025   1.997  24.957  0.00  0.00    +0.073 C 
ATOM      9  C   UNL     1      -5.072   1.177  25.039  0.00  0.00    +0.025 C 
ATOM     10  C   UNL     1      -4.385   0.849  24.719  0.00  0.00    +0.064 C 
ATOM     11  C   UNL     1      -3.914   1.466  24.440  0.00  0.00    +0.079 C 
ENDROOT
BRANCH  10  12
ATOM     12  C   UNL     1      -4.203   0.046  24.684  0.00  0.00    +0.089 A 
ATOM     13  N   UNL     1      -4.414  -0.474  24.080  0.00  0.00    -0.243 NA
ATOM     14  C   UNL     1      -4.119  -1.220  24.270  0.00  0.00    +0.087 A 
ATOM     15  C   UNL     1      -3.724  -1.162  24.993  0.00  0.00    +0.048 A 
ATOM     16  S   UNL     1      -3.776  -0.380  25.249  0.00  0.00    -0.071 S 
ATOM     17  C   UNL     1      -3.369  -1.829  25.323  0.00  0.00    +0.008 A 
ATOM     18  C   UNL     1      -3.408  -2.554  24.933  0.00  0.00    +0.001 A 
ATOM     19  C   UNL     1      -3.802  -2.612  24.211  0.00  0.00    +0.002 A 
ATOM     20  C   UNL     1      -4.158  -1.946  23.879  0.00  0.00    +0.020 A 
ENDBRANCH  10  12
BRANCH   7   6
ATOM      6  C   UNL     1      -4.036   2.931  24.397  0.00  0.00    +0.099 C 
BRANCH   6   5
ATOM      3  C   UNL     1      -2.268   3.822  25.315  0.00  0.00    +0.068 A 
ATOM      4  C   UNL     1      -2.747   3.411  24.784  0.00  0.00    +0.007 A 
ATOM      5  C   UNL     1      -3.557   3.342  24.928  0.00  0.00    -0.005 A 
ATOM     21  C   UNL     1      -3.887   3.683  25.603  0.00  0.00    -0.003 A 
ATOM     22  C   UNL     1      -3.407   4.094  26.134  0.00  0.00    +0.000 A 
ATOM     23  C   UNL     1      -2.598   4.164  25.990  0.00  0.00    +0.010 A 
BRANCH   3   2
ATOM      1  N   UNL     1      -0.650   3.962  25.026  0.00  0.00    -0.191 NA
ATOM      2  C   UNL     1      -1.458   3.892  25.171  0.00  0.00    +0.100 C 
ENDBRANCH   3   2
ENDBRANCH   6   5
ENDBRANCH   7   6
TORSDOF 4
ENDMDL
MODEL 2
REMARK VINA RESULT:     -11.7      1.376      4.963
REMARK  Name = 
REMARK  4 active torsions:
REMARK  status: ('A' for Active; 'I' for Inactive)
REMARK    1  A    between atoms: C_2  and  C_3
REMARK    2  A    between atoms: C_5  and  C_6
REMARK    3  A    between atoms: C_6  and  N_7
REMARK    4  A    between atoms: C_10  and  C_12
REMARK                            x       y       z     vdW  Elec       q    Type
REMARK                         _______ _______ _______ _____ _____    ______ ____
ROOT
ATOM      7  N   UNL     1      -3.913   0.722  24.966  0.00  0.00    -0.269 NA
ATOM      8  C   UNL     1      -4.295   1.100  24.340  0.00  0.00    +0.073 C 
ATOM      9  C   UNL     1      -3.925   1.827  24.217  0.00  0.00    +0.025 C 
ATOM     10  C   UNL     1      -3.314   1.899  24.768  0.00  0.00    +0.064 C 
ATOM     11  C   UNL     1      -3.307   1.216  25.231  0.00  0.00    +0.079 C 
ENDROOT
BRANCH  10  12
ATOM     12  C   UNL     1      -2.801   2.541  24.843  0.00  0.00    +0.089 A 
ATOM     13  N   UNL     1      -1.998   2.544  24.656  0.00  0.00    -0.243 NA
ATOM     14  C   UNL     1      -1.702   3.297  24.815  0.00  0.00    +0.087 A 
ATOM     15  C   UNL     1      -2.323   3.759  25.100  0.00  0.00    +0.048 A 
ATOM     16  S   UNL     1      -3.002   3.292  25.118  0.00  0.00    -0.071 S 
ATOM     17  C   UNL     1      -2.188   4.547  25.307  0.00  0.00    +0.008 A 
ATOM     18  C   UNL     1      -1.434   4.871  25.229  0.00  0.00    +0.001 A 
ATOM     19  C   UNL     1      -0.814   4.408  24.944  0.00  0.00    +0.002 A 
ATOM     20  C   UNL     1      -0.947   3.621  24.736  0.00  0.00    +0.020 A 
ENDBRANCH  10  12
BRANCH   7   6
ATOM      6  C   UNL     1      -4.104  -0.019  25.274  0.00  0.00    +0.099 C 
BRANCH   6   5
ATOM      3  C   UNL     1      -2.976  -1.749  24.567  0.00  0.00    +0.068 A 
ATOM      4  C   UNL     1      -3.174  -1.065  24.984  0.00  0.00    +0.007 A 
ATOM      5  C   UNL     1      -3.905  -0.703  24.857  0.00  0.00    -0.005 A 
ATOM     21  C   UNL     1      -4.437  -1.024  24.314  0.00  0.00    -0.003 A 
ATOM     22  C   UNL     1      -4.237  -1.708  23.897  0.00  0.00    +0.000 A 
ATOM     23  C   UNL     1      -3.507  -2.070  24.024  0.00  0.00    +0.010 A 
BRANCH   3   2
ATOM      1  N   UNL     1      -1.515  -2.472  24.821  0.00  0.00    -0.191 NA
ATOM      2  C   UNL     1      -2.245  -2.111  24.694  0.00  0.00    +0.100 C 
ENDBRANCH   3   2
ENDBRANCH   6   5
ENDBRANCH   7   6
TORSDOF 4
ENDMDL
MODEL 3
REMARK VINA RESULT:     -11.3      1.787      2.543
REMARK  Name = 
REMARK  4 active torsions:
REMARK  status: ('A' for Active; 'I' for Inactive)
REMARK    1  A    between atoms: C_2  and  C_3
REMARK    2  A    between atoms: C_5  and  C_6
REMARK    3  A    between atoms: C_6  and  N_7
REMARK    4  A    between atoms: C_10  and  C_12
REMARK                            x       y       z     vdW  Elec       q    Type
REMARK                         _______ _______ _______ _____ _____    ______ ____
ROOT
ATOM      7  N   UNL     1      -0.782   1.454  25.276  0.00  0.00    -0.269 NA
ATOM      8  C   UNL     1      -0.381   1.206  24.599  0.00  0.00    +0.073 C 
ATOM      9  C   UNL     1      -0.768   0.541  24.302  0.00  0.00    +0.025 C 
ATOM     10  C   UNL     1      -1.409   0.377  24.796  0.00  0.00    +0.064 C 
ATOM     11  C   UNL     1      -1.417   0.941  25.397  0.00  0.00    +0.079 C 
ENDROOT
BRANCH  10  12
ATOM     12  C   UNL     1      -1.946  -0.242  24.703  0.00  0.00    +0.089 A 
ATOM     13  N   UNL     1      -2.720  -0.176  24.426  0.00  0.00    -0.243 NA
ATOM     14  C   UNL     1      -3.055  -0.929  24.424  0.00  0.00    +0.087 A 
ATOM     15  C   UNL     1      -2.489  -1.461  24.700  0.00  0.00    +0.048 A 
ATOM     16  S   UNL     1      -1.803  -1.037  24.873  0.00  0.00    -0.071 S 
ATOM     17  C   UNL     1      -2.672  -2.264  24.758  0.00  0.00    +0.008 A 
ATOM     18  C   UNL     1      -3.419  -2.534  24.540  0.00  0.00    +0.001 A 
ATOM     19  C   UNL     1      -3.986  -2.001  24.264  0.00  0.00    +0.002 A 
ATOM     20  C   UNL     1      -3.804  -1.199  24.205  0.00  0.00    +0.020 A 
ENDBRANCH  10  12
BRANCH   7   6
ATOM      6  C   UNL     1      -0.584   2.100  25.748  0.00  0.00    +0.099 C 
BRANCH   6   5
ATOM      3  C   UNL     1      -1.916   3.828  25.698  0.00  0.00    +0.068 A 
ATOM      4  C   UNL     1      -1.616   3.080  25.875  0.00  0.00    +0.007 A 
ATOM      5  C   UNL     1      -0.884   2.848  25.572  0.00  0.00    -0.005 A 
ATOM     21  C   UNL     1      -0.453   3.363  25.094  0.00  0.00    -0.003 A 
ATOM     22  C   UNL     1      -0.754   4.112  24.918  0.00  0.00    +0.000 A 
ATOM     23  C   UNL     1      -1.485   4.343  25.220  0.00  0.00    +0.010 A 
BRANCH   3   2
ATOM      1  N   UNL     1      -3.380   4.291  26.303  0.00  0.00    -0.191 NA
ATOM      2  C   UNL     1      -2.648   4.060  26.001  0.00  0.00    +0.100 C 
ENDBRANCH   3   2
ENDBRANCH   6   5
ENDBRANCH   7   6
TORSDOF 4
ENDMDL
MODEL 4
REMARK VINA RESULT:     -10.8      1.651      4.729
REMARK  Name = 
REMARK  4 active torsions:
REMARK  status: ('A' for Active; 'I' for Inactive)
REMARK    1  A    between atoms: C_2  and  C_3
REMARK    2  A    between atoms: C_5  and  C_6
REMARK    3  A    between atoms: C_6  and  N_7
REMARK    4  A    between atoms: C_10  and  C_12
REMARK                            x       y       z     vdW  Elec       q    Type
REMARK                         _______ _______ _______ _____ _____    ______ ____
ROOT
ATOM      7  N   UNL     1      -3.962  -0.853  25.081  0.00  0.00    -0.269 NA
ATOM      8  C   UNL     1      -4.374  -0.838  24.366  0.00  0.00    +0.073 C 
ATOM      9  C   UNL     1      -4.642  -0.067  24.243  0.00  0.00    +0.025 C 
ATOM     10  C   UNL     1      -4.396   0.394  24.882  0.00  0.00    +0.064 C 
ATOM     11  C   UNL     1      -3.976  -0.092  25.399  0.00  0.00    +0.079 C 
ENDROOT
BRANCH  10  12
ATOM     12  C   UNL     1      -4.544   1.199  24.985  0.00  0.00    +0.089 A 
ATOM     13  N   UNL     1      -5.192   1.527  25.376  0.00  0.00    -0.243 NA
ATOM     14  C   UNL     1      -5.119   2.347  25.347  0.00  0.00    +0.087 A 
ATOM     15  C   UNL     1      -4.425   2.527  24.938  0.00  0.00    +0.048 A 
ATOM     16  S   UNL     1      -4.070   1.818  24.713  0.00  0.00    -0.071 S 
ATOM     17  C   UNL     1      -4.208   3.315  24.822  0.00  0.00    +0.008 A 
ATOM     18  C   UNL     1      -4.682   3.922  25.116  0.00  0.00    +0.001 A 
ATOM     19  C   UNL     1      -5.375   3.742  25.525  0.00  0.00    +0.002 A 
ATOM     20  C   UNL     1      -5.594   2.955  25.641  0.00  0.00    +0.020 A 
ENDBRANCH  10  12
BRANCH   7   6
ATOM      6  C   UNL     1      -3.601  -1.513  25.418  0.00  0.00    +0.099 C 
BRANCH   6   5
ATOM      3  C   UNL     1      -1.549  -1.827  24.744  0.00  0.00    +0.068 A 
ATOM      4  C   UNL     1      -2.206  -1.486  25.107  0.00  0.00    +0.007 A 
ATOM      5  C   UNL     1      -2.943  -1.854  25.054  0.00  0.00    -0.005 A 
ATOM     21  C   UNL     1      -3.022  -2.562  24.639  0.00  0.00    -0.003 A 
ATOM     22  C   UNL     1      -2.364  -2.903  24.275  0.00  0.00    +0.000 A 
ATOM     23  C   UNL     1      -1.628  -2.535  24.328  0.00  0.00    +0.010 A 
BRANCH   3   2
ATOM      1  N   UNL     1      -0.076  -1.091  24.849  0.00  0.00    -0.191 NA
ATOM      2  C   UNL     1      -0.812  -1.459  24.796  0.00  0.00    +0.100 C 
ENDBRANCH   3   2
ENDBRANCH   6   5
ENDBRANCH   7   6
TORSDOF 4
ENDMDL
