MODEL 1
REMARK VINA RESULT:     -11.4      0.000      0.000
REMARK  Name = 
REMARK  3 active torsions:
REMARK  status: ('A' for Active; 'I' for Inactive)
REMARK    1  A    between atoms: S_2  and  N_5
REMARK    2  A    between atoms: C_10  and  C_11
REMARK    3  A    between atoms: N_13  and  C_14
REMARK                            x       y       z     vdW  Elec       q    Type
REMARK                         _______ _______ _______ _____ _____    ______ ____
ROOT
ATOM      5  N   UNL     1      -1.787   1.456  24.656  0.00  0.00    -0.148 NA
ATOM      6  C   UNL     1      -1.541   2.220  24.847  0.00  0.00    +0.117 C 
ATOM      7  C   UNL     1      -2.097   2.791  25.060  0.00  0.00    +0.114 C 
ATOM      8  N   UNL     1      -2.899   2.598  25.081  0.00  0.00    -0.261 N 
ATOM      9  C   UNL     1      -3.144   1.834  24.890  0.00  0.00    +0.122 C 
ATOM     10  C   UNL     1      -2.588   1.263  24.677  0.00  0.00    +0.177 C 
ATOM     21  C   UNL     1      -3.455   3.168  25.293  0.00  0.00    +0.307 C 
ATOM     22  O   UNL     1      -3.210   3.933  25.485  0.00  0.00    -0.252 OA
ATOM     23  N   UNL     1      -4.257   2.976  25.315  0.00  0.00    -0.259 N 
ATOM     24  C   UNL     1      -4.813   3.547  25.527  0.00  0.00    +0.127 C 
ATOM     25  C   UNL     1      -5.614   3.354  25.548  0.00  0.00    +0.164 C 
ATOM     26  O   UNL     1      -5.861   2.590  25.357  0.00  0.00    -0.350 OA
ATOM     27  C   UNL     1      -5.304   2.019  25.144  0.00  0.00    +0.164 C 
ATOM     28  C   UNL     1      -4.502   2.212  25.123  0.00  0.00    +0.127 C 
ENDROOT
BRANCH   5   2
ATOM      1  C   UNL     1      -0.674   0.315  24.231  0.00  0.00    +0.196 C 
ATOM      2  S   UNL     1      -1.230   0.885  24.443  0.00  0.00    +0.046 S 
ATOM      3  O   UNL     1      -1.086   0.728  25.240  0.00  0.00    -0.157 OA
ATOM      4  O   UNL     1      -1.373   1.042  23.646  0.00  0.00    -0.157 OA
ENDBRANCH   5   2
BRANCH  10  11
ATOM     11  C   UNL     1      -2.833   0.500  24.486  0.00  0.00    +0.260 C 
ATOM     12  O   UNL     1      -2.739   0.216  23.717  0.00  0.00    -0.272 OA
ATOM     13  N   UNL     1      -3.174   0.019  25.064  0.00  0.00    -0.197 NA
BRANCH  13  14
ATOM     14  C   UNL     1      -3.419  -0.746  24.872  0.00  0.00    +0.173 C 
ATOM     15  C   UNL     1      -3.672  -0.919  24.106  0.00  0.00    +0.033 C 
ATOM     16  C   UNL     1      -3.917  -1.682  23.915  0.00  0.00    +0.026 C 
ATOM     17  C   UNL     1      -3.910  -2.274  24.490  0.00  0.00    +0.115 C 
ATOM     18  N   UNL     1      -3.658  -2.102  25.256  0.00  0.00    -0.204 NA
ATOM     19  C   UNL     1      -3.412  -1.337  25.447  0.00  0.00    +0.261 C 
ATOM     20  O   UNL     1      -3.159  -1.165  26.214  0.00  0.00    -0.271 OA
ENDBRANCH  13  14
ENDBRANCH  10  11
TORSDOF 3
ENDMDL
MODEL 2
REMARK VINA RESULT:     -11.1      1.181      2.920
REMARK  Name = 
REMARK  3 active torsions:
REMARK  status: ('A' for Active; 'I' for Inactive)
REMARK    1  A    between atoms: S_2  and  N_5
REMARK    2  A    between atoms: C_10  and  C_11
REMARK    3  A    between atoms: N_13  and  C_14
REMARK                            x       y       z     vdW  Elec       q    Type
REMARK                         _______ _______ _______ _____ _____    ______ ____
ROOT
ATOM      5  N   UNL     1      -3.990   2.206  24.918  0.00  0.00    -0.148 NA
ATOM      6  C   UNL     1      -3.785   2.979  25.122  0.00  0.00    +0.117 C 
ATOM      7  C   UNL     1      -2.993   3.210  25.116  0.00  0.00    +0.114 C 
ATOM      8  N   UNL     1      -2.406   2.668  24.907  0.00  0.00    -0.261 N 
ATOM      9  C   UNL     1      -2.613   1.896  24.703  0.00  0.00    +0.122 C 
ATOM     10  C   UNL     1      -3.404   1.665  24.709  0.00  0.00    +0.177 C 
ATOM     21  C   UNL     1      -1.615   2.899  24.901  0.00  0.00    +0.307 C 
ATOM     22  O   UNL     1      -1.409   3.672  25.105  0.00  0.00    -0.252 OA
ATOM     23  N   UNL     1      -1.029   2.358  24.692  0.00  0.00    -0.259 N 
ATOM     24  C   UNL     1      -0.237   2.589  24.687  0.00  0.00    +0.127 C 
ATOM     25  C   UNL     1       0.349   2.048  24.477  0.00  0.00    +0.164 C 
ATOM     26  O   UNL     1       0.144   1.275  24.274  0.00  0.00    -0.350 OA
ATOM     27  C   UNL     1      -0.648   1.044  24.279  0.00  0.00    +0.164 C 
ATOM     28  C   UNL     1      -1.235   1.586  24.488  0.00  0.00    +0.127 C 
ENDROOT
BRANCH   5   2
ATOM      1  C   UNL     1      -5.574   1.744  24.929  0.00  0.00    +0.196 C 
ATOM      2  S   UNL     1      -4.783   1.975  24.923  0.00  0.00    +0.046 S 
ATOM      3  O   UNL     1      -4.728   1.804  25.728  0.00  0.00    -0.157 OA
ATOM      4  O   UNL     1      -4.838   2.145  24.118  0.00  0.00    -0.157 OA
ENDBRANCH   5   2
BRANCH  10  11
ATOM     11  C   UNL     1      -3.610   0.893  24.505  0.00  0.00    +0.260 C 
ATOM     12  O   UNL     1      -4.043   0.748  23.818  0.00  0.00    -0.272 OA
ATOM     13  N   UNL     1      -3.382   0.264  24.989  0.00  0.00    -0.197 NA
BRANCH  13  14
ATOM     14  C   UNL     1      -3.588  -0.509  24.785  0.00  0.00    +0.173 C 
ATOM     15  C   UNL     1      -3.842  -0.681  24.019  0.00  0.00    +0.033 C 
ATOM     16  C   UNL     1      -4.048  -1.453  23.815  0.00  0.00    +0.026 C 
ATOM     17  C   UNL     1      -3.999  -2.054  24.378  0.00  0.00    +0.115 C 
ATOM     18  N   UNL     1      -3.745  -1.884  25.144  0.00  0.00    -0.204 NA
ATOM     19  C   UNL     1      -3.539  -1.111  25.347  0.00  0.00    +0.261 C 
ATOM     20  O   UNL     1      -3.284  -0.940  26.114  0.00  0.00    -0.271 OA
ENDBRANCH  13  14
ENDBRANCH  10  11
TORSDOF 3
ENDMDL
MODEL 3
REMARK VINA RESULT:     -11.0      1.570      3.963
REMARK  Name = 
REMARK  3 active torsions:
REMARK  status: ('A' for Active; 'I' for Inactive)
REMARK    1  A    between atoms: S_2  and  N_5
REMARK    2  A    between atoms: C_10  and  C_11
REMARK    3  A    between atoms: N_13  and  C_14
REMARK                            x       y       z     vdW  Elec       q    Type
REMARK                         _______ _______ _______ _____ _____    ______ ____
ROOT
ATOM      5  N   UNL     1      -0.968   0.357  24.900  0.00  0.00    -0.148 NA
ATOM      6  C   UNL     1      -0.514  -0.330  24.952  0.00  0.00    +0.117 C 
ATOM      7  C   UNL     1      -0.868  -1.067  24.843  0.00  0.00    +0.114 C 
ATOM      8  N   UNL     1      -1.676  -1.117  24.683  0.00  0.00    -0.261 N 
ATOM      9  C   UNL     1      -2.129  -0.430  24.631  0.00  0.00    +0.122 C 
ATOM     10  C   UNL     1      -1.775   0.307  24.740  0.00  0.00    +0.177 C 
ATOM     21  C   UNL     1      -2.030  -1.853  24.574  0.00  0.00    +0.307 C 
ATOM     22  O   UNL     1      -1.576  -2.541  24.626  0.00  0.00    -0.252 OA
ATOM     23  N   UNL     1      -2.837  -1.904  24.414  0.00  0.00    -0.259 N 
ATOM     24  C   UNL     1      -3.191  -2.641  24.305  0.00  0.00    +0.127 C 
ATOM     25  C   UNL     1      -3.999  -2.691  24.145  0.00  0.00    +0.164 C 
ATOM     26  O   UNL     1      -4.453  -2.004  24.093  0.00  0.00    -0.350 OA
ATOM     27  C   UNL     1      -4.099  -1.267  24.202  0.00  0.00    +0.164 C 
ATOM     28  C   UNL     1      -3.290  -1.217  24.362  0.00  0.00    +0.127 C 
ENDROOT
BRANCH   5   2
ATOM      1  C   UNL     1      -0.260   1.832  25.117  0.00  0.00    +0.196 C 
ATOM      2  S   UNL     1      -0.613   1.095  25.009  0.00  0.00    +0.046 S 
ATOM      3  O   UNL     1      -0.847   1.091  25.800  0.00  0.00    -0.157 OA
ATOM      4  O   UNL     1      -0.380   1.100  24.217  0.00  0.00    -0.157 OA
ENDBRANCH   5   2
BRANCH  10  11
ATOM     11  C   UNL     1      -2.228   0.994  24.688  0.00  0.00    +0.260 C 
ATOM     12  O   UNL     1      -2.320   1.480  25.349  0.00  0.00    -0.272 OA
ATOM     13  N   UNL     1      -2.592   1.196  23.974  0.00  0.00    -0.197 NA
BRANCH  13  14
ATOM     14  C   UNL     1      -3.046   1.883  23.923  0.00  0.00    +0.173 C 
ATOM     15  C   UNL     1      -3.429   2.177  24.592  0.00  0.00    +0.033 C 
ATOM     16  C   UNL     1      -3.882   2.864  24.540  0.00  0.00    +0.026 C 
ATOM     17  C   UNL     1      -3.953   3.258  23.819  0.00  0.00    +0.115 C 
ATOM     18  N   UNL     1      -3.570   2.965  23.149  0.00  0.00    -0.204 NA
ATOM     19  C   UNL     1      -3.116   2.277  23.202  0.00  0.00    +0.261 C 
ATOM     20  O   UNL     1      -2.733   1.984  22.531  0.00  0.00    -0.271 OA
ENDBRANCH  13  14
ENDBRANCH  10  11
TORSDOF 3
ENDMDL
MODEL 4
REMARK VINA RESULT:     -10.4      1.369      2.668
REMARK  Name = 
REMARK  3 active torsions:
REMARK  status: ('A' for Active; 'I' for Inactive)
REMARK    1  A    between atoms: S_2  and  N_5
REMARK    2  A    between atoms: C_10  and  C_11
REMARK    3  A    between atoms: N_13  and  C_14
REMARK                            x       y       z     vdW  Elec       q    Type
REMARK                         _______ _______ _______ _____ _____    ______ ____
ROOT
ATOM      5  N   UNL     1      -3.964   0.927  24.731  0.00  0.00    -0.148 NA
ATOM      6  C   UNL     1      -4.571   1.465  24.884  0.00  0.00    +0.117 C 
ATOM      7  C   UNL     1      -4.390   2.254  25.044  0.00  0.00    +0.114 C 
ATOM      8  N   UNL     1      -3.604   2.504  25.053  0.00  0.00    -0.261 N 
ATOM      9  C   UNL     1      -2.998   1.965  24.900  0.00  0.00    +0.122 C 
ATOM     10  C   UNL     1      -3.179   1.176  24.739  0.00  0.00    +0.177 C 
ATOM     21  C   UNL     1      -3.424   3.292  25.213  0.00  0.00    +0.307 C 
ATOM     22  O   UNL     1      -4.030   3.832  25.366  0.00  0.00    -0.252 OA
ATOM     23  N   UNL     1      -2.638   3.543  25.221  0.00  0.00    -0.259 N 
ATOM     24  C   UNL     1      -2.457   4.332  25.382  0.00  0.00    +0.127 C 
ATOM     25  C   UNL     1      -1.672   4.581  25.390  0.00  0.00    +0.164 C 
ATOM     26  O   UNL     1      -1.065   4.043  25.237  0.00  0.00    -0.350 OA
ATOM     27  C   UNL     1      -1.246   3.254  25.077  0.00  0.00    +0.164 C 
ATOM     28  C   UNL     1      -2.033   3.004  25.069  0.00  0.00    +0.127 C 
ENDROOT
BRANCH   5   2
ATOM      1  C   UNL     1      -4.325  -0.651  24.410  0.00  0.00    +0.196 C 
ATOM      2  S   UNL     1      -4.145   0.137  24.570  0.00  0.00    +0.046 S 
ATOM      3  O   UNL     1      -4.242  -0.005  25.377  0.00  0.00    -0.157 OA
ATOM      4  O   UNL     1      -4.048   0.279  23.763  0.00  0.00    -0.157 OA
ENDBRANCH   5   2
BRANCH  10  11
ATOM     11  C   UNL     1      -2.573   0.638  24.587  0.00  0.00    +0.260 C 
ATOM     12  O   UNL     1      -2.490   0.312  23.833  0.00  0.00    -0.272 OA
ATOM     13  N   UNL     1      -2.049   0.425  25.188  0.00  0.00    -0.197 NA
BRANCH  13  14
ATOM     14  C   UNL     1      -1.444  -0.114  25.035  0.00  0.00    +0.173 C 
ATOM     15  C   UNL     1      -1.094  -0.143  24.288  0.00  0.00    +0.033 C 
ATOM     16  C   UNL     1      -0.489  -0.681  24.135  0.00  0.00    +0.026 C 
ATOM     17  C   UNL     1      -0.232  -1.192  24.730  0.00  0.00    +0.115 C 
ATOM     18  N   UNL     1      -0.580  -1.164  25.477  0.00  0.00    -0.204 NA
ATOM     19  C   UNL     1      -1.186  -0.625  25.630  0.00  0.00    +0.261 C 
ATOM     20  O   UNL     1      -1.535  -0.597  26.378  0.00  0.00    -0.271 OA
ENDBRANCH  13  14
ENDBRANCH  10  11
TORSDOF 3
ENDMDL
MODEL 5
REMARK VINA RESULT:     -10.3      1.769      2.202
REMARK  Name = 
REMARK  3 active torsions:
REMARK  status: ('A' for Active; 'I' for Inactive)
REMARK    1  A    between atoms: S_2  and  N_5
REMARK    2  A    between atoms: C_10  and  C_11
REMARK    3  A    between atoms: N_13  and  C_14
REMARK                            x       y       z     vdW  Elec       q    Type
REMARK                         _______ _______ _______ _____ _____    ______ ____
ROOT
ATOM      5  N   UNL     1      -1.636   3.246  25.369  0.00  0.00    -0.148 NA
ATOM      6  C   UNL     1      -2.051   3.891  25.673  0.00  0.00    +0.117 C 
ATOM      7  C   UNL     1      -2.875   3.874  25.704  0.00  0.00    +0.114 C 
ATOM      8  N   UNL     1      -3.285   3.212  25.430  0.00  0.00    -0.261 N 
ATOM      9  C   UNL     1      -2.870   2.568  25.126  0.00  0.00    +0.122 C 
ATOM     10  C   UNL     1      -2.045   2.585  25.095  0.00  0.00    +0.177 C 
ATOM     21  C   UNL     1      -4.108   3.195  25.461  0.00  0.00    +0.307 C 
ATOM     22  O   UNL     1      -4.523   3.840  25.766  0.00  0.00    -0.252 OA
ATOM     23  N   UNL     1      -4.518   2.533  25.188  0.00  0.00    -0.259 N 
ATOM     24  C   UNL     1      -5.342   2.516  25.218  0.00  0.00    +0.127 C 
ATOM     25  C   UNL     1      -5.751   1.855  24.945  0.00  0.00    +0.164 C 
ATOM     26  O   UNL     1      -5.337   1.210  24.640  0.00  0.00    -0.350 OA
ATOM     27  C   UNL     1      -4.513   1.227  24.609  0.00  0.00    +0.164 C 
ATOM     28  C   UNL     1      -4.103   1.889  24.883  0.00  0.00    +0.127 C 
ENDROOT
BRANCH   5   2
ATOM      1  C   UNL     1       0.012   3.280  25.307  0.00  0.00    +0.196 C 
ATOM      2  S   UNL     1      -0.811   3.263  25.338  0.00  0.00    +0.046 S 
ATOM      3  O   UNL     1      -0.776   2.984  26.113  0.00  0.00    -0.157 OA
ATOM      4  O   UNL     1      -0.846   3.542  24.562  0.00  0.00    -0.157 OA
ENDBRANCH   5   2
BRANCH  10  11
ATOM     11  C   UNL     1      -1.631   1.940  24.790  0.00  0.00    +0.260 C 
ATOM     12  O   UNL     1      -1.217   2.013  24.080  0.00  0.00    -0.272 OA
ATOM     13  N   UNL     1      -1.630   1.221  25.196  0.00  0.00    -0.197 NA
BRANCH  13  14
ATOM     14  C   UNL     1      -1.216   0.576  24.891  0.00  0.00    +0.173 C 
ATOM     15  C   UNL     1      -0.954   0.585  24.108  0.00  0.00    +0.033 C 
ATOM     16  C   UNL     1      -0.540  -0.059  23.804  0.00  0.00    +0.026 C 
ATOM     17  C   UNL     1      -0.386  -0.714  24.282  0.00  0.00    +0.115 C 
ATOM     18  N   UNL     1      -0.647  -0.724  25.064  0.00  0.00    -0.204 NA
ATOM     19  C   UNL     1      -1.062  -0.079  25.369  0.00  0.00    +0.261 C 
ATOM     20  O   UNL     1      -1.323  -0.088  26.152  0.00  0.00    -0.271 OA
ENDBRANCH  13  14
ENDBRANCH  10  11
TORSDOF 3
ENDMDL
