MODEL 1
REMARK VINA RESULT:     -12.3      0.000      0.000
REMARK  Name = 
REMARK  4 active torsions:
REMARK  status: ('A' for Active; 'I' for Inactive)
REMARK    1  A    between atoms: C_4  and  C_21
REMARK    2  A    between atoms: C_5  and  N_6
REMARK    3  A    between atoms: C_7  and  C_9
REMARK    4  A    between atoms: C_24  and  N_27
REMARK                            x       y       z     vdW  Elec       q    Type
REMARK                         _______ _______ _______ _____ _____    ______ ____
ROOT
ATOM      1  O   UNL     1      -6.951   1.968  25.001  0.00  0.00    -0.220 OA
ATOM      2  C   UNL     1      -6.147   1.784  25.027  0.00  0.00    +0.184 C 
ATOM      3  C   UNL     1      -5.816   1.039  24.900  0.00  0.00    +0.042 C 
ATOM      4  C   UNL     1      -4.997   1.107  24.979  0.00  0.00    +0.049 C 
ATOM      5  C   UNL     1      -4.823   1.895  25.156  0.00  0.00    +0.133 C 
ATOM     19  C   UNL     1      -5.533   2.313  25.186  0.00  0.00    +0.202 C 
ATOM     20  O   UNL     1      -5.616   3.118  25.345  0.00  0.00    -0.219 OA
ENDROOT
BRANCH   4  21
ATOM     21  C   UNL     1      -4.449   0.496  24.897  0.00  0.00    -0.001 A 
ATOM     22  C   UNL     1      -4.239   0.231  24.144  0.00  0.00    +0.000 A 
ATOM     23  C   UNL     1      -3.691  -0.380  24.062  0.00  0.00    +0.034 A 
ATOM     24  C   UNL     1      -3.353  -0.726  24.731  0.00  0.00    +0.132 A 
ATOM     25  N   UNL     1      -3.563  -0.459  25.483  0.00  0.00    -0.229 NA
ATOM     26  C   UNL     1      -4.111   0.152  25.566  0.00  0.00    +0.096 A 
BRANCH  24  27
ATOM     27  N   UNL     1      -2.805  -1.336  24.647  0.00  0.00    -0.288 N 
ATOM     28  C   UNL     1      -1.998  -1.170  24.653  0.00  0.00    +0.124 C 
ATOM     29  C   UNL     1      -1.450  -1.781  24.569  0.00  0.00    +0.164 C 
ATOM     30  O   UNL     1      -1.710  -2.559  24.480  0.00  0.00    -0.350 OA
ATOM     31  C   UNL     1      -2.518  -2.725  24.474  0.00  0.00    +0.164 C 
ATOM     32  C   UNL     1      -3.065  -2.114  24.558  0.00  0.00    +0.124 C 
ENDBRANCH  24  27
ENDBRANCH   4  21
BRANCH   5   6
ATOM      6  N   UNL     1      -4.071   2.209  25.281  0.00  0.00    -0.200 NA
ATOM      7  C   UNL     1      -3.829   2.879  24.866  0.00  0.00    +0.265 C 
ATOM      8  O   UNL     1      -4.339   3.236  24.325  0.00  0.00    -0.268 OA
BRANCH   7   9
ATOM      9  C   UNL     1      -3.077   3.193  24.992  0.00  0.00    +0.058 A 
ATOM     10  C   UNL     1      -2.454   2.987  24.490  0.00  0.00    +0.045 A 
ATOM     11  C   UNL     1      -1.701   3.301  24.616  0.00  0.00    +0.173 A 
ATOM     12  C   UNL     1      -1.570   3.821  25.244  0.00  0.00    +0.172 A 
ATOM     13  O   UNL     1      -0.819   4.135  25.369  0.00  0.00    -0.468 OA
ATOM     14  C   UNL     1      -0.197   3.930  24.868  0.00  0.00    +0.253 C 
ATOM     15  C   UNL     1      -0.328   3.410  24.240  0.00  0.00    +0.253 C 
ATOM     16  O   UNL     1      -1.080   3.096  24.114  0.00  0.00    -0.468 OA
ATOM     17  C   UNL     1      -2.193   4.026  25.745  0.00  0.00    +0.040 A 
ATOM     18  C   UNL     1      -2.946   3.712  25.620  0.00  0.00    +0.008 A 
ENDBRANCH   7   9
ENDBRANCH   5   6
TORSDOF 4
ENDMDL
MODEL 2
REMARK VINA RESULT:     -12.2      1.378      4.321
REMARK  Name = 
REMARK  4 active torsions:
REMARK  status: ('A' for Active; 'I' for Inactive)
REMARK    1  A    between atoms: C_4  and  C_21
REMARK    2  A    between atoms: C_5  and  N_6
REMARK    3  A    between atoms: C_7  and  C_9
REMARK    4  A    between atoms: C_24  and  N_27
REMARK                            x       y       z     vdW  Elec       q    Type
REMARK                         _______ _______ _______ _____ _____    ______ ____
ROOT
ATOM      1  O   UNL     1      -5.825   3.547  25.448  0.00  0.00    -0.220 OA
ATOM      2  C   UNL     1      -5.207   3.050  25.218  0.00  0.00    +0.184 C 
ATOM      3  C   UNL     1      -4.410   3.258  25.168  0.00  0.00    +0.042 C 
ATOM      4  C   UNL     1      -3.989   2.595  24.918  0.00  0.00    +0.049 C 
ATOM      5  C   UNL     1      -4.525   1.976  24.813  0.00  0.00    +0.133 C 
ATOM     19  C   UNL     1      -5.278   2.257  24.999  0.00  0.00    +0.202 C 
ATOM     20  O   UNL     1      -5.979   1.823  24.971  0.00  0.00    -0.219 OA
ENDROOT
BRANCH   4  21
ATOM     21  C   UNL     1      -3.174   2.555  24.793  0.00  0.00    -0.001 A 
ATOM     22  C   UNL     1      -2.660   2.545  25.438  0.00  0.00    +0.000 A 
ATOM     23  C   UNL     1      -1.845   2.505  25.314  0.00  0.00    +0.034 A 
ATOM     24  C   UNL     1      -1.545   2.477  24.545  0.00  0.00    +0.132 A 
ATOM     25  N   UNL     1      -2.060   2.488  23.901  0.00  0.00    -0.229 NA
ATOM     26  C   UNL     1      -2.875   2.527  24.025  0.00  0.00    +0.096 A 
BRANCH  24  27
ATOM     27  N   UNL     1      -0.731   2.438  24.422  0.00  0.00    -0.288 N 
ATOM     28  C   UNL     1      -0.295   3.130  24.320  0.00  0.00    +0.124 C 
ATOM     29  C   UNL     1       0.520   3.090  24.197  0.00  0.00    +0.164 C 
ATOM     30  O   UNL     1       0.899   2.358  24.176  0.00  0.00    -0.350 OA
ATOM     31  C   UNL     1       0.463   1.665  24.278  0.00  0.00    +0.164 C 
ATOM     32  C   UNL     1      -0.351   1.705  24.401  0.00  0.00    +0.124 C 
ENDBRANCH  24  27
ENDBRANCH   4  21
BRANCH   5   6
ATOM      6  N   UNL     1      -4.342   1.210  24.567  0.00  0.00    -0.200 NA
ATOM      7  C   UNL     1      -4.543   0.565  25.039  0.00  0.00    +0.265 C 
ATOM      8  O   UNL     1      -4.928   0.685  25.759  0.00  0.00    -0.268 OA
BRANCH   7   9
ATOM      9  C   UNL     1      -4.359  -0.200  24.792  0.00  0.00    +0.058 A 
ATOM     10  C   UNL     1      -3.970  -0.717  25.304  0.00  0.00    +0.045 A 
ATOM     11  C   UNL     1      -3.787  -1.483  25.057  0.00  0.00    +0.173 A 
ATOM     12  C   UNL     1      -3.992  -1.732  24.297  0.00  0.00    +0.172 A 
ATOM     13  O   UNL     1      -3.808  -2.496  24.050  0.00  0.00    -0.468 OA
ATOM     14  C   UNL     1      -3.420  -3.013  24.562  0.00  0.00    +0.253 C 
ATOM     15  C   UNL     1      -3.215  -2.764  25.322  0.00  0.00    +0.253 C 
ATOM     16  O   UNL     1      -3.398  -1.999  25.569  0.00  0.00    -0.468 OA
ATOM     17  C   UNL     1      -4.381  -1.214  23.785  0.00  0.00    +0.040 A 
ATOM     18  C   UNL     1      -4.565  -0.448  24.032  0.00  0.00    +0.008 A 
ENDBRANCH   7   9
ENDBRANCH   5   6
TORSDOF 4
ENDMDL
MODEL 3
REMARK VINA RESULT:     -12.2      1.638      3.950
REMARK  Name = 
REMARK  4 active torsions:
REMARK  status: ('A' for Active; 'I' for Inactive)
REMARK    1  A    between atoms: C_4  and  C_21
REMARK    2  A    between atoms: C_5  and  N_6
REMARK    3  A    between atoms: C_7  and  C_9
REMARK    4  A    between atoms: C_24  and  N_27
REMARK                            x       y       z     vdW  Elec       q    Type
REMARK                         _______ _______ _______ _____ _____    ______ ____
ROOT
ATOM      1  O   UNL     1      -0.441   5.509  24.823  0.00  0.00    -0.220 OA
ATOM      2  C   UNL     1      -0.834   4.792  24.937  0.00  0.00    +0.184 C 
ATOM      3  C   UNL     1      -0.508   4.039  24.838  0.00  0.00    +0.042 C 
ATOM      4  C   UNL     1      -1.093   3.484  25.009  0.00  0.00    +0.049 C 
ATOM      5  C   UNL     1      -1.781   3.893  25.214  0.00  0.00    +0.133 C 
ATOM     19  C   UNL     1      -1.620   4.700  25.169  0.00  0.00    +0.202 C 
ATOM     20  O   UNL     1      -2.152   5.310  25.328  0.00  0.00    -0.219 OA
ENDROOT
BRANCH   4  21
ATOM     21  C   UNL     1      -1.007   2.664  24.981  0.00  0.00    -0.001 A 
ATOM     22  C   UNL     1      -0.865   2.242  25.676  0.00  0.00    +0.000 A 
ATOM     23  C   UNL     1      -0.779   1.422  25.648  0.00  0.00    +0.034 A 
ATOM     24  C   UNL     1      -0.835   1.024  24.926  0.00  0.00    +0.132 A 
ATOM     25  N   UNL     1      -0.977   1.447  24.232  0.00  0.00    -0.229 NA
ATOM     26  C   UNL     1      -1.063   2.267  24.260  0.00  0.00    +0.096 A 
BRANCH  24  27
ATOM     27  N   UNL     1      -0.749   0.205  24.899  0.00  0.00    -0.288 N 
ATOM     28  C   UNL     1      -1.140  -0.270  25.449  0.00  0.00    +0.124 C 
ATOM     29  C   UNL     1      -1.053  -1.090  25.422  0.00  0.00    +0.164 C 
ATOM     30  O   UNL     1      -0.576  -1.435  24.845  0.00  0.00    -0.350 OA
ATOM     31  C   UNL     1      -0.185  -0.960  24.294  0.00  0.00    +0.164 C 
ATOM     32  C   UNL     1      -0.271  -0.142  24.322  0.00  0.00    +0.124 C 
ENDBRANCH  24  27
ENDBRANCH   4  21
BRANCH   5   6
ATOM      6  N   UNL     1      -2.502   3.554  25.426  0.00  0.00    -0.200 NA
ATOM      7  C   UNL     1      -3.190   3.756  25.018  0.00  0.00    +0.265 C 
ATOM      8  O   UNL     1      -3.156   4.298  24.397  0.00  0.00    -0.268 OA
BRANCH   7   9
ATOM      9  C   UNL     1      -3.910   3.417  25.230  0.00  0.00    +0.058 A 
ATOM     10  C   UNL     1      -4.235   2.814  24.770  0.00  0.00    +0.045 A 
ATOM     11  C   UNL     1      -4.956   2.474  24.982  0.00  0.00    +0.173 A 
ATOM     12  C   UNL     1      -5.354   2.738  25.656  0.00  0.00    +0.172 A 
ATOM     13  O   UNL     1      -6.075   2.398  25.868  0.00  0.00    -0.468 OA
ATOM     14  C   UNL     1      -6.399   1.796  25.408  0.00  0.00    +0.253 C 
ATOM     15  C   UNL     1      -6.001   1.533  24.734  0.00  0.00    +0.253 C 
ATOM     16  O   UNL     1      -5.280   1.872  24.521  0.00  0.00    -0.468 OA
ATOM     17  C   UNL     1      -5.029   3.340  26.117  0.00  0.00    +0.040 A 
ATOM     18  C   UNL     1      -4.308   3.680  25.905  0.00  0.00    +0.008 A 
ENDBRANCH   7   9
ENDBRANCH   5   6
TORSDOF 4
ENDMDL
MODEL 4
REMARK VINA RESULT:     -12.0      1.405      4.193
REMARK  Name = 
REMARK  4 active torsions:
REMARK  status: ('A' for Active; 'I' for Inactive)
REMARK    1  A    between atoms: C_4  and  C_21
REMARK    2  A    between atoms: C_5  and  N_6
REMARK    3  A    between atoms: C_7  and  C_9
REMARK    4  A    between atoms: C_24  and  N_27
REMARK                            x       y       z     vdW  Elec       q    Type
REMARK                         _______ _______ _______ _____ _____    ______ ____
ROOT
ATOM      1  O   UNL     1      -3.393  -3.507  24.651  0.00  0.00    -0.220 OA
ATOM      2  C   UNL     1      -3.293  -2.689  24.617  0.00  0.00    +0.184 C 
ATOM      3  C   UNL     1      -3.869  -2.122  24.786  0.00  0.00    +0.042 C 
ATOM      4  C   UNL     1      -3.532  -1.377  24.683  0.00  0.00    +0.049 C 
ATOM      5  C   UNL     1      -2.747  -1.482  24.450  0.00  0.00    +0.133 C 
ATOM     19  C   UNL     1      -2.600  -2.292  24.409  0.00  0.00    +0.202 C 
ATOM     20  O   UNL     1      -1.885  -2.646  24.198  0.00  0.00    -0.219 OA
ENDROOT
BRANCH   4  21
ATOM     21  C   UNL     1      -3.912  -0.652  24.793  0.00  0.00    -0.001 A 
ATOM     22  C   UNL     1      -4.150  -0.210  24.138  0.00  0.00    +0.000 A 
ATOM     23  C   UNL     1      -4.529   0.514  24.248  0.00  0.00    +0.034 A 
ATOM     24  C   UNL     1      -4.671   0.796  25.011  0.00  0.00    +0.132 A 
ATOM     25  N   UNL     1      -4.432   0.352  25.665  0.00  0.00    -0.229 NA
ATOM     26  C   UNL     1      -4.053  -0.372  25.555  0.00  0.00    +0.096 A 
BRANCH  24  27
ATOM     27  N   UNL     1      -5.050   1.519  25.120  0.00  0.00    -0.288 N 
ATOM     28  C   UNL     1      -5.855   1.541  25.297  0.00  0.00    +0.124 C 
ATOM     29  C   UNL     1      -6.235   2.266  25.405  0.00  0.00    +0.164 C 
ATOM     30  O   UNL     1      -5.809   2.969  25.337  0.00  0.00    -0.350 OA
ATOM     31  C   UNL     1      -5.003   2.947  25.160  0.00  0.00    +0.164 C 
ATOM     32  C   UNL     1      -4.624   2.223  25.052  0.00  0.00    +0.124 C 
ENDBRANCH  24  27
ENDBRANCH   4  21
BRANCH   5   6
ATOM      6  N   UNL     1      -2.205  -0.883  24.285  0.00  0.00    -0.200 NA
ATOM      7  C   UNL     1      -1.485  -0.856  24.686  0.00  0.00    +0.265 C 
ATOM      8  O   UNL     1      -1.306  -1.429  25.252  0.00  0.00    -0.268 OA
BRANCH   7   9
ATOM      9  C   UNL     1      -0.943  -0.257  24.522  0.00  0.00    +0.058 A 
ATOM     10  C   UNL     1      -0.924   0.423  24.989  0.00  0.00    +0.045 A 
ATOM     11  C   UNL     1      -0.382   1.023  24.825  0.00  0.00    +0.173 A 
ATOM     12  C   UNL     1       0.142   0.943  24.192  0.00  0.00    +0.172 A 
ATOM     13  O   UNL     1       0.684   1.543  24.028  0.00  0.00    -0.468 OA
ATOM     14  C   UNL     1       0.702   2.222  24.495  0.00  0.00    +0.253 C 
ATOM     15  C   UNL     1       0.178   2.302  25.128  0.00  0.00    +0.253 C 
ATOM     16  O   UNL     1      -0.364   1.702  25.292  0.00  0.00    -0.468 OA
ATOM     17  C   UNL     1       0.124   0.264  23.725  0.00  0.00    +0.040 A 
ATOM     18  C   UNL     1      -0.418  -0.337  23.889  0.00  0.00    +0.008 A 
ENDBRANCH   7   9
ENDBRANCH   5   6
TORSDOF 4
ENDMDL
MODEL 5
REMARK VINA RESULT:     -12.0      1.277      4.301
REMARK  Name = 
REMARK  4 active torsions:
REMARK  status: ('A' for Active; 'I' for Inactive)
REMARK    1  A    between atoms: C_4  and  C_21
REMARK    2  A    between atoms: C_5  and  N_6
REMARK    3  A    between atoms: C_7  and  C_9
REMARK    4  A    between atoms: C_24  and  N_27
REMARK                            x       y       z     vdW  Elec       q    Type
REMARK                         _______ _______ _______ _____ _____    ______ ____
ROOT
ATOM      1  O   UNL     1      -6.680   1.950  24.817  0.00  0.00    -0.220 OA
ATOM      2  C   UNL     1      -5.860   1.941  24.907  0.00  0.00    +0.184 C 
ATOM      3  C   UNL     1      -5.359   2.595  24.852  0.00  0.00    +0.042 C 
ATOM      4  C   UNL     1      -4.586   2.336  24.978  0.00  0.00    +0.049 C 
ATOM      5  C   UNL     1      -4.609   1.521  25.111  0.00  0.00    +0.133 C 
ATOM     19  C   UNL     1      -5.396   1.278  25.067  0.00  0.00    +0.202 C 
ATOM     20  O   UNL     1      -5.671   0.507  25.166  0.00  0.00    -0.219 OA
ENDROOT
BRANCH   4  21
ATOM     21  C   UNL     1      -3.909   2.807  24.972  0.00  0.00    -0.001 A 
ATOM     22  C   UNL     1      -3.583   3.067  25.684  0.00  0.00    +0.000 A 
ATOM     23  C   UNL     1      -2.906   3.538  25.678  0.00  0.00    +0.034 A 
ATOM     24  C   UNL     1      -2.555   3.749  24.961  0.00  0.00    +0.132 A 
ATOM     25  N   UNL     1      -2.881   3.489  24.250  0.00  0.00    -0.229 NA
ATOM     26  C   UNL     1      -3.558   3.018  24.255  0.00  0.00    +0.096 A 
BRANCH  24  27
ATOM     27  N   UNL     1      -1.878   4.220  24.957  0.00  0.00    -0.288 N 
ATOM     28  C   UNL     1      -1.943   5.037  25.049  0.00  0.00    +0.124 C 
ATOM     29  C   UNL     1      -1.265   5.508  25.045  0.00  0.00    +0.164 C 
ATOM     30  O   UNL     1      -0.523   5.161  24.947  0.00  0.00    -0.350 OA
ATOM     31  C   UNL     1      -0.458   4.344  24.855  0.00  0.00    +0.164 C 
ATOM     32  C   UNL     1      -1.135   3.874  24.860  0.00  0.00    +0.124 C 
ENDBRANCH  24  27
ENDBRANCH   4  21
BRANCH   5   6
ATOM      6  N   UNL     1      -3.959   1.036  25.261  0.00  0.00    -0.200 NA
ATOM      7  C   UNL     1      -3.839   0.356  24.811  0.00  0.00    +0.265 C 
ATOM      8  O   UNL     1      -4.368   0.161  24.208  0.00  0.00    -0.268 OA
BRANCH   7   9
ATOM      9  C   UNL     1      -3.189  -0.129  24.961  0.00  0.00    +0.058 A 
ATOM     10  C   UNL     1      -2.486  -0.020  24.544  0.00  0.00    +0.045 A 
ATOM     11  C   UNL     1      -1.836  -0.505  24.695  0.00  0.00    +0.173 A 
ATOM     12  C   UNL     1      -1.889  -1.101  25.264  0.00  0.00    +0.172 A 
ATOM     13  O   UNL     1      -1.240  -1.586  25.415  0.00  0.00    -0.468 OA
ATOM     14  C   UNL     1      -0.537  -1.476  24.998  0.00  0.00    +0.253 C 
ATOM     15  C   UNL     1      -0.484  -0.880  24.428  0.00  0.00    +0.253 C 
ATOM     16  O   UNL     1      -1.133  -0.395  24.278  0.00  0.00    -0.468 OA
ATOM     17  C   UNL     1      -2.592  -1.210  25.681  0.00  0.00    +0.040 A 
ATOM     18  C   UNL     1      -3.243  -0.725  25.531  0.00  0.00    +0.008 A 
ENDBRANCH   7   9
ENDBRANCH   5   6
TORSDOF 4
ENDMDL
MODEL 6
REMARK VINA RESULT:     -11.8      1.726      4.656
REMARK  Name = 
REMARK  4 active torsions:
REMARK  status: ('A' for Active; 'I' for Inactive)
REMARK    1  A    between atoms: C_4  and  C_21
REMARK    2  A    between atoms: C_5  and  N_6
REMARK    3  A    between atoms: C_7  and  C_9
REMARK    4  A    between atoms: C_24  and  N_27
REMARK                            x       y       z     vdW  Elec       q    Type
REMARK                         _______ _______ _______ _____ _____    ______ ____
ROOT
ATOM      1  O   UNL     1      -0.591   5.565  25.009  0.00  0.00    -0.220 OA
ATOM      2  C   UNL     1      -1.014   4.859  24.950  0.00  0.00    +0.184 C 
ATOM      3  C   UNL     1      -1.824   4.767  25.080  0.00  0.00    +0.042 C 
ATOM      4  C   UNL     1      -2.013   3.972  24.962  0.00  0.00    +0.049 C 
ATOM      5  C   UNL     1      -1.319   3.573  24.760  0.00  0.00    +0.133 C 
ATOM     19  C   UNL     1      -0.702   4.121  24.753  0.00  0.00    +0.202 C 
ATOM     20  O   UNL     1       0.088   3.959  24.579  0.00  0.00    -0.219 OA
ENDROOT
BRANCH   4  21
ATOM     21  C   UNL     1      -2.762   3.635  25.033  0.00  0.00    -0.001 A 
ATOM     22  C   UNL     1      -3.207   3.476  24.357  0.00  0.00    +0.000 A 
ATOM     23  C   UNL     1      -3.957   3.139  24.428  0.00  0.00    +0.034 A 
ATOM     24  C   UNL     1      -4.262   2.962  25.174  0.00  0.00    +0.132 A 
ATOM     25  N   UNL     1      -3.816   3.121  25.850  0.00  0.00    -0.229 NA
ATOM     26  C   UNL     1      -3.066   3.458  25.779  0.00  0.00    +0.096 A 
BRANCH  24  27
ATOM     27  N   UNL     1      -5.011   2.625  25.245  0.00  0.00    -0.288 N 
ATOM     28  C   UNL     1      -5.583   2.985  25.717  0.00  0.00    +0.124 C 
ATOM     29  C   UNL     1      -6.333   2.648  25.787  0.00  0.00    +0.164 C 
ATOM     30  O   UNL     1      -6.510   1.950  25.384  0.00  0.00    -0.350 OA
ATOM     31  C   UNL     1      -5.938   1.590  24.911  0.00  0.00    +0.164 C 
ATOM     32  C   UNL     1      -5.189   1.927  24.841  0.00  0.00    +0.124 C 
ENDBRANCH  24  27
ENDBRANCH   4  21
BRANCH   5   6
ATOM      6  N   UNL     1      -1.253   2.768  24.594  0.00  0.00    -0.200 NA
ATOM      7  C   UNL     1      -0.697   2.308  24.992  0.00  0.00    +0.265 C 
ATOM      8  O   UNL     1      -0.206   2.653  25.558  0.00  0.00    -0.268 OA
BRANCH   7   9
ATOM      9  C   UNL     1      -0.631   1.503  24.826  0.00  0.00    +0.058 A 
ATOM     10  C   UNL     1      -0.904   0.945  25.370  0.00  0.00    +0.045 A 
ATOM     11  C   UNL     1      -0.839   0.140  25.204  0.00  0.00    +0.173 A 
ATOM     12  C   UNL     1      -0.500  -0.109  24.493  0.00  0.00    +0.172 A 
ATOM     13  O   UNL     1      -0.435  -0.914  24.327  0.00  0.00    -0.468 OA
ATOM     14  C   UNL     1      -0.707  -1.471  24.870  0.00  0.00    +0.253 C 
ATOM     15  C   UNL     1      -1.046  -1.222  25.581  0.00  0.00    +0.253 C 
ATOM     16  O   UNL     1      -1.112  -0.417  25.747  0.00  0.00    -0.468 OA
ATOM     17  C   UNL     1      -0.227   0.449  23.949  0.00  0.00    +0.040 A 
ATOM     18  C   UNL     1      -0.293   1.255  24.115  0.00  0.00    +0.008 A 
ENDBRANCH   7   9
ENDBRANCH   5   6
TORSDOF 4
ENDMDL
MODEL 7
REMARK VINA RESULT:     -11.5      1.271      3.606
REMARK  Name = 
REMARK  4 active torsions:
REMARK  status: ('A' for Active; 'I' for Inactive)
REMARK    1  A    between atoms: C_4  and  C_21
REMARK    2  A    between atoms: C_5  and  N_6
REMARK    3  A    between atoms: C_7  and  C_9
REMARK    4  A    between atoms: C_24  and  N_27
REMARK                            x       y       z     vdW  Elec       q    Type
REMARK                         _______ _______ _______ _____ _____    ______ ____
ROOT
ATOM      1  O   UNL     1       0.978   2.472  24.342  0.00  0.00    -0.220 OA
ATOM      2  C   UNL     1       0.243   2.154  24.541  0.00  0.00    +0.184 C 
ATOM      3  C   UNL     1       0.032   1.356  24.499  0.00  0.00    +0.042 C 
ATOM      4  C   UNL     1      -0.751   1.286  24.749  0.00  0.00    +0.049 C 
ATOM      5  C   UNL     1      -1.024   2.040  24.946  0.00  0.00    +0.133 C 
ATOM     19  C   UNL     1      -0.411   2.575  24.817  0.00  0.00    +0.202 C 
ATOM     20  O   UNL     1      -0.443   3.390  24.943  0.00  0.00    -0.219 OA
ENDROOT
BRANCH   4  21
ATOM     21  C   UNL     1      -1.185   0.586  24.795  0.00  0.00    -0.001 A 
ATOM     22  C   UNL     1      -1.263   0.197  25.519  0.00  0.00    +0.000 A 
ATOM     23  C   UNL     1      -1.696  -0.503  25.564  0.00  0.00    +0.034 A 
ATOM     24  C   UNL     1      -2.053  -0.814  24.888  0.00  0.00    +0.132 A 
ATOM     25  N   UNL     1      -1.974  -0.424  24.165  0.00  0.00    -0.229 NA
ATOM     26  C   UNL     1      -1.541   0.276  24.119  0.00  0.00    +0.096 A 
BRANCH  24  27
ATOM     27  N   UNL     1      -2.486  -1.514  24.935  0.00  0.00    -0.288 N 
ATOM     28  C   UNL     1      -2.185  -2.209  24.608  0.00  0.00    +0.124 C 
ATOM     29  C   UNL     1      -2.619  -2.909  24.655  0.00  0.00    +0.164 C 
ATOM     30  O   UNL     1      -3.354  -2.914  25.030  0.00  0.00    -0.350 OA
ATOM     31  C   UNL     1      -3.656  -2.218  25.357  0.00  0.00    +0.164 C 
ATOM     32  C   UNL     1      -3.222  -1.519  25.309  0.00  0.00    +0.124 C 
ENDBRANCH  24  27
ENDBRANCH   4  21
BRANCH   5   6
ATOM      6  N   UNL     1      -1.779   2.226  25.223  0.00  0.00    -0.200 NA
ATOM      7  C   UNL     1      -2.235   2.791  24.833  0.00  0.00    +0.265 C 
ATOM      8  O   UNL     1      -1.936   3.172  24.165  0.00  0.00    -0.268 OA
BRANCH   7   9
ATOM      9  C   UNL     1      -2.989   2.976  25.110  0.00  0.00    +0.058 A 
ATOM     10  C   UNL     1      -3.643   2.547  24.846  0.00  0.00    +0.045 A 
ATOM     11  C   UNL     1      -4.398   2.733  25.123  0.00  0.00    +0.173 A 
ATOM     12  C   UNL     1      -4.499   3.348  25.665  0.00  0.00    +0.172 A 
ATOM     13  O   UNL     1      -5.253   3.533  25.942  0.00  0.00    -0.468 OA
ATOM     14  C   UNL     1      -5.906   3.104  25.679  0.00  0.00    +0.253 C 
ATOM     15  C   UNL     1      -5.805   2.489  25.137  0.00  0.00    +0.253 C 
ATOM     16  O   UNL     1      -5.051   2.304  24.860  0.00  0.00    -0.468 OA
ATOM     17  C   UNL     1      -3.845   3.776  25.929  0.00  0.00    +0.040 A 
ATOM     18  C   UNL     1      -3.090   3.591  25.652  0.00  0.00    +0.008 A 
ENDBRANCH   7   9
ENDBRANCH   5   6
TORSDOF 4
ENDMDL
