REMARK  Name = 
REMARK  6 active torsions:
REMARK  status: ('A' for Active; 'I' for Inactive)
REMARK    1  A    between atoms: N_4  and  C_5
REMARK    2  A    between atoms: C_8  and  C_9
REMARK    3  A    between atoms: C_9  and  N_10
REMARK    4  A    between atoms: C_14  and  C_15
REMARK    5  A    between atoms: C_17  and  C_20
REMARK    6  A    between atoms: C_23  and  N_26
REMARK                            x       y       z     vdW  Elec       q    Type
REMARK                         _______ _______ _______ _____ _____    ______ ____
ROOT
ATOM     10  N   UNL     1      -0.596  -3.041   0.000  0.00  0.00    -0.263 NA
ATOM     11  C   UNL     1       0.072  -3.525   0.000  0.00  0.00    +0.073 C 
ATOM     12  C   UNL     1      -0.183  -4.310   0.000  0.00  0.00    +0.019 C 
ATOM     13  C   UNL     1      -1.008  -4.310   0.000  0.00  0.00    +0.027 C 
ATOM     14  C   UNL     1      -1.263  -3.525   0.000  0.00  0.00    +0.138 C 
ENDROOT
BRANCH  14  15
ATOM     15  C   UNL     1      -2.047  -3.270   0.000  0.00  0.00    +0.251 A 
ATOM     16  N   UNL     1      -2.715  -3.755   0.000  0.00  0.00    -0.190 NA
ATOM     17  C   UNL     1      -3.382  -3.270   0.000  0.00  0.00    +0.205 A 
ATOM     18  N   UNL     1      -3.127  -2.486   0.000  0.00  0.00    -0.056 NA
ATOM     19  O   UNL     1      -2.303  -2.486   0.000  0.00  0.00    -0.336 OA
BRANCH  17  20
ATOM     20  C   UNL     1      -4.167  -3.525   0.000  0.00  0.00    +0.058 A 
ATOM     21  C   UNL     1      -4.338  -4.332   0.000  0.00  0.00    +0.008 A 
ATOM     22  C   UNL     1      -5.123  -4.587   0.000  0.00  0.00    +0.038 A 
ATOM     23  C   UNL     1      -5.736  -4.035   0.000  0.00  0.00    +0.149 A 
ATOM     24  N   UNL     1      -5.565  -3.228   0.000  0.00  0.00    -0.226 NA
ATOM     25  C   UNL     1      -4.780  -2.973   0.000  0.00  0.00    +0.104 A 
BRANCH  23  26
ATOM     26  N   UNL     1      -6.521  -4.290   0.000  0.00  0.00    -0.271 N 
ATOM     27  C   UNL     1      -6.776  -5.075   0.000  0.00  0.00    +0.104 A 
ATOM     28  C   UNL     1      -7.601  -5.075   0.000  0.00  0.00    +0.120 A 
ATOM     29  N   UNL     1      -7.856  -4.290   0.000  0.00  0.00    -0.222 NA
ATOM     30  C   UNL     1      -7.188  -3.805   0.000  0.00  0.00    +0.184 A 
ENDBRANCH  23  26
ENDBRANCH  17  20
ENDBRANCH  14  15
BRANCH  10   9
ATOM      9  C   UNL     1      -0.596  -2.216   0.000  0.00  0.00    +0.099 C 
BRANCH   9   8
ATOM      5  C   UNL     1       1.548  -0.978   0.000  0.00  0.00    +0.073 A 
ATOM      6  C   UNL     1       1.548  -1.803   0.000  0.00  0.00    +0.016 A 
ATOM      7  C   UNL     1       0.834  -2.216   0.000  0.00  0.00    -0.002 A 
ATOM      8  C   UNL     1       0.119  -1.803   0.000  0.00  0.00    -0.006 A 
ATOM     31  C   UNL     1       0.119  -0.978   0.000  0.00  0.00    -0.002 A 
ATOM     32  C   UNL     1       0.834  -0.566   0.000  0.00  0.00    +0.016 A 
BRANCH   5   4
ATOM      1  C   UNL     1       2.977   0.672   0.000  0.00  0.00    +0.097 C 
ATOM      2  C   UNL     1       2.262   0.260   0.000  0.00  0.00    +0.246 C 
ATOM      3  O   UNL     1       1.548   0.672   0.000  0.00  0.00    -0.273 OA
ATOM      4  N   UNL     1       2.262  -0.566   0.000  0.00  0.00    -0.179 NA
ENDBRANCH   5   4
ENDBRANCH   9   8
ENDBRANCH  10   9
TORSDOF 6
