REMARK  Name = 
REMARK  8 active torsions:
REMARK  status: ('A' for Active; 'I' for Inactive)
REMARK    1  A    between atoms: C_2  and  C_4
REMARK    2  A    between atoms: C_7  and  N_8
REMARK    3  A    between atoms: N_11  and  C_12
REMARK    4  A    between atoms: C_14  and  C_21
REMARK    5  A    between atoms: N_23  and  C_24
REMARK    6  A    between atoms: C_24  and  C_25
REMARK    7  A    between atoms: C_24  and  C_32
REMARK    8  A    between atoms: C_25  and  C_26
REMARK                            x       y       z     vdW  Elec       q    Type
REMARK                         _______ _______ _______ _____ _____    ______ ____
ROOT
ATOM     12  C   UNL     1      -0.380  -4.631   0.000  0.00  0.00    +0.133 C 
ATOM     13  C   UNL     1      -0.098  -3.856   0.000  0.00  0.00    +0.064 C 
ATOM     14  C   UNL     1       0.715  -3.712   0.000  0.00  0.00    +0.200 C 
ATOM     15  O   UNL     1       0.432  -2.937   0.000  0.00  0.00    -0.216 OA
ATOM     16  C   UNL     1       1.245  -4.345   0.000  0.00  0.00    +0.075 C 
ATOM     17  C   UNL     1       0.963  -5.120   0.000  0.00  0.00    +0.187 C 
ATOM     18  O   UNL     1       1.493  -5.752   0.000  0.00  0.00    -0.220 OA
ATOM     19  C   UNL     1       0.150  -5.263   0.000  0.00  0.00    +0.202 C 
ATOM     20  O   UNL     1      -0.132  -6.038   0.000  0.00  0.00    -0.219 OA
ENDROOT
BRANCH  12  11
ATOM      8  N   UNL     1      -2.287  -5.693   0.000  0.00  0.00    -0.161 NA
ATOM      9  C   UNL     1      -1.475  -5.550   0.000  0.00  0.00    +0.344 C 
ATOM     10  O   UNL     1      -0.945  -6.181   0.000  0.00  0.00    -0.249 OA
ATOM     11  N   UNL     1      -1.193  -4.774   0.000  0.00  0.00    -0.186 NA
BRANCH   8   7
ATOM      4  C   UNL     1      -3.134  -8.018   0.000  0.00  0.00    +0.035 A 
ATOM      5  C   UNL     1      -3.664  -7.386   0.000  0.00  0.00    +0.004 A 
ATOM      6  C   UNL     1      -3.382  -6.611   0.000  0.00  0.00    +0.017 A 
ATOM      7  C   UNL     1      -2.569  -6.468   0.000  0.00  0.00    +0.075 A 
ATOM     35  C   UNL     1      -2.039  -7.100   0.000  0.00  0.00    +0.017 A 
ATOM     36  C   UNL     1      -2.321  -7.875   0.000  0.00  0.00    +0.004 A 
BRANCH   4   2
ATOM      1  C   UNL     1      -2.886  -9.426   0.000  0.00  0.00    +0.077 C 
ATOM      2  C   UNL     1      -3.416  -8.794   0.000  0.00  0.00    +0.173 C 
ATOM      3  O   UNL     1      -4.228  -8.937   0.000  0.00  0.00    -0.291 OA
ENDBRANCH   4   2
ENDBRANCH   8   7
ENDBRANCH  12  11
BRANCH  14  21
ATOM     21  C   UNL     1       1.429  -3.300   0.000  0.00  0.00    +0.269 C 
ATOM     22  O   UNL     1       2.143  -3.712   0.000  0.00  0.00    -0.271 OA
ATOM     23  N   UNL     1       1.429  -2.475   0.000  0.00  0.00    -0.195 NA
BRANCH  23  24
ATOM     24  C   UNL     1       2.143  -2.062   0.000  0.00  0.00    +0.179 C 
BRANCH  24  32
ATOM     32  C   UNL     1       2.858  -2.475   0.000  0.00  0.00    +0.281 C 
ATOM     33  N   UNL     1       3.572  -2.062   0.000  0.00  0.00    -0.086 NA
ATOM     34  O   UNL     1       2.858  -3.300   0.000  0.00  0.00    -0.270 OA
ENDBRANCH  24  32
BRANCH  24  25
ATOM     25  C   UNL     1       2.143  -1.238   0.000  0.00  0.00    +0.057 C 
BRANCH  25  26
ATOM     26  C   UNL     1       2.858  -0.825   0.000  0.00  0.00    -0.020 A 
ATOM     27  C   UNL     1       2.858   0.000   0.000  0.00  0.00    -0.004 A 
ATOM     28  C   UNL     1       3.572   0.412   0.000  0.00  0.00    -0.000 A 
ATOM     29  C   UNL     1       4.287   0.000   0.000  0.00  0.00    -0.000 A 
ATOM     30  C   UNL     1       4.287  -0.825   0.000  0.00  0.00    -0.000 A 
ATOM     31  C   UNL     1       3.572  -1.238   0.000  0.00  0.00    -0.004 A 
ENDBRANCH  25  26
ENDBRANCH  24  25
ENDBRANCH  23  24
ENDBRANCH  14  21
TORSDOF 8
