MODEL 1
REMARK VINA RESULT:     -11.9      0.000      0.000
REMARK  Name = 
REMARK  6 active torsions:
REMARK  status: ('A' for Active; 'I' for Inactive)
REMARK    1  A    between atoms: C_2  and  C_3
REMARK    2  A    between atoms: C_2  and  C_25
REMARK    3  A    between atoms: C_10  and  N_11
REMARK    4  A    between atoms: C_12  and  C_14
REMARK    5  A    between atoms: N_27  and  C_28
REMARK    6  A    between atoms: C_28  and  C_29
REMARK                            x       y       z     vdW  Elec       q    Type
REMARK                         _______ _______ _______ _____ _____    ______ ____
ROOT
ATOM      3  C   UNL     1      -4.446   2.822  24.533  0.00  0.00    +0.039 C 
ATOM      4  C   UNL     1      -5.077   2.801  25.066  0.00  0.00    +0.003 C 
ATOM      5  C   UNL     1      -5.353   2.078  25.349  0.00  0.00    +0.000 C 
ATOM      6  C   UNL     1      -5.001   1.375  25.100  0.00  0.00    +0.002 C 
ATOM      7  C   UNL     1      -5.630   1.354  25.632  0.00  0.00    +0.000 C 
ATOM      8  C   UNL     1      -5.277   0.651  25.383  0.00  0.00    +0.002 C 
ATOM      9  C   UNL     1      -4.925  -0.051  25.134  0.00  0.00    +0.022 C 
ATOM     10  C   UNL     1      -4.295  -0.030  24.600  0.00  0.00    +0.096 C 
ATOM     20  C   UNL     1      -4.018   0.693  24.317  0.00  0.00    +0.022 C 
ATOM     21  C   UNL     1      -3.389   0.714  23.785  0.00  0.00    +0.002 C 
ATOM     22  C   UNL     1      -4.371   1.396  24.566  0.00  0.00    +0.032 C 
ATOM     23  C   UNL     1      -4.094   2.119  24.284  0.00  0.00    +0.152 C 
ATOM     24  O   UNL     1      -3.465   2.140  23.751  0.00  0.00    -0.223 OA
ENDROOT
BRANCH  10  11
ATOM     11  N   UNL     1      -3.942  -0.734  24.351  0.00  0.00    -0.202 NA
ATOM     12  C   UNL     1      -3.661  -1.274  24.907  0.00  0.00    +0.284 C 
ATOM     13  O   UNL     1      -3.732  -1.112  25.713  0.00  0.00    -0.267 OA
BRANCH  12  14
ATOM     14  C   UNL     1      -3.309  -1.978  24.658  0.00  0.00    +0.155 A 
ATOM     15  C   UNL     1      -3.777  -2.617  24.432  0.00  0.00    +0.123 A 
ATOM     16  N   UNL     1      -3.425  -3.320  24.183  0.00  0.00    -0.239 NA
ATOM     17  C   UNL     1      -2.603  -3.383  24.160  0.00  0.00    +0.120 A 
ATOM     18  C   UNL     1      -2.133  -2.743  24.386  0.00  0.00    +0.120 A 
ATOM     19  N   UNL     1      -2.486  -2.041  24.634  0.00  0.00    -0.236 NA
ENDBRANCH  12  14
ENDBRANCH  10  11
BRANCH   3   2
ATOM      1  C   UNL     1      -4.363   3.793  23.486  0.00  0.00    +0.010 C 
ATOM      2  C   UNL     1      -4.170   3.546  24.250  0.00  0.00    +0.081 C 
BRANCH   2  25
ATOM     25  C   UNL     1      -3.700   4.024  24.731  0.00  0.00    +0.241 C 
ATOM     26  O   UNL     1      -4.053   4.537  25.274  0.00  0.00    -0.273 OA
ATOM     27  N   UNL     1      -2.878   3.990  24.670  0.00  0.00    -0.201 NA
BRANCH  27  28
ATOM     28  C   UNL     1      -2.408   4.467  25.150  0.00  0.00    +0.142 C 
BRANCH  28  29
ATOM     29  C   UNL     1      -1.598   4.326  25.207  0.00  0.00    +0.010 A 
ATOM     30  C   UNL     1      -1.323   3.590  25.459  0.00  0.00    -0.002 A 
ATOM     31  C   UNL     1      -0.513   3.450  25.515  0.00  0.00    -0.000 A 
ATOM     32  C   UNL     1       0.024   4.045  25.321  0.00  0.00    +0.001 A 
ATOM     33  C   UNL     1      -0.250   4.781  25.069  0.00  0.00    +0.011 A 
ATOM     34  C   UNL     1      -1.062   4.922  25.012  0.00  0.00    +0.055 A 
ATOM     35 CL   UNL     1      -1.336   5.657  24.761  0.00  0.00    -0.083 Cl
ENDBRANCH  28  29
ENDBRANCH  27  28
ENDBRANCH   2  25
ENDBRANCH   3   2
TORSDOF 6
ENDMDL
MODEL 2
REMARK VINA RESULT:     -10.9      2.703      4.496
REMARK  Name = 
REMARK  6 active torsions:
REMARK  status: ('A' for Active; 'I' for Inactive)
REMARK    1  A    between atoms: C_2  and  C_3
REMARK    2  A    between atoms: C_2  and  C_25
REMARK    3  A    between atoms: C_10  and  N_11
REMARK    4  A    between atoms: C_12  and  C_14
REMARK    5  A    between atoms: N_27  and  C_28
REMARK    6  A    between atoms: C_28  and  C_29
REMARK                            x       y       z     vdW  Elec       q    Type
REMARK                         _______ _______ _______ _____ _____    ______ ____
ROOT
ATOM      3  C   UNL     1      -1.794   3.627  25.481  0.00  0.00    +0.039 C 
ATOM      4  C   UNL     1      -1.521   3.493  26.249  0.00  0.00    +0.003 C 
ATOM      5  C   UNL     1      -0.876   2.995  26.376  0.00  0.00    +0.000 C 
ATOM      6  C   UNL     1      -0.503   2.632  25.736  0.00  0.00    +0.002 C 
ATOM      7  C   UNL     1      -0.231   2.498  26.502  0.00  0.00    +0.000 C 
ATOM      8  C   UNL     1       0.142   2.134  25.862  0.00  0.00    +0.002 C 
ATOM      9  C   UNL     1       0.515   1.771  25.223  0.00  0.00    +0.022 C 
ATOM     10  C   UNL     1       0.242   1.905  24.455  0.00  0.00    +0.096 C 
ATOM     20  C   UNL     1      -0.403   2.403  24.329  0.00  0.00    +0.022 C 
ATOM     21  C   UNL     1      -0.676   2.537  23.562  0.00  0.00    +0.002 C 
ATOM     22  C   UNL     1      -0.777   2.767  24.968  0.00  0.00    +0.032 C 
ATOM     23  C   UNL     1      -1.422   3.264  24.842  0.00  0.00    +0.152 C 
ATOM     24  O   UNL     1      -1.694   3.399  24.075  0.00  0.00    -0.223 OA
ENDROOT
BRANCH  10  11
ATOM     11  N   UNL     1       0.615   1.541  23.815  0.00  0.00    -0.202 NA
ATOM     12  C   UNL     1       0.703   0.722  23.800  0.00  0.00    +0.284 C 
ATOM     13  O   UNL     1       0.418   0.264  24.426  0.00  0.00    -0.267 OA
BRANCH  12  14
ATOM     14  C   UNL     1       1.076   0.358  23.160  0.00  0.00    +0.155 A 
ATOM     15  C   UNL     1       0.644  -0.121  22.648  0.00  0.00    +0.123 A 
ATOM     16  N   UNL     1       1.017  -0.485  22.008  0.00  0.00    -0.239 NA
ATOM     17  C   UNL     1       1.824  -0.369  21.881  0.00  0.00    +0.120 A 
ATOM     18  C   UNL     1       2.257   0.111  22.394  0.00  0.00    +0.120 A 
ATOM     19  N   UNL     1       1.883   0.474  23.033  0.00  0.00    -0.236 NA
ENDBRANCH  12  14
ENDBRANCH  10  11
BRANCH   3   2
ATOM      1  C   UNL     1      -2.363   4.787  24.867  0.00  0.00    +0.010 C 
ATOM      2  C   UNL     1      -2.440   4.125  25.355  0.00  0.00    +0.081 C 
BRANCH   2  25
ATOM     25  C   UNL     1      -3.163   3.962  25.717  0.00  0.00    +0.241 C 
ATOM     26  O   UNL     1      -3.344   4.302  26.448  0.00  0.00    -0.273 OA
ATOM     27  N   UNL     1      -3.705   3.460  25.350  0.00  0.00    -0.201 NA
BRANCH  27  28
ATOM     28  C   UNL     1      -4.427   3.297  25.711  0.00  0.00    +0.142 C 
BRANCH  28  29
ATOM     29  C   UNL     1      -4.897   2.678  25.435  0.00  0.00    +0.010 A 
ATOM     30  C   UNL     1      -4.548   1.978  25.174  0.00  0.00    -0.002 A 
ATOM     31  C   UNL     1      -5.018   1.361  24.897  0.00  0.00    -0.000 A 
ATOM     32  C   UNL     1      -5.839   1.442  24.882  0.00  0.00    +0.001 A 
ATOM     33  C   UNL     1      -6.189   2.142  25.143  0.00  0.00    +0.011 A 
ATOM     34  C   UNL     1      -5.718   2.761  25.420  0.00  0.00    +0.055 A 
ATOM     35 CL   UNL     1      -6.067   3.460  25.680  0.00  0.00    -0.083 Cl
ENDBRANCH  28  29
ENDBRANCH  27  28
ENDBRANCH   2  25
ENDBRANCH   3   2
TORSDOF 6
ENDMDL
MODEL 3
REMARK VINA RESULT:     -10.6      3.036      5.116
REMARK  Name = 
REMARK  6 active torsions:
REMARK  status: ('A' for Active; 'I' for Inactive)
REMARK    1  A    between atoms: C_2  and  C_3
REMARK    2  A    between atoms: C_2  and  C_25
REMARK    3  A    between atoms: C_10  and  N_11
REMARK    4  A    between atoms: C_12  and  C_14
REMARK    5  A    between atoms: N_27  and  C_28
REMARK    6  A    between atoms: C_28  and  C_29
REMARK                            x       y       z     vdW  Elec       q    Type
REMARK                         _______ _______ _______ _____ _____    ______ ____
ROOT
ATOM      3  C   UNL     1      -2.766   2.068  24.567  0.00  0.00    +0.039 C 
ATOM      4  C   UNL     1      -2.593   2.508  25.244  0.00  0.00    +0.003 C 
ATOM      5  C   UNL     1      -1.809   2.676  25.436  0.00  0.00    +0.000 C 
ATOM      6  C   UNL     1      -1.199   2.406  24.953  0.00  0.00    +0.002 C 
ATOM      7  C   UNL     1      -1.026   2.845  25.629  0.00  0.00    +0.000 C 
ATOM      8  C   UNL     1      -0.414   2.574  25.145  0.00  0.00    +0.002 C 
ATOM      9  C   UNL     1       0.197   2.304  24.662  0.00  0.00    +0.022 C 
ATOM     10  C   UNL     1       0.023   1.865  23.984  0.00  0.00    +0.096 C 
ATOM     20  C   UNL     1      -0.760   1.696  23.792  0.00  0.00    +0.022 C 
ATOM     21  C   UNL     1      -0.934   1.257  23.115  0.00  0.00    +0.002 C 
ATOM     22  C   UNL     1      -1.372   1.966  24.276  0.00  0.00    +0.032 C 
ATOM     23  C   UNL     1      -2.156   1.798  24.083  0.00  0.00    +0.152 C 
ATOM     24  O   UNL     1      -2.329   1.359  23.406  0.00  0.00    -0.223 OA
ENDROOT
BRANCH  10  11
ATOM     11  N   UNL     1       0.635   1.595  23.501  0.00  0.00    -0.202 NA
ATOM     12  C   UNL     1       1.275   1.193  23.830  0.00  0.00    +0.284 C 
ATOM     13  O   UNL     1       1.304   1.060  24.645  0.00  0.00    -0.267 OA
BRANCH  12  14
ATOM     14  C   UNL     1       1.886   0.922  23.346  0.00  0.00    +0.155 A 
ATOM     15  C   UNL     1       1.792   0.230  22.910  0.00  0.00    +0.123 A 
ATOM     16  N   UNL     1       2.404  -0.041  22.426  0.00  0.00    -0.239 NA
ATOM     17  C   UNL     1       3.110   0.384  22.379  0.00  0.00    +0.120 A 
ATOM     18  C   UNL     1       3.205   1.078  22.817  0.00  0.00    +0.120 A 
ATOM     19  N   UNL     1       2.592   1.347  23.300  0.00  0.00    -0.236 NA
ENDBRANCH  12  14
ENDBRANCH  10  11
BRANCH   3   2
ATOM      1  C   UNL     1      -3.934   2.331  23.784  0.00  0.00    +0.010 C 
ATOM      2  C   UNL     1      -3.551   1.900  24.374  0.00  0.00    +0.081 C 
BRANCH   2  25
ATOM     25  C   UNL     1      -3.953   1.299  24.773  0.00  0.00    +0.241 C 
ATOM     26  O   UNL     1      -4.508   1.489  25.354  0.00  0.00    -0.273 OA
ATOM     27  N   UNL     1      -3.800   0.508  24.590  0.00  0.00    -0.201 NA
BRANCH  27  28
ATOM     28  C   UNL     1      -4.201  -0.091  24.988  0.00  0.00    +0.142 C 
BRANCH  28  29
ATOM     29  C   UNL     1      -4.072  -0.880  24.785  0.00  0.00    +0.010 A 
ATOM     30  C   UNL     1      -4.329  -1.166  24.055  0.00  0.00    -0.002 A 
ATOM     31  C   UNL     1      -4.199  -1.955  23.852  0.00  0.00    -0.000 A 
ATOM     32  C   UNL     1      -3.813  -2.458  24.379  0.00  0.00    +0.001 A 
ATOM     33  C   UNL     1      -3.556  -2.172  25.109  0.00  0.00    +0.011 A 
ATOM     34  C   UNL     1      -3.685  -1.383  25.312  0.00  0.00    +0.055 A 
ATOM     35 CL   UNL     1      -3.429  -1.097  26.041  0.00  0.00    -0.083 Cl
ENDBRANCH  28  29
ENDBRANCH  27  28
ENDBRANCH   2  25
ENDBRANCH   3   2
TORSDOF 6
ENDMDL
MODEL 4
REMARK VINA RESULT:     -10.6      2.987      4.459
REMARK  Name = 
REMARK  6 active torsions:
REMARK  status: ('A' for Active; 'I' for Inactive)
REMARK    1  A    between atoms: C_2  and  C_3
REMARK    2  A    between atoms: C_2  and  C_25
REMARK    3  A    between atoms: C_10  and  N_11
REMARK    4  A    between atoms: C_12  and  C_14
REMARK    5  A    between atoms: N_27  and  C_28
REMARK    6  A    between atoms: C_28  and  C_29
REMARK                            x       y       z     vdW  Elec       q    Type
REMARK                         _______ _______ _______ _____ _____    ______ ____
ROOT
ATOM      3  C   UNL     1      -3.250  -0.238  24.743  0.00  0.00    +0.039 C 
ATOM      4  C   UNL     1      -3.104  -0.691  25.418  0.00  0.00    +0.003 C 
ATOM      5  C   UNL     1      -2.330  -0.875  25.631  0.00  0.00    +0.000 C 
ATOM      6  C   UNL     1      -1.701  -0.608  25.171  0.00  0.00    +0.002 C 
ATOM      7  C   UNL     1      -1.555  -1.060  25.844  0.00  0.00    +0.000 C 
ATOM      8  C   UNL     1      -0.925  -0.793  25.383  0.00  0.00    +0.002 C 
ATOM      9  C   UNL     1      -0.296  -0.526  24.923  0.00  0.00    +0.022 C 
ATOM     10  C   UNL     1      -0.441  -0.073  24.247  0.00  0.00    +0.096 C 
ATOM     20  C   UNL     1      -1.216   0.111  24.034  0.00  0.00    +0.022 C 
ATOM     21  C   UNL     1      -1.362   0.563  23.360  0.00  0.00    +0.002 C 
ATOM     22  C   UNL     1      -1.846  -0.156  24.495  0.00  0.00    +0.032 C 
ATOM     23  C   UNL     1      -2.621   0.029  24.282  0.00  0.00    +0.152 C 
ATOM     24  O   UNL     1      -2.767   0.481  23.608  0.00  0.00    -0.223 OA
ENDROOT
BRANCH  10  11
ATOM     11  N   UNL     1       0.189   0.194  23.786  0.00  0.00    -0.202 NA
ATOM     12  C   UNL     1       0.798  -0.322  23.580  0.00  0.00    +0.284 C 
ATOM     13  O   UNL     1       0.777  -1.108  23.836  0.00  0.00    -0.267 OA
BRANCH  12  14
ATOM     14  C   UNL     1       1.428  -0.055  23.119  0.00  0.00    +0.155 A 
ATOM     15  C   UNL     1       1.533  -0.346  22.355  0.00  0.00    +0.123 A 
ATOM     16  N   UNL     1       2.163  -0.079  21.894  0.00  0.00    -0.239 NA
ATOM     17  C   UNL     1       2.688   0.479  22.199  0.00  0.00    +0.120 A 
ATOM     18  C   UNL     1       2.584   0.771  22.964  0.00  0.00    +0.120 A 
ATOM     19  N   UNL     1       1.953   0.503  23.424  0.00  0.00    -0.236 NA
ENDBRANCH  12  14
ENDBRANCH  10  11
BRANCH   3   2
ATOM      1  C   UNL     1      -4.345  -0.350  23.829  0.00  0.00    +0.010 C 
ATOM      2  C   UNL     1      -4.026  -0.054  24.530  0.00  0.00    +0.081 C 
BRANCH   2  25
ATOM     25  C   UNL     1      -4.484   0.429  25.019  0.00  0.00    +0.241 C 
ATOM     26  O   UNL     1      -4.881   0.103  25.665  0.00  0.00    -0.273 OA
ATOM     27  N   UNL     1      -4.544   1.237  24.862  0.00  0.00    -0.201 NA
BRANCH  27  28
ATOM     28  C   UNL     1      -5.001   1.718  25.350  0.00  0.00    +0.142 C 
BRANCH  28  29
ATOM     29  C   UNL     1      -4.931   2.539  25.304  0.00  0.00    +0.010 A 
ATOM     30  C   UNL     1      -4.295   2.877  24.901  0.00  0.00    -0.002 A 
ATOM     31  C   UNL     1      -4.226   3.697  24.854  0.00  0.00    -0.000 A 
ATOM     32  C   UNL     1      -4.792   4.181  25.211  0.00  0.00    +0.001 A 
ATOM     33  C   UNL     1      -5.428   3.842  25.614  0.00  0.00    +0.011 A 
ATOM     34  C   UNL     1      -5.497   3.021  25.660  0.00  0.00    +0.055 A 
ATOM     35 CL   UNL     1      -6.132   2.683  26.063  0.00  0.00    -0.083 Cl
ENDBRANCH  28  29
ENDBRANCH  27  28
ENDBRANCH   2  25
ENDBRANCH   3   2
TORSDOF 6
ENDMDL
MODEL 5
REMARK VINA RESULT:     -10.3      1.867      5.293
REMARK  Name = 
REMARK  6 active torsions:
REMARK  status: ('A' for Active; 'I' for Inactive)
REMARK    1  A    between atoms: C_2  and  C_3
REMARK    2  A    between atoms: C_2  and  C_25
REMARK    3  A    between atoms: C_10  and  N_11
REMARK    4  A    between atoms: C_12  and  C_14
REMARK    5  A    between atoms: N_27  and  C_28
REMARK    6  A    between atoms: C_28  and  C_29
REMARK                            x       y       z     vdW  Elec       q    Type
REMARK                         _______ _______ _______ _____ _____    ______ ____
ROOT
ATOM      3  C   UNL     1      -4.303   0.306  24.448  0.00  0.00    +0.039 C 
ATOM      4  C   UNL     1      -4.966   0.461  24.915  0.00  0.00    +0.003 C 
ATOM      5  C   UNL     1      -5.078   1.212  25.236  0.00  0.00    +0.000 C 
ATOM      6  C   UNL     1      -4.527   1.808  25.092  0.00  0.00    +0.002 C 
ATOM      7  C   UNL     1      -5.189   1.963  25.558  0.00  0.00    +0.000 C 
ATOM      8  C   UNL     1      -4.638   2.560  25.414  0.00  0.00    +0.002 C 
ATOM      9  C   UNL     1      -4.088   3.156  25.269  0.00  0.00    +0.022 C 
ATOM     10  C   UNL     1      -3.424   3.002  24.802  0.00  0.00    +0.096 C 
ATOM     20  C   UNL     1      -3.313   2.251  24.481  0.00  0.00    +0.022 C 
ATOM     21  C   UNL     1      -2.650   2.096  24.015  0.00  0.00    +0.002 C 
ATOM     22  C   UNL     1      -3.864   1.653  24.625  0.00  0.00    +0.032 C 
ATOM     23  C   UNL     1      -3.752   0.902  24.304  0.00  0.00    +0.152 C 
ATOM     24  O   UNL     1      -3.089   0.748  23.838  0.00  0.00    -0.223 OA
ENDROOT
BRANCH  10  11
ATOM     11  N   UNL     1      -2.873   3.599  24.658  0.00  0.00    -0.202 NA
ATOM     12  C   UNL     1      -2.461   3.940  25.285  0.00  0.00    +0.284 C 
ATOM     13  O   UNL     1      -2.599   3.684  26.058  0.00  0.00    -0.267 OA
BRANCH  12  14
ATOM     14  C   UNL     1      -1.910   4.537  25.141  0.00  0.00    +0.155 A 
ATOM     15  C   UNL     1      -2.142   5.328  25.166  0.00  0.00    +0.123 A 
ATOM     16  N   UNL     1      -1.591   5.925  25.022  0.00  0.00    -0.239 NA
ATOM     17  C   UNL     1      -0.807   5.731  24.852  0.00  0.00    +0.120 A 
ATOM     18  C   UNL     1      -0.575   4.939  24.827  0.00  0.00    +0.120 A 
ATOM     19  N   UNL     1      -1.126   4.343  24.971  0.00  0.00    -0.236 NA
ENDBRANCH  12  14
ENDBRANCH  10  11
BRANCH   3   2
ATOM      1  C   UNL     1      -4.419  -0.601  23.349  0.00  0.00    +0.010 C 
ATOM      2  C   UNL     1      -4.192  -0.446  24.127  0.00  0.00    +0.081 C 
BRANCH   2  25
ATOM     25  C   UNL     1      -3.853  -1.043  24.584  0.00  0.00    +0.241 C 
ATOM     26  O   UNL     1      -4.313  -1.456  25.131  0.00  0.00    -0.273 OA
ATOM     27  N   UNL     1      -3.053  -1.229  24.494  0.00  0.00    -0.201 NA
BRANCH  27  28
ATOM     28  C   UNL     1      -2.715  -1.826  24.950  0.00  0.00    +0.142 C 
BRANCH  28  29
ATOM     29  C   UNL     1      -1.897  -1.855  25.050  0.00  0.00    +0.010 A 
ATOM     30  C   UNL     1      -1.519  -1.303  25.533  0.00  0.00    -0.002 A 
ATOM     31  C   UNL     1      -0.701  -1.334  25.632  0.00  0.00    -0.000 A 
ATOM     32  C   UNL     1      -0.260  -1.916  25.250  0.00  0.00    +0.001 A 
ATOM     33  C   UNL     1      -0.638  -2.469  24.767  0.00  0.00    +0.011 A 
ATOM     34  C   UNL     1      -1.457  -2.438  24.667  0.00  0.00    +0.055 A 
ATOM     35 CL   UNL     1      -1.834  -2.990  24.185  0.00  0.00    -0.083 Cl
ENDBRANCH  28  29
ENDBRANCH  27  28
ENDBRANCH   2  25
ENDBRANCH   3   2
TORSDOF 6
ENDMDL
MODEL 6
REMARK VINA RESULT:     -10.2      2.663      6.438
REMARK  Name = 
REMARK  6 active torsions:
REMARK  status: ('A' for Active; 'I' for Inactive)
REMARK    1  A    between atoms: C_2  and  C_3
REMARK    2  A    between atoms: C_2  and  C_25
REMARK    3  A    between atoms: C_10  and  N_11
REMARK    4  A    between atoms: C_12  and  C_14
REMARK    5  A    between atoms: N_27  and  C_28
REMARK    6  A    between atoms: C_28  and  C_29
REMARK                            x       y       z     vdW  Elec       q    Type
REMARK                         _______ _______ _______ _____ _____    ______ ____
ROOT
ATOM      3  C   UNL     1      -0.486  -0.876  24.842  0.00  0.00    +0.039 C 
ATOM      4  C   UNL     1      -0.064  -0.952  24.137  0.00  0.00    +0.003 C 
ATOM      5  C   UNL     1       0.171  -0.279  23.722  0.00  0.00    +0.000 C 
ATOM      6  C   UNL     1      -0.015   0.470  24.013  0.00  0.00    +0.002 C 
ATOM      7  C   UNL     1       0.406   0.394  23.308  0.00  0.00    +0.000 C 
ATOM      8  C   UNL     1       0.220   1.144  23.598  0.00  0.00    +0.002 C 
ATOM      9  C   UNL     1       0.034   1.893  23.888  0.00  0.00    +0.022 C 
ATOM     10  C   UNL     1      -0.388   1.969  24.594  0.00  0.00    +0.096 C 
ATOM     20  C   UNL     1      -0.623   1.296  25.009  0.00  0.00    +0.022 C 
ATOM     21  C   UNL     1      -1.045   1.372  25.714  0.00  0.00    +0.002 C 
ATOM     22  C   UNL     1      -0.437   0.546  24.718  0.00  0.00    +0.032 C 
ATOM     23  C   UNL     1      -0.672  -0.127  25.133  0.00  0.00    +0.152 C 
ATOM     24  O   UNL     1      -1.094  -0.051  25.838  0.00  0.00    -0.223 OA
ENDROOT
BRANCH  10  11
ATOM     11  N   UNL     1      -0.574   2.718  24.884  0.00  0.00    -0.202 NA
ATOM     12  C   UNL     1      -1.000   3.248  24.417  0.00  0.00    +0.284 C 
ATOM     13  O   UNL     1      -1.240   3.028  23.658  0.00  0.00    -0.267 OA
BRANCH  12  14
ATOM     14  C   UNL     1      -1.186   3.998  24.707  0.00  0.00    +0.155 A 
ATOM     15  C   UNL     1      -0.632   4.607  24.663  0.00  0.00    +0.123 A 
ATOM     16  N   UNL     1      -0.818   5.357  24.953  0.00  0.00    -0.239 NA
ATOM     17  C   UNL     1      -1.559   5.497  25.288  0.00  0.00    +0.120 A 
ATOM     18  C   UNL     1      -2.114   4.887  25.333  0.00  0.00    +0.120 A 
ATOM     19  N   UNL     1      -1.926   4.138  25.042  0.00  0.00    -0.236 NA
ENDBRANCH  12  14
ENDBRANCH  10  11
BRANCH   3   2
ATOM      1  C   UNL     1      -0.409  -1.706  26.005  0.00  0.00    +0.010 C 
ATOM      2  C   UNL     1      -0.721  -1.550  25.257  0.00  0.00    +0.081 C 
BRANCH   2  25
ATOM     25  C   UNL     1      -1.268  -2.069  24.922  0.00  0.00    +0.241 C 
ATOM     26  O   UNL     1      -1.012  -2.778  24.585  0.00  0.00    -0.273 OA
ATOM     27  N   UNL     1      -2.072  -1.880  24.926  0.00  0.00    -0.201 NA
BRANCH  27  28
ATOM     28  C   UNL     1      -2.619  -2.398  24.592  0.00  0.00    +0.142 C 
BRANCH  28  29
ATOM     29  C   UNL     1      -3.356  -2.120  24.349  0.00  0.00    +0.010 A 
ATOM     30  C   UNL     1      -3.541  -1.319  24.423  0.00  0.00    -0.002 A 
ATOM     31  C   UNL     1      -4.278  -1.043  24.180  0.00  0.00    -0.000 A 
ATOM     32  C   UNL     1      -4.832  -1.566  23.863  0.00  0.00    +0.001 A 
ATOM     33  C   UNL     1      -4.648  -2.366  23.790  0.00  0.00    +0.011 A 
ATOM     34  C   UNL     1      -3.909  -2.644  24.033  0.00  0.00    +0.055 A 
ATOM     35 CL   UNL     1      -3.725  -3.444  23.960  0.00  0.00    -0.083 Cl
ENDBRANCH  28  29
ENDBRANCH  27  28
ENDBRANCH   2  25
ENDBRANCH   3   2
TORSDOF 6
ENDMDL
MODEL 7
REMARK VINA RESULT:     -10.0      3.385      4.929
REMARK  Name = 
REMARK  6 active torsions:
REMARK  status: ('A' for Active; 'I' for Inactive)
REMARK    1  A    between atoms: C_2  and  C_3
REMARK    2  A    between atoms: C_2  and  C_25
REMARK    3  A    between atoms: C_10  and  N_11
REMARK    4  A    between atoms: C_12  and  C_14
REMARK    5  A    between atoms: N_27  and  C_28
REMARK    6  A    between atoms: C_28  and  C_29
REMARK                            x       y       z     vdW  Elec       q    Type
REMARK                         _______ _______ _______ _____ _____    ______ ____
ROOT
ATOM      3  C   UNL     1      -1.677   2.203  25.100  0.00  0.00    +0.039 C 
ATOM      4  C   UNL     1      -2.028   1.464  25.214  0.00  0.00    +0.003 C 
ATOM      5  C   UNL     1      -1.634   0.780  24.978  0.00  0.00    +0.000 C 
ATOM      6  C   UNL     1      -0.889   0.833  24.628  0.00  0.00    +0.002 C 
ATOM      7  C   UNL     1      -1.239   0.096  24.742  0.00  0.00    +0.000 C 
ATOM      8  C   UNL     1      -0.494   0.148  24.392  0.00  0.00    +0.002 C 
ATOM      9  C   UNL     1       0.251   0.201  24.042  0.00  0.00    +0.022 C 
ATOM     10  C   UNL     1       0.602   0.940  23.928  0.00  0.00    +0.096 C 
ATOM     20  C   UNL     1       0.207   1.624  24.164  0.00  0.00    +0.022 C 
ATOM     21  C   UNL     1       0.558   2.362  24.050  0.00  0.00    +0.002 C 
ATOM     22  C   UNL     1      -0.538   1.572  24.514  0.00  0.00    +0.032 C 
ATOM     23  C   UNL     1      -0.932   2.256  24.750  0.00  0.00    +0.152 C 
ATOM     24  O   UNL     1      -0.582   2.994  24.636  0.00  0.00    -0.223 OA
ENDROOT
BRANCH  10  11
ATOM     11  N   UNL     1       1.347   0.992  23.577  0.00  0.00    -0.202 NA
ATOM     12  C   UNL     1       1.650   0.353  23.154  0.00  0.00    +0.284 C 
ATOM     13  O   UNL     1       1.208  -0.341  23.081  0.00  0.00    -0.267 OA
BRANCH  12  14
ATOM     14  C   UNL     1       2.396   0.405  22.804  0.00  0.00    +0.155 A 
ATOM     15  C   UNL     1       2.516   0.110  22.044  0.00  0.00    +0.123 A 
ATOM     16  N   UNL     1       3.261   0.163  21.693  0.00  0.00    -0.239 NA
ATOM     17  C   UNL     1       3.886   0.510  22.105  0.00  0.00    +0.120 A 
ATOM     18  C   UNL     1       3.766   0.805  22.866  0.00  0.00    +0.120 A 
ATOM     19  N   UNL     1       3.021   0.753  23.215  0.00  0.00    -0.236 NA
ENDBRANCH  12  14
ENDBRANCH  10  11
BRANCH   3   2
ATOM      1  C   UNL     1      -1.775   3.344  25.957  0.00  0.00    +0.010 C 
ATOM      2  C   UNL     1      -2.072   2.888  25.336  0.00  0.00    +0.081 C 
BRANCH   2  25
ATOM     25  C   UNL     1      -2.765   3.117  24.952  0.00  0.00    +0.241 C 
ATOM     26  O   UNL     1      -2.725   3.564  24.259  0.00  0.00    -0.273 OA
ATOM     27  N   UNL     1      -3.499   2.899  25.261  0.00  0.00    -0.201 NA
BRANCH  27  28
ATOM     28  C   UNL     1      -4.192   3.128  24.877  0.00  0.00    +0.142 C 
BRANCH  28  29
ATOM     29  C   UNL     1      -4.903   2.747  25.046  0.00  0.00    +0.010 A 
ATOM     30  C   UNL     1      -5.024   1.969  24.799  0.00  0.00    -0.002 A 
ATOM     31  C   UNL     1      -5.735   1.588  24.969  0.00  0.00    -0.000 A 
ATOM     32  C   UNL     1      -6.327   1.984  25.385  0.00  0.00    +0.001 A 
ATOM     33  C   UNL     1      -6.206   2.762  25.632  0.00  0.00    +0.011 A 
ATOM     34  C   UNL     1      -5.494   3.144  25.463  0.00  0.00    +0.055 A 
ATOM     35 CL   UNL     1      -5.374   3.921  25.709  0.00  0.00    -0.083 Cl
ENDBRANCH  28  29
ENDBRANCH  27  28
ENDBRANCH   2  25
ENDBRANCH   3   2
TORSDOF 6
ENDMDL
MODEL 8
REMARK VINA RESULT:      -9.9      2.346      5.682
REMARK  Name = 
REMARK  6 active torsions:
REMARK  status: ('A' for Active; 'I' for Inactive)
REMARK    1  A    between atoms: C_2  and  C_3
REMARK    2  A    between atoms: C_2  and  C_25
REMARK    3  A    between atoms: C_10  and  N_11
REMARK    4  A    between atoms: C_12  and  C_14
REMARK    5  A    between atoms: N_27  and  C_28
REMARK    6  A    between atoms: C_28  and  C_29
REMARK                            x       y       z     vdW  Elec       q    Type
REMARK                         _______ _______ _______ _____ _____    ______ ____
ROOT
ATOM      3  C   UNL     1      -0.689   1.080  24.479  0.00  0.00    +0.039 C 
ATOM      4  C   UNL     1      -0.159   1.415  25.016  0.00  0.00    +0.003 C 
ATOM      5  C   UNL     1      -0.379   2.077  25.455  0.00  0.00    +0.000 C 
ATOM      6  C   UNL     1      -1.129   2.405  25.358  0.00  0.00    +0.002 C 
ATOM      7  C   UNL     1      -0.600   2.739  25.894  0.00  0.00    +0.000 C 
ATOM      8  C   UNL     1      -1.351   3.068  25.797  0.00  0.00    +0.002 C 
ATOM      9  C   UNL     1      -2.101   3.396  25.700  0.00  0.00    +0.022 C 
ATOM     10  C   UNL     1      -2.631   3.061  25.163  0.00  0.00    +0.096 C 
ATOM     20  C   UNL     1      -2.411   2.399  24.724  0.00  0.00    +0.022 C 
ATOM     21  C   UNL     1      -2.941   2.064  24.188  0.00  0.00    +0.002 C 
ATOM     22  C   UNL     1      -1.660   2.070  24.821  0.00  0.00    +0.032 C 
ATOM     23  C   UNL     1      -1.439   1.408  24.382  0.00  0.00    +0.152 C 
ATOM     24  O   UNL     1      -1.969   1.074  23.846  0.00  0.00    -0.223 OA
ENDROOT
BRANCH  10  11
ATOM     11  N   UNL     1      -3.382   3.390  25.066  0.00  0.00    -0.202 NA
ATOM     12  C   UNL     1      -3.874   3.495  25.719  0.00  0.00    +0.284 C 
ATOM     13  O   UNL     1      -3.616   3.271  26.471  0.00  0.00    -0.267 OA
BRANCH  12  14
ATOM     14  C   UNL     1      -4.625   3.824  25.622  0.00  0.00    +0.155 A 
ATOM     15  C   UNL     1      -5.296   3.378  25.794  0.00  0.00    +0.123 A 
ATOM     16  N   UNL     1      -6.047   3.706  25.698  0.00  0.00    -0.239 NA
ATOM     17  C   UNL     1      -6.125   4.482  25.428  0.00  0.00    +0.120 A 
ATOM     18  C   UNL     1      -5.453   4.929  25.255  0.00  0.00    +0.120 A 
ATOM     19  N   UNL     1      -4.703   4.599  25.352  0.00  0.00    -0.236 NA
ENDBRANCH  12  14
ENDBRANCH  10  11
BRANCH   3   2
ATOM      1  C   UNL     1      -0.202   0.505  23.264  0.00  0.00    +0.010 C 
ATOM      2  C   UNL     1      -0.468   0.418  24.040  0.00  0.00    +0.081 C 
BRANCH   2  25
ATOM     25  C   UNL     1      -0.513  -0.334  24.378  0.00  0.00    +0.241 C 
ATOM     26  O   UNL     1       0.153  -0.666  24.736  0.00  0.00    -0.273 OA
ATOM     27  N   UNL     1      -1.224  -0.754  24.358  0.00  0.00    -0.201 NA
BRANCH  27  28
ATOM     28  C   UNL     1      -1.269  -1.504  24.695  0.00  0.00    +0.142 C 
BRANCH  28  29
ATOM     29  C   UNL     1      -2.003  -1.861  24.812  0.00  0.00    +0.010 A 
ATOM     30  C   UNL     1      -2.558  -1.511  25.312  0.00  0.00    -0.002 A 
ATOM     31  C   UNL     1      -3.291  -1.869  25.428  0.00  0.00    -0.000 A 
ATOM     32  C   UNL     1      -3.471  -2.577  25.044  0.00  0.00    +0.001 A 
ATOM     33  C   UNL     1      -2.917  -2.927  24.544  0.00  0.00    +0.011 A 
ATOM     34  C   UNL     1      -2.182  -2.569  24.427  0.00  0.00    +0.055 A 
ATOM     35 CL   UNL     1      -1.628  -2.918  23.927  0.00  0.00    -0.083 Cl
ENDBRANCH  28  29
ENDBRANCH  27  28
ENDBRANCH   2  25
ENDBRANCH   3   2
TORSDOF 6
ENDMDL
MODEL 9
REMARK VINA RESULT:      -9.8      3.762      5.534
REMARK  Name = 
REMARK  6 active torsions:
REMARK  status: ('A' for Active; 'I' for Inactive)
REMARK    1  A    between atoms: C_2  and  C_3
REMARK    2  A    between atoms: C_2  and  C_25
REMARK    3  A    between atoms: C_10  and  N_11
REMARK    4  A    between atoms: C_12  and  C_14
REMARK    5  A    between atoms: N_27  and  C_28
REMARK    6  A    between atoms: C_28  and  C_29
REMARK                            x       y       z     vdW  Elec       q    Type
REMARK                         _______ _______ _______ _____ _____    ______ ____
ROOT
ATOM      3  C   UNL     1       0.169   0.670  23.904  0.00  0.00    +0.039 C 
ATOM      4  C   UNL     1       0.580   1.379  24.000  0.00  0.00    +0.003 C 
ATOM      5  C   UNL     1       0.188   2.048  24.279  0.00  0.00    +0.000 C 
ATOM      6  C   UNL     1      -0.615   2.009  24.462  0.00  0.00    +0.002 C 
ATOM      7  C   UNL     1      -0.205   2.717  24.559  0.00  0.00    +0.000 C 
ATOM      8  C   UNL     1      -1.009   2.679  24.741  0.00  0.00    +0.002 C 
ATOM      9  C   UNL     1      -1.812   2.640  24.924  0.00  0.00    +0.022 C 
ATOM     10  C   UNL     1      -2.223   1.930  24.827  0.00  0.00    +0.096 C 
ATOM     20  C   UNL     1      -1.830   1.261  24.548  0.00  0.00    +0.022 C 
ATOM     21  C   UNL     1      -2.241   0.552  24.451  0.00  0.00    +0.002 C 
ATOM     22  C   UNL     1      -1.027   1.300  24.365  0.00  0.00    +0.032 C 
ATOM     23  C   UNL     1      -0.634   0.631  24.086  0.00  0.00    +0.152 C 
ATOM     24  O   UNL     1      -1.045  -0.078  23.989  0.00  0.00    -0.223 OA
ENDROOT
BRANCH  10  11
ATOM     11  N   UNL     1      -3.027   1.891  25.009  0.00  0.00    -0.202 NA
ATOM     12  C   UNL     1      -3.519   2.532  24.846  0.00  0.00    +0.284 C 
ATOM     13  O   UNL     1      -3.207   3.214  24.498  0.00  0.00    -0.267 OA
BRANCH  12  14
ATOM     14  C   UNL     1      -4.323   2.494  25.028  0.00  0.00    +0.155 A 
ATOM     15  C   UNL     1      -4.631   2.960  25.634  0.00  0.00    +0.123 A 
ATOM     16  N   UNL     1      -5.435   2.922  25.816  0.00  0.00    -0.239 NA
ATOM     17  C   UNL     1      -5.930   2.416  25.393  0.00  0.00    +0.120 A 
ATOM     18  C   UNL     1      -5.621   1.948  24.786  0.00  0.00    +0.120 A 
ATOM     19  N   UNL     1      -4.818   1.988  24.605  0.00  0.00    -0.236 NA
ENDBRANCH  12  14
ENDBRANCH  10  11
BRANCH   3   2
ATOM      1  C   UNL     1       0.358  -0.748  23.907  0.00  0.00    +0.010 C 
ATOM      2  C   UNL     1       0.562   0.000  23.624  0.00  0.00    +0.081 C 
BRANCH   2  25
ATOM     25  C   UNL     1       1.160   0.079  23.061  0.00  0.00    +0.241 C 
ATOM     26  O   UNL     1       0.967   0.177  22.265  0.00  0.00    -0.273 OA
ATOM     27  N   UNL     1       1.952   0.059  23.295  0.00  0.00    -0.201 NA
BRANCH  27  28
ATOM     28  C   UNL     1       2.550   0.138  22.733  0.00  0.00    +0.142 C 
BRANCH  28  29
ATOM     29  C   UNL     1       3.340   0.057  22.956  0.00  0.00    +0.010 A 
ATOM     30  C   UNL     1       3.595  -0.630  23.333  0.00  0.00    -0.002 A 
ATOM     31  C   UNL     1       4.384  -0.710  23.556  0.00  0.00    -0.000 A 
ATOM     32  C   UNL     1       4.920  -0.102  23.401  0.00  0.00    +0.001 A 
ATOM     33  C   UNL     1       4.666   0.586  23.023  0.00  0.00    +0.011 A 
ATOM     34  C   UNL     1       3.875   0.666  22.800  0.00  0.00    +0.055 A 
ATOM     35 CL   UNL     1       3.620   1.353  22.423  0.00  0.00    -0.083 Cl
ENDBRANCH  28  29
ENDBRANCH  27  28
ENDBRANCH   2  25
ENDBRANCH   3   2
TORSDOF 6
ENDMDL
MODEL 10
REMARK VINA RESULT:      -9.4      1.994      3.498
REMARK  Name = 
REMARK  6 active torsions:
REMARK  status: ('A' for Active; 'I' for Inactive)
REMARK    1  A    between atoms: C_2  and  C_3
REMARK    2  A    between atoms: C_2  and  C_25
REMARK    3  A    between atoms: C_10  and  N_11
REMARK    4  A    between atoms: C_12  and  C_14
REMARK    5  A    between atoms: N_27  and  C_28
REMARK    6  A    between atoms: C_28  and  C_29
REMARK                            x       y       z     vdW  Elec       q    Type
REMARK                         _______ _______ _______ _____ _____    ______ ____
ROOT
ATOM      3  C   UNL     1      -0.228   2.104  25.284  0.00  0.00    +0.039 C 
ATOM      4  C   UNL     1       0.265   2.131  24.622  0.00  0.00    +0.003 C 
ATOM      5  C   UNL     1       0.300   1.487  24.108  0.00  0.00    +0.000 C 
ATOM      6  C   UNL     1      -0.157   0.816  24.255  0.00  0.00    +0.002 C 
ATOM      7  C   UNL     1       0.335   0.843  23.594  0.00  0.00    +0.000 C 
ATOM      8  C   UNL     1      -0.122   0.171  23.741  0.00  0.00    +0.002 C 
ATOM      9  C   UNL     1      -0.578  -0.499  23.889  0.00  0.00    +0.022 C 
ATOM     10  C   UNL     1      -1.071  -0.525  24.551  0.00  0.00    +0.096 C 
ATOM     20  C   UNL     1      -1.106   0.118  25.064  0.00  0.00    +0.022 C 
ATOM     21  C   UNL     1      -1.599   0.092  25.726  0.00  0.00    +0.002 C 
ATOM     22  C   UNL     1      -0.649   0.790  24.917  0.00  0.00    +0.032 C 
ATOM     23  C   UNL     1      -0.684   1.434  25.431  0.00  0.00    +0.152 C 
ATOM     24  O   UNL     1      -1.177   1.407  26.092  0.00  0.00    -0.223 OA
ENDROOT
BRANCH  10  11
ATOM     11  N   UNL     1      -1.528  -1.197  24.698  0.00  0.00    -0.202 NA
ATOM     12  C   UNL     1      -2.168  -1.376  24.210  0.00  0.00    +0.284 C 
ATOM     13  O   UNL     1      -2.352  -0.883  23.573  0.00  0.00    -0.267 OA
BRANCH  12  14
ATOM     14  C   UNL     1      -2.625  -2.047  24.356  0.00  0.00    +0.155 A 
ATOM     15  C   UNL     1      -3.446  -1.987  24.396  0.00  0.00    +0.123 A 
ATOM     16  N   UNL     1      -3.903  -2.658  24.543  0.00  0.00    -0.239 NA
ATOM     17  C   UNL     1      -3.537  -3.390  24.650  0.00  0.00    +0.120 A 
ATOM     18  C   UNL     1      -2.715  -3.451  24.611  0.00  0.00    +0.120 A 
ATOM     19  N   UNL     1      -2.259  -2.779  24.464  0.00  0.00    -0.236 NA
ENDBRANCH  12  14
ENDBRANCH  10  11
BRANCH   3   2
ATOM      1  C   UNL     1       0.155   2.734  26.509  0.00  0.00    +0.010 C 
ATOM      2  C   UNL     1      -0.263   2.749  25.798  0.00  0.00    +0.081 C 
BRANCH   2  25
ATOM     25  C   UNL     1      -0.715   3.409  25.599  0.00  0.00    +0.241 C 
ATOM     26  O   UNL     1      -0.350   4.085  25.295  0.00  0.00    -0.273 OA
ATOM     27  N   UNL     1      -1.534   3.396  25.705  0.00  0.00    -0.201 NA
BRANCH  27  28
ATOM     28  C   UNL     1      -1.987   4.055  25.507  0.00  0.00    +0.142 C 
BRANCH  28  29
ATOM     29  C   UNL     1      -2.785   3.968  25.321  0.00  0.00    +0.010 A 
ATOM     30  C   UNL     1      -3.011   3.762  24.555  0.00  0.00    -0.002 A 
ATOM     31  C   UNL     1      -3.809   3.674  24.370  0.00  0.00    -0.000 A 
ATOM     32  C   UNL     1      -4.384   3.793  24.950  0.00  0.00    +0.001 A 
ATOM     33  C   UNL     1      -4.158   3.999  25.717  0.00  0.00    +0.011 A 
ATOM     34  C   UNL     1      -3.358   4.087  25.902  0.00  0.00    +0.055 A 
ATOM     35 CL   UNL     1      -3.133   4.293  26.668  0.00  0.00    -0.083 Cl
ENDBRANCH  28  29
ENDBRANCH  27  28
ENDBRANCH   2  25
ENDBRANCH   3   2
TORSDOF 6
ENDMDL
