MODEL 1
REMARK VINA RESULT:      -9.6      0.000      0.000
REMARK  Name = 
REMARK  6 active torsions:
REMARK  status: ('A' for Active; 'I' for Inactive)
REMARK    1  A    between atoms: C_3  and  C_4
REMARK    2  A    between atoms: C_4  and  N_5
REMARK    3  A    between atoms: C_6  and  C_8
REMARK    4  A    between atoms: C_16  and  N_17
REMARK    5  A    between atoms: N_17  and  C_18
REMARK    6  A    between atoms: C_18  and  C_19
REMARK                            x       y       z     vdW  Elec       q    Type
REMARK                         _______ _______ _______ _____ _____    ______ ____
ROOT
ATOM      1  O   UNL     1      -3.881   2.285  24.242  0.00  0.00    -0.219 OA
ATOM      2  C   UNL     1      -3.231   1.896  24.570  0.00  0.00    +0.199 C 
ATOM      3  C   UNL     1      -3.162   1.083  24.690  0.00  0.00    +0.169 C 
ATOM     14  O   UNL     1      -2.425   0.937  25.029  0.00  0.00    -0.350 OA
ATOM     15  C   UNL     1      -2.038   1.661  25.120  0.00  0.00    +0.162 C 
ATOM     16  C   UNL     1      -2.536   2.253  24.836  0.00  0.00    +0.135 C 
ENDROOT
BRANCH   3   4
ATOM      4  C   UNL     1      -3.731   0.515  24.502  0.00  0.00    +0.148 C 
BRANCH   4   5
ATOM      5  N   UNL     1      -3.536  -0.286  24.523  0.00  0.00    -0.199 NA
ATOM      6  C   UNL     1      -4.122  -0.856  24.411  0.00  0.00    +0.265 C 
ATOM      7  O   UNL     1      -4.902  -0.624  24.279  0.00  0.00    -0.268 OA
BRANCH   6   8
ATOM      8  C   UNL     1      -3.927  -1.658  24.432  0.00  0.00    +0.055 A 
ATOM      9  C   UNL     1      -4.138  -2.149  23.804  0.00  0.00    +0.005 A 
ATOM     10  C   UNL     1      -3.944  -2.951  23.825  0.00  0.00    +0.000 A 
ATOM     11  C   UNL     1      -3.538  -3.260  24.473  0.00  0.00    +0.000 A 
ATOM     12  C   UNL     1      -3.326  -2.768  25.101  0.00  0.00    +0.000 A 
ATOM     13  C   UNL     1      -3.521  -1.967  25.080  0.00  0.00    +0.005 A 
ENDBRANCH   6   8
ENDBRANCH   4   5
ENDBRANCH   3   4
BRANCH  16  17
ATOM     17  N   UNL     1      -2.369   3.061  24.821  0.00  0.00    -0.209 NA
BRANCH  17  18
ATOM     18  C   UNL     1      -1.722   3.356  25.238  0.00  0.00    +0.115 C 
BRANCH  18  19
ATOM     19  C   UNL     1      -1.484   4.139  25.131  0.00  0.00    -0.002 A 
ATOM     20  C   UNL     1      -0.739   4.304  24.818  0.00  0.00    +0.018 A 
ATOM     21  C   UNL     1      -0.501   5.087  24.710  0.00  0.00    +0.099 A 
ATOM     22  N   UNL     1      -1.008   5.704  24.916  0.00  0.00    -0.242 NA
ATOM     23  C   UNL     1      -1.753   5.538  25.229  0.00  0.00    +0.099 A 
ATOM     24  C   UNL     1      -1.991   4.756  25.337  0.00  0.00    +0.018 A 
ENDBRANCH  18  19
ENDBRANCH  17  18
ENDBRANCH  16  17
TORSDOF 6
ENDMDL
MODEL 2
REMARK VINA RESULT:      -9.6      1.112      6.124
REMARK  Name = 
REMARK  6 active torsions:
REMARK  status: ('A' for Active; 'I' for Inactive)
REMARK    1  A    between atoms: C_3  and  C_4
REMARK    2  A    between atoms: C_4  and  N_5
REMARK    3  A    between atoms: C_6  and  C_8
REMARK    4  A    between atoms: C_16  and  N_17
REMARK    5  A    between atoms: N_17  and  C_18
REMARK    6  A    between atoms: C_18  and  C_19
REMARK                            x       y       z     vdW  Elec       q    Type
REMARK                         _______ _______ _______ _____ _____    ______ ____
ROOT
ATOM      1  O   UNL     1      -1.122   0.153  24.930  0.00  0.00    -0.219 OA
ATOM      2  C   UNL     1      -1.844   0.551  24.938  0.00  0.00    +0.199 C 
ATOM      3  C   UNL     1      -1.953   1.357  25.079  0.00  0.00    +0.169 C 
ATOM     14  O   UNL     1      -2.760   1.517  25.035  0.00  0.00    -0.350 OA
ATOM     15  C   UNL     1      -3.152   0.810  24.867  0.00  0.00    +0.162 C 
ATOM     16  C   UNL     1      -2.586   0.213  24.807  0.00  0.00    +0.135 C 
ENDROOT
BRANCH   3   4
ATOM      4  C   UNL     1      -1.357   1.906  25.236  0.00  0.00    +0.148 C 
BRANCH   4   5
ATOM      5  N   UNL     1      -1.483   2.707  25.082  0.00  0.00    -0.199 NA
ATOM      6  C   UNL     1      -0.953   3.270  25.368  0.00  0.00    +0.265 C 
ATOM      7  O   UNL     1      -0.296   3.033  25.807  0.00  0.00    -0.268 OA
BRANCH   6   8
ATOM      8  C   UNL     1      -1.079   4.071  25.214  0.00  0.00    +0.055 A 
ATOM      9  C   UNL     1      -0.520   4.502  24.788  0.00  0.00    +0.005 A 
ATOM     10  C   UNL     1      -0.646   5.303  24.633  0.00  0.00    +0.000 A 
ATOM     11  C   UNL     1      -1.331   5.672  24.906  0.00  0.00    +0.000 A 
ATOM     12  C   UNL     1      -1.891   5.241  25.333  0.00  0.00    +0.000 A 
ATOM     13  C   UNL     1      -1.764   4.440  25.487  0.00  0.00    +0.005 A 
ENDBRANCH   6   8
ENDBRANCH   4   5
ENDBRANCH   3   4
BRANCH  16  17
ATOM     17  N   UNL     1      -2.735  -0.581  24.645  0.00  0.00    -0.209 NA
BRANCH  17  18
ATOM     18  C   UNL     1      -3.486  -0.896  24.778  0.00  0.00    +0.115 C 
BRANCH  18  19
ATOM     19  C   UNL     1      -3.656  -1.670  24.548  0.00  0.00    -0.002 A 
ATOM     20  C   UNL     1      -3.341  -2.304  24.971  0.00  0.00    +0.018 A 
ATOM     21  C   UNL     1      -3.511  -3.079  24.740  0.00  0.00    +0.099 A 
ATOM     22  N   UNL     1      -3.996  -3.217  24.087  0.00  0.00    -0.242 NA
ATOM     23  C   UNL     1      -4.310  -2.582  23.665  0.00  0.00    +0.099 A 
ATOM     24  C   UNL     1      -4.140  -1.808  23.895  0.00  0.00    +0.018 A 
ENDBRANCH  18  19
ENDBRANCH  17  18
ENDBRANCH  16  17
TORSDOF 6
ENDMDL
MODEL 3
REMARK VINA RESULT:      -9.3      1.526      1.733
REMARK  Name = 
REMARK  6 active torsions:
REMARK  status: ('A' for Active; 'I' for Inactive)
REMARK    1  A    between atoms: C_3  and  C_4
REMARK    2  A    between atoms: C_4  and  N_5
REMARK    3  A    between atoms: C_6  and  C_8
REMARK    4  A    between atoms: C_16  and  N_17
REMARK    5  A    between atoms: N_17  and  C_18
REMARK    6  A    between atoms: C_18  and  C_19
REMARK                            x       y       z     vdW  Elec       q    Type
REMARK                         _______ _______ _______ _____ _____    ______ ____
ROOT
ATOM      1  O   UNL     1      -1.077   1.215  23.744  0.00  0.00    -0.219 OA
ATOM      2  C   UNL     1      -1.037   1.105  24.561  0.00  0.00    +0.199 C 
ATOM      3  C   UNL     1      -1.076   0.383  24.956  0.00  0.00    +0.169 C 
ATOM     14  O   UNL     1      -1.014   0.530  25.764  0.00  0.00    -0.350 OA
ATOM     15  C   UNL     1      -0.937   1.345  25.870  0.00  0.00    +0.162 C 
ATOM     16  C   UNL     1      -0.952   1.701  25.126  0.00  0.00    +0.135 C 
ENDROOT
BRANCH   3   4
ATOM      4  C   UNL     1      -1.161  -0.359  24.603  0.00  0.00    +0.148 C 
BRANCH   4   5
ATOM      5  N   UNL     1      -1.899  -0.726  24.588  0.00  0.00    -0.199 NA
ATOM      6  C   UNL     1      -1.962  -1.518  24.365  0.00  0.00    +0.265 C 
ATOM      7  O   UNL     1      -1.286  -1.942  24.157  0.00  0.00    -0.268 OA
BRANCH   6   8
ATOM      8  C   UNL     1      -2.701  -1.885  24.350  0.00  0.00    +0.055 A 
ATOM      9  C   UNL     1      -2.801  -2.623  24.703  0.00  0.00    +0.005 A 
ATOM     10  C   UNL     1      -3.540  -2.991  24.688  0.00  0.00    +0.000 A 
ATOM     11  C   UNL     1      -4.178  -2.619  24.319  0.00  0.00    +0.000 A 
ATOM     12  C   UNL     1      -4.077  -1.880  23.966  0.00  0.00    +0.000 A 
ATOM     13  C   UNL     1      -3.338  -1.513  23.981  0.00  0.00    +0.005 A 
ENDBRANCH   6   8
ENDBRANCH   4   5
ENDBRANCH   3   4
BRANCH  16  17
ATOM     17  N   UNL     1      -0.891   2.509  24.974  0.00  0.00    -0.209 NA
BRANCH  17  18
ATOM     18  C   UNL     1      -1.056   3.054  25.570  0.00  0.00    +0.115 C 
BRANCH  18  19
ATOM     19  C   UNL     1      -1.185   3.847  25.381  0.00  0.00    -0.002 A 
ATOM     20  C   UNL     1      -0.587   4.287  25.020  0.00  0.00    +0.018 A 
ATOM     21  C   UNL     1      -0.716   5.080  24.830  0.00  0.00    +0.099 A 
ATOM     22  N   UNL     1      -1.442   5.432  25.001  0.00  0.00    -0.242 NA
ATOM     23  C   UNL     1      -2.040   4.992  25.362  0.00  0.00    +0.099 A 
ATOM     24  C   UNL     1      -1.911   4.199  25.552  0.00  0.00    +0.018 A 
ENDBRANCH  18  19
ENDBRANCH  17  18
ENDBRANCH  16  17
TORSDOF 6
ENDMDL
MODEL 4
REMARK VINA RESULT:      -6.8     17.490     18.931
REMARK  Name = 
REMARK  6 active torsions:
REMARK  status: ('A' for Active; 'I' for Inactive)
REMARK    1  A    between atoms: C_3  and  C_4
REMARK    2  A    between atoms: C_4  and  N_5
REMARK    3  A    between atoms: C_6  and  C_8
REMARK    4  A    between atoms: C_16  and  N_17
REMARK    5  A    between atoms: N_17  and  C_18
REMARK    6  A    between atoms: C_18  and  C_19
REMARK                            x       y       z     vdW  Elec       q    Type
REMARK                         _______ _______ _______ _____ _____    ______ ____
ROOT
ATOM      1  O   UNL     1      12.546   6.671  18.953  0.00  0.00    -0.219 OA
ATOM      2  C   UNL     1      12.671   7.444  19.212  0.00  0.00    +0.199 C 
ATOM      3  C   UNL     1      13.177   7.676  19.820  0.00  0.00    +0.169 C 
ATOM     14  O   UNL     1      13.131   8.496  19.891  0.00  0.00    -0.350 OA
ATOM     15  C   UNL     1      12.596   8.772  19.327  0.00  0.00    +0.162 C 
ATOM     16  C   UNL     1      12.312   8.122  18.907  0.00  0.00    +0.135 C 
ENDROOT
BRANCH   3   4
ATOM      4  C   UNL     1      13.647   7.175  20.278  0.00  0.00    +0.148 C 
BRANCH   4   5
ATOM      5  N   UNL     1      14.469   7.236  20.244  0.00  0.00    -0.199 NA
ATOM      6  C   UNL     1      14.940   6.712  20.674  0.00  0.00    +0.265 C 
ATOM      7  O   UNL     1      14.587   6.126  21.136  0.00  0.00    -0.268 OA
BRANCH   6   8
ATOM      8  C   UNL     1      15.761   6.773  20.640  0.00  0.00    +0.055 A 
ATOM      9  C   UNL     1      16.162   7.242  21.187  0.00  0.00    +0.005 A 
ATOM     10  C   UNL     1      16.985   7.303  21.154  0.00  0.00    +0.000 A 
ATOM     11  C   UNL     1      17.405   6.895  20.573  0.00  0.00    +0.000 A 
ATOM     12  C   UNL     1      17.004   6.425  20.026  0.00  0.00    +0.000 A 
ATOM     13  C   UNL     1      16.182   6.364  20.059  0.00  0.00    +0.005 A 
ENDBRANCH   6   8
ENDBRANCH   4   5
ENDBRANCH   3   4
BRANCH  16  17
ATOM     17  N   UNL     1      11.765   8.144  18.290  0.00  0.00    -0.209 NA
BRANCH  17  18
ATOM     18  C   UNL     1      11.608   8.856  17.904  0.00  0.00    +0.115 C 
BRANCH  18  19
ATOM     19  C   UNL     1      11.359   8.853  17.117  0.00  0.00    -0.002 A 
ATOM     20  C   UNL     1      11.893   9.030  16.514  0.00  0.00    +0.018 A 
ATOM     21  C   UNL     1      11.643   9.026  15.727  0.00  0.00    +0.099 A 
ATOM     22  N   UNL     1      10.859   8.846  15.545  0.00  0.00    -0.242 NA
ATOM     23  C   UNL     1      10.325   8.669  16.148  0.00  0.00    +0.099 A 
ATOM     24  C   UNL     1      10.575   8.672  16.934  0.00  0.00    +0.018 A 
ENDBRANCH  18  19
ENDBRANCH  17  18
ENDBRANCH  16  17
TORSDOF 6
ENDMDL
MODEL 5
REMARK VINA RESULT:      -6.4     14.422     16.769
REMARK  Name = 
REMARK  6 active torsions:
REMARK  status: ('A' for Active; 'I' for Inactive)
REMARK    1  A    between atoms: C_3  and  C_4
REMARK    2  A    between atoms: C_4  and  N_5
REMARK    3  A    between atoms: C_6  and  C_8
REMARK    4  A    between atoms: C_16  and  N_17
REMARK    5  A    between atoms: N_17  and  C_18
REMARK    6  A    between atoms: C_18  and  C_19
REMARK                            x       y       z     vdW  Elec       q    Type
REMARK                         _______ _______ _______ _____ _____    ______ ____
ROOT
ATOM      1  O   UNL     1      -3.187 -10.780  14.363  0.00  0.00    -0.219 OA
ATOM      2  C   UNL     1      -3.939 -10.587  14.085  0.00  0.00    +0.199 C 
ATOM      3  C   UNL     1      -4.140 -10.426  13.301  0.00  0.00    +0.169 C 
ATOM     14  O   UNL     1      -4.947 -10.260  13.274  0.00  0.00    -0.350 OA
ATOM     15  C   UNL     1      -5.246 -10.319  14.041  0.00  0.00    +0.162 C 
ATOM     16  C   UNL     1      -4.623 -10.521  14.542  0.00  0.00    +0.135 C 
ENDROOT
BRANCH   3   4
ATOM      4  C   UNL     1      -3.623 -10.429  12.658  0.00  0.00    +0.148 C 
BRANCH   4   5
ATOM      5  N   UNL     1      -3.886 -10.180  11.916  0.00  0.00    -0.199 NA
ATOM      6  C   UNL     1      -3.371 -10.191  11.271  0.00  0.00    +0.265 C 
ATOM      7  O   UNL     1      -2.594 -10.449  11.368  0.00  0.00    -0.268 OA
BRANCH   6   8
ATOM      8  C   UNL     1      -3.634  -9.942  10.530  0.00  0.00    +0.055 A 
ATOM      9  C   UNL     1      -3.993 -10.480  10.018  0.00  0.00    +0.005 A 
ATOM     10  C   UNL     1      -4.256 -10.231   9.276  0.00  0.00    +0.000 A 
ATOM     11  C   UNL     1      -4.160  -9.445   9.047  0.00  0.00    +0.000 A 
ATOM     12  C   UNL     1      -3.801  -8.906   9.560  0.00  0.00    +0.000 A 
ATOM     13  C   UNL     1      -3.538  -9.155  10.301  0.00  0.00    +0.005 A 
ENDBRANCH   6   8
ENDBRANCH   4   5
ENDBRANCH   3   4
BRANCH  16  17
ATOM     17  N   UNL     1      -4.674 -10.637  15.357  0.00  0.00    -0.209 NA
BRANCH  17  18
ATOM     18  C   UNL     1      -5.226 -10.213  15.800  0.00  0.00    +0.115 C 
BRANCH  18  19
ATOM     19  C   UNL     1      -5.345 -10.396  16.596  0.00  0.00    -0.002 A 
ATOM     20  C   UNL     1      -4.710 -10.381  17.122  0.00  0.00    +0.018 A 
ATOM     21  C   UNL     1      -4.829 -10.564  17.918  0.00  0.00    +0.099 A 
ATOM     22  N   UNL     1      -5.584 -10.762  18.186  0.00  0.00    -0.242 NA
ATOM     23  C   UNL     1      -6.219 -10.777  17.660  0.00  0.00    +0.099 A 
ATOM     24  C   UNL     1      -6.099 -10.594  16.864  0.00  0.00    +0.018 A 
ENDBRANCH  18  19
ENDBRANCH  17  18
ENDBRANCH  16  17
TORSDOF 6
ENDMDL
MODEL 6
REMARK VINA RESULT:      -6.2     17.306     19.052
REMARK  Name = 
REMARK  6 active torsions:
REMARK  status: ('A' for Active; 'I' for Inactive)
REMARK    1  A    between atoms: C_3  and  C_4
REMARK    2  A    between atoms: C_4  and  N_5
REMARK    3  A    between atoms: C_6  and  C_8
REMARK    4  A    between atoms: C_16  and  N_17
REMARK    5  A    between atoms: N_17  and  C_18
REMARK    6  A    between atoms: C_18  and  C_19
REMARK                            x       y       z     vdW  Elec       q    Type
REMARK                         _______ _______ _______ _____ _____    ______ ____
ROOT
ATOM      1  O   UNL     1      13.139   6.842  20.167  0.00  0.00    -0.219 OA
ATOM      2  C   UNL     1      13.565   7.129  19.521  0.00  0.00    +0.199 C 
ATOM      3  C   UNL     1      13.245   7.476  18.845  0.00  0.00    +0.169 C 
ATOM     14  O   UNL     1      13.868   7.681  18.345  0.00  0.00    -0.350 OA
ATOM     15  C   UNL     1      14.573   7.460  18.712  0.00  0.00    +0.162 C 
ATOM     16  C   UNL     1      14.386   7.118  19.439  0.00  0.00    +0.135 C 
ENDROOT
BRANCH   3   4
ATOM      4  C   UNL     1      12.443   7.598  18.696  0.00  0.00    +0.148 C 
BRANCH   4   5
ATOM      5  N   UNL     1      12.195   7.844  17.948  0.00  0.00    -0.199 NA
ATOM      6  C   UNL     1      11.470   8.228  17.859  0.00  0.00    +0.265 C 
ATOM      7  O   UNL     1      10.994   8.367  18.518  0.00  0.00    -0.268 OA
BRANCH   6   8
ATOM      8  C   UNL     1      11.222   8.474  17.111  0.00  0.00    +0.055 A 
ATOM      9  C   UNL     1      11.754   8.847  16.604  0.00  0.00    +0.005 A 
ATOM     10  C   UNL     1      11.506   9.093  15.855  0.00  0.00    +0.000 A 
ATOM     11  C   UNL     1      10.727   8.964  15.616  0.00  0.00    +0.000 A 
ATOM     12  C   UNL     1      10.196   8.590  16.125  0.00  0.00    +0.000 A 
ATOM     13  C   UNL     1      10.443   8.345  16.873  0.00  0.00    +0.005 A 
ENDBRANCH   6   8
ENDBRANCH   4   5
ENDBRANCH   3   4
BRANCH  16  17
ATOM     17  N   UNL     1      14.924   6.819  19.987  0.00  0.00    -0.209 NA
BRANCH  17  18
ATOM     18  C   UNL     1      15.729   6.801  19.807  0.00  0.00    +0.115 C 
BRANCH  18  19
ATOM     19  C   UNL     1      16.288   6.793  20.414  0.00  0.00    -0.002 A 
ATOM     20  C   UNL     1      16.373   6.123  20.888  0.00  0.00    +0.018 A 
ATOM     21  C   UNL     1      16.932   6.116  21.495  0.00  0.00    +0.099 A 
ATOM     22  N   UNL     1      17.405   6.779  21.628  0.00  0.00    -0.242 NA
ATOM     23  C   UNL     1      17.320   7.448  21.154  0.00  0.00    +0.099 A 
ATOM     24  C   UNL     1      16.761   7.456  20.546  0.00  0.00    +0.018 A 
ENDBRANCH  18  19
ENDBRANCH  17  18
ENDBRANCH  16  17
TORSDOF 6
ENDMDL
MODEL 7
REMARK VINA RESULT:      -6.1     13.786     15.673
REMARK  Name = 
REMARK  6 active torsions:
REMARK  status: ('A' for Active; 'I' for Inactive)
REMARK    1  A    between atoms: C_3  and  C_4
REMARK    2  A    between atoms: C_4  and  N_5
REMARK    3  A    between atoms: C_6  and  C_8
REMARK    4  A    between atoms: C_16  and  N_17
REMARK    5  A    between atoms: N_17  and  C_18
REMARK    6  A    between atoms: C_18  and  C_19
REMARK                            x       y       z     vdW  Elec       q    Type
REMARK                         _______ _______ _______ _____ _____    ______ ____
ROOT
ATOM      1  O   UNL     1      -3.497 -10.765  16.925  0.00  0.00    -0.219 OA
ATOM      2  C   UNL     1      -4.128 -10.743  16.394  0.00  0.00    +0.199 C 
ATOM      3  C   UNL     1      -4.069 -10.720  15.572  0.00  0.00    +0.169 C 
ATOM     14  O   UNL     1      -4.832 -10.703  15.261  0.00  0.00    -0.350 OA
ATOM     15  C   UNL     1      -5.364 -10.715  15.892  0.00  0.00    +0.162 C 
ATOM     16  C   UNL     1      -4.929 -10.740  16.592  0.00  0.00    +0.135 C 
ENDROOT
BRANCH   3   4
ATOM      4  C   UNL     1      -3.368 -10.715  15.136  0.00  0.00    +0.148 C 
BRANCH   4   5
ATOM      5  N   UNL     1      -3.391 -10.612  14.318  0.00  0.00    -0.199 NA
ATOM      6  C   UNL     1      -2.689 -10.584  13.885  0.00  0.00    +0.265 C 
ATOM      7  O   UNL     1      -1.964 -10.660  14.271  0.00  0.00    -0.268 OA
BRANCH   6   8
ATOM      8  C   UNL     1      -2.713 -10.481  13.067  0.00  0.00    +0.055 A 
ATOM      9  C   UNL     1      -3.437 -10.468  12.674  0.00  0.00    +0.005 A 
ATOM     10  C   UNL     1      -3.461 -10.365  11.855  0.00  0.00    +0.000 A 
ATOM     11  C   UNL     1      -2.760 -10.273  11.431  0.00  0.00    +0.000 A 
ATOM     12  C   UNL     1      -2.034 -10.286  11.825  0.00  0.00    +0.000 A 
ATOM     13  C   UNL     1      -2.011 -10.389  12.643  0.00  0.00    +0.005 A 
ENDBRANCH   6   8
ENDBRANCH   4   5
ENDBRANCH   3   4
BRANCH  16  17
ATOM     17  N   UNL     1      -5.240 -10.759  17.355  0.00  0.00    -0.209 NA
BRANCH  17  18
ATOM     18  C   UNL     1      -5.967 -10.403  17.513  0.00  0.00    +0.115 C 
BRANCH  18  19
ATOM     19  C   UNL     1      -6.320 -10.497  18.254  0.00  0.00    -0.002 A 
ATOM     20  C   UNL     1      -5.872 -10.399  18.939  0.00  0.00    +0.018 A 
ATOM     21  C   UNL     1      -6.225 -10.492  19.680  0.00  0.00    +0.099 A 
ATOM     22  N   UNL     1      -7.026 -10.683  19.733  0.00  0.00    -0.242 NA
ATOM     23  C   UNL     1      -7.474 -10.781  19.048  0.00  0.00    +0.099 A 
ATOM     24  C   UNL     1      -7.121 -10.687  18.307  0.00  0.00    +0.018 A 
ENDBRANCH  18  19
ENDBRANCH  17  18
ENDBRANCH  16  17
TORSDOF 6
ENDMDL
MODEL 8
REMARK VINA RESULT:      -5.9     14.335     16.497
REMARK  Name = 
REMARK  6 active torsions:
REMARK  status: ('A' for Active; 'I' for Inactive)
REMARK    1  A    between atoms: C_3  and  C_4
REMARK    2  A    between atoms: C_4  and  N_5
REMARK    3  A    between atoms: C_6  and  C_8
REMARK    4  A    between atoms: C_16  and  N_17
REMARK    5  A    between atoms: N_17  and  C_18
REMARK    6  A    between atoms: C_18  and  C_19
REMARK                            x       y       z     vdW  Elec       q    Type
REMARK                         _______ _______ _______ _____ _____    ______ ____
ROOT
ATOM      1  O   UNL     1      -6.179  -9.412  12.926  0.00  0.00    -0.219 OA
ATOM      2  C   UNL     1      -5.526  -9.867  13.144  0.00  0.00    +0.199 C 
ATOM      3  C   UNL     1      -5.345 -10.122  13.908  0.00  0.00    +0.169 C 
ATOM     14  O   UNL     1      -4.647 -10.559  13.872  0.00  0.00    -0.350 OA
ATOM     15  C   UNL     1      -4.395 -10.574  13.086  0.00  0.00    +0.162 C 
ATOM     16  C   UNL     1      -4.938 -10.146  12.636  0.00  0.00    +0.135 C 
ENDROOT
BRANCH   3   4
ATOM      4  C   UNL     1      -5.787  -9.967  14.588  0.00  0.00    +0.148 C 
BRANCH   4   5
ATOM      5  N   UNL     1      -5.510 -10.214  15.324  0.00  0.00    -0.199 NA
ATOM      6  C   UNL     1      -5.920 -10.006  16.010  0.00  0.00    +0.265 C 
ATOM      7  O   UNL     1      -6.606  -9.552  15.958  0.00  0.00    -0.268 OA
BRANCH   6   8
ATOM      8  C   UNL     1      -5.642 -10.253  16.747  0.00  0.00    +0.055 A 
ATOM      9  C   UNL     1      -6.171 -10.533  17.313  0.00  0.00    +0.005 A 
ATOM     10  C   UNL     1      -5.895 -10.780  18.051  0.00  0.00    +0.000 A 
ATOM     11  C   UNL     1      -5.088 -10.746  18.220  0.00  0.00    +0.000 A 
ATOM     12  C   UNL     1      -4.558 -10.465  17.653  0.00  0.00    +0.000 A 
ATOM     13  C   UNL     1      -4.835 -10.219  16.916  0.00  0.00    +0.005 A 
ENDBRANCH   6   8
ENDBRANCH   4   5
ENDBRANCH   3   4
BRANCH  16  17
ATOM     17  N   UNL     1      -4.900 -10.020  11.823  0.00  0.00    -0.209 NA
BRANCH  17  18
ATOM     18  C   UNL     1      -4.179 -10.085  11.428  0.00  0.00    +0.115 C 
BRANCH  18  19
ATOM     19  C   UNL     1      -4.134  -9.923  10.620  0.00  0.00    -0.002 A 
ATOM     20  C   UNL     1      -4.404 -10.477  10.072  0.00  0.00    +0.018 A 
ATOM     21  C   UNL     1      -4.359 -10.315   9.264  0.00  0.00    +0.099 A 
ATOM     22  N   UNL     1      -4.044  -9.598   9.005  0.00  0.00    -0.242 NA
ATOM     23  C   UNL     1      -3.774  -9.043   9.553  0.00  0.00    +0.099 A 
ATOM     24  C   UNL     1      -3.819  -9.206  10.361  0.00  0.00    +0.018 A 
ENDBRANCH  18  19
ENDBRANCH  17  18
ENDBRANCH  16  17
TORSDOF 6
ENDMDL
MODEL 9
REMARK VINA RESULT:      -5.8     15.482     18.118
REMARK  Name = 
REMARK  6 active torsions:
REMARK  status: ('A' for Active; 'I' for Inactive)
REMARK    1  A    between atoms: C_3  and  C_4
REMARK    2  A    between atoms: C_4  and  N_5
REMARK    3  A    between atoms: C_6  and  C_8
REMARK    4  A    between atoms: C_16  and  N_17
REMARK    5  A    between atoms: N_17  and  C_18
REMARK    6  A    between atoms: C_18  and  C_19
REMARK                            x       y       z     vdW  Elec       q    Type
REMARK                         _______ _______ _______ _____ _____    ______ ____
ROOT
ATOM      1  O   UNL     1      12.150   7.021  18.567  0.00  0.00    -0.219 OA
ATOM      2  C   UNL     1      12.883   7.165  18.917  0.00  0.00    +0.199 C 
ATOM      3  C   UNL     1      13.063   7.078  19.717  0.00  0.00    +0.169 C 
ATOM     14  O   UNL     1      13.855   7.281  19.823  0.00  0.00    -0.350 OA
ATOM     15  C   UNL     1      14.165   7.494  19.088  0.00  0.00    +0.162 C 
ATOM     16  C   UNL     1      13.564   7.423  18.528  0.00  0.00    +0.135 C 
ENDROOT
BRANCH   3   4
ATOM      4  C   UNL     1      12.543   6.830  20.308  0.00  0.00    +0.148 C 
BRANCH   4   5
ATOM      5  N   UNL     1      12.184   7.386  20.801  0.00  0.00    -0.199 NA
ATOM      6  C   UNL     1      11.669   7.138  21.396  0.00  0.00    +0.265 C 
ATOM      7  O   UNL     1      11.513   6.334  21.497  0.00  0.00    -0.268 OA
BRANCH   6   8
ATOM      8  C   UNL     1      11.310   7.693  21.889  0.00  0.00    +0.055 A 
ATOM      9  C   UNL     1      10.559   7.548  22.195  0.00  0.00    +0.005 A 
ATOM     10  C   UNL     1      10.199   8.104  22.689  0.00  0.00    +0.000 A 
ATOM     11  C   UNL     1      10.593   8.805  22.875  0.00  0.00    +0.000 A 
ATOM     12  C   UNL     1      11.345   8.950  22.568  0.00  0.00    +0.000 A 
ATOM     13  C   UNL     1      11.704   8.394  22.075  0.00  0.00    +0.005 A 
ENDBRANCH   6   8
ENDBRANCH   4   5
ENDBRANCH   3   4
BRANCH  16  17
ATOM     17  N   UNL     1      13.631   7.581  17.722  0.00  0.00    -0.209 NA
BRANCH  17  18
ATOM     18  C   UNL     1      13.960   8.294  17.468  0.00  0.00    +0.115 C 
BRANCH  18  19
ATOM     19  C   UNL     1      13.930   8.500  16.669  0.00  0.00    -0.002 A 
ATOM     20  C   UNL     1      14.564   8.321  16.173  0.00  0.00    +0.018 A 
ATOM     21  C   UNL     1      14.534   8.528  15.374  0.00  0.00    +0.099 A 
ATOM     22  N   UNL     1      13.870   8.913  15.073  0.00  0.00    -0.242 NA
ATOM     23  C   UNL     1      13.236   9.092  15.569  0.00  0.00    +0.099 A 
ATOM     24  C   UNL     1      13.266   8.886  16.368  0.00  0.00    +0.018 A 
ENDBRANCH  18  19
ENDBRANCH  17  18
ENDBRANCH  16  17
TORSDOF 6
ENDMDL
MODEL 10
REMARK VINA RESULT:      -5.8     15.570     18.499
REMARK  Name = 
REMARK  6 active torsions:
REMARK  status: ('A' for Active; 'I' for Inactive)
REMARK    1  A    between atoms: C_3  and  C_4
REMARK    2  A    between atoms: C_4  and  N_5
REMARK    3  A    between atoms: C_6  and  C_8
REMARK    4  A    between atoms: C_16  and  N_17
REMARK    5  A    between atoms: N_17  and  C_18
REMARK    6  A    between atoms: C_18  and  C_19
REMARK                            x       y       z     vdW  Elec       q    Type
REMARK                         _______ _______ _______ _____ _____    ______ ____
ROOT
ATOM      1  O   UNL     1      12.748   6.490  19.817  0.00  0.00    -0.219 OA
ATOM      2  C   UNL     1      12.741   7.266  19.537  0.00  0.00    +0.199 C 
ATOM      3  C   UNL     1      13.292   7.601  19.023  0.00  0.00    +0.169 C 
ATOM     14  O   UNL     1      13.073   8.384  18.890  0.00  0.00    -0.350 OA
ATOM     15  C   UNL     1      12.386   8.534  19.322  0.00  0.00    +0.162 C 
ATOM     16  C   UNL     1      12.181   7.843  19.722  0.00  0.00    +0.135 C 
ENDROOT
BRANCH   3   4
ATOM      4  C   UNL     1      13.948   7.218  18.698  0.00  0.00    +0.148 C 
BRANCH   4   5
ATOM      5  N   UNL     1      14.638   7.136  19.142  0.00  0.00    -0.199 NA
ATOM      6  C   UNL     1      15.333   6.878  18.779  0.00  0.00    +0.265 C 
ATOM      7  O   UNL     1      15.337   6.702  17.973  0.00  0.00    -0.268 OA
BRANCH   6   8
ATOM      8  C   UNL     1      16.024   6.796  19.223  0.00  0.00    +0.055 A 
ATOM      9  C   UNL     1      16.221   7.363  19.787  0.00  0.00    +0.005 A 
ATOM     10  C   UNL     1      16.912   7.281  20.232  0.00  0.00    +0.000 A 
ATOM     11  C   UNL     1      17.405   6.631  20.110  0.00  0.00    +0.000 A 
ATOM     12  C   UNL     1      17.208   6.063  19.544  0.00  0.00    +0.000 A 
ATOM     13  C   UNL     1      16.517   6.146  19.101  0.00  0.00    +0.005 A 
ENDBRANCH   6   8
ENDBRANCH   4   5
ENDBRANCH   3   4
BRANCH  16  17
ATOM     17  N   UNL     1      11.530   7.746  20.219  0.00  0.00    -0.209 NA
BRANCH  17  18
ATOM     18  C   UNL     1      11.139   8.406  20.520  0.00  0.00    +0.115 C 
BRANCH  18  19
ATOM     19  C   UNL     1      10.817   8.385  21.280  0.00  0.00    -0.002 A 
ATOM     20  C   UNL     1      10.387   7.726  21.527  0.00  0.00    +0.018 A 
ATOM     21  C   UNL     1      10.066   7.705  22.287  0.00  0.00    +0.099 A 
ATOM     22  N   UNL     1      10.175   8.343  22.799  0.00  0.00    -0.242 NA
ATOM     23  C   UNL     1      10.605   9.001  22.551  0.00  0.00    +0.099 A 
ATOM     24  C   UNL     1      10.927   9.023  21.791  0.00  0.00    +0.018 A 
ENDBRANCH  18  19
ENDBRANCH  17  18
ENDBRANCH  16  17
TORSDOF 6
ENDMDL
