MODEL 1
REMARK VINA RESULT:     -10.2      0.000      0.000
REMARK  Name = 
REMARK  7 active torsions:
REMARK  status: ('A' for Active; 'I' for Inactive)
REMARK    1  A    between atoms: C_2  and  C_4
REMARK    2  A    between atoms: C_7  and  N_8
REMARK    3  A    between atoms: N_11  and  C_12
REMARK    4  A    between atoms: C_16  and  O_20
REMARK    5  A    between atoms: O_20  and  C_21
REMARK    6  A    between atoms: N_23  and  C_24
REMARK    7  A    between atoms: C_26  and  C_30
REMARK                            x       y       z     vdW  Elec       q    Type
REMARK                         _______ _______ _______ _____ _____    ______ ____
ROOT
ATOM     12  C   UNL     1       0.168  -0.005  23.364  0.00  0.00    +0.156 C 
ATOM     13  C   UNL     1       0.113  -0.626  23.904  0.00  0.00    +0.166 C 
ATOM     14  O   UNL     1      -0.566  -0.509  24.357  0.00  0.00    -0.348 OA
ATOM     15  C   UNL     1      -0.931   0.183  24.097  0.00  0.00    +0.186 C 
ATOM     16  C   UNL     1      -1.576   0.683  24.215  0.00  0.00    +0.229 C 
ATOM     17  C   UNL     1      -1.522   1.303  23.674  0.00  0.00    +0.188 C 
ATOM     18  O   UNL     1      -0.842   1.187  23.221  0.00  0.00    -0.348 OA
ATOM     19  C   UNL     1      -0.477   0.494  23.483  0.00  0.00    +0.168 C 
ENDROOT
BRANCH  12  11
ATOM      8  N   UNL     1       2.151   0.186  22.472  0.00  0.00    -0.161 NA
ATOM      9  C   UNL     1       1.556   0.083  23.033  0.00  0.00    +0.344 C 
ATOM     10  O   UNL     1       1.751  -0.033  23.827  0.00  0.00    -0.249 OA
ATOM     11  N   UNL     1       0.764   0.097  22.802  0.00  0.00    -0.184 NA
BRANCH   8   7
ATOM      4  C   UNL     1       4.527   0.144  23.166  0.00  0.00    +0.035 A 
ATOM      5  C   UNL     1       4.086  -0.554  23.161  0.00  0.00    +0.004 A 
ATOM      6  C   UNL     1       3.294  -0.539  22.930  0.00  0.00    +0.017 A 
ATOM      7  C   UNL     1       2.943   0.172  22.703  0.00  0.00    +0.075 A 
ATOM     34  C   UNL     1       3.384   0.869  22.708  0.00  0.00    +0.017 A 
ATOM     35  C   UNL     1       4.176   0.855  22.939  0.00  0.00    +0.004 A 
BRANCH   4   2
ATOM      1  C   UNL     1       5.515   0.178  24.197  0.00  0.00    +0.077 C 
ATOM      2  C   UNL     1       5.319   0.129  23.397  0.00  0.00    +0.173 C 
ATOM      3  O   UNL     1       5.914   0.066  22.829  0.00  0.00    -0.291 OA
ENDBRANCH   4   2
ENDBRANCH   8   7
ENDBRANCH  12  11
BRANCH  16  20
ATOM     20  O   UNL     1      -2.172   0.580  24.777  0.00  0.00    -0.432 OA
BRANCH  20  21
ATOM     21  C   UNL     1      -2.917   0.914  24.654  0.00  0.00    +0.425 C 
ATOM     22  O   UNL     1      -3.229   0.955  23.892  0.00  0.00    -0.224 OA
ATOM     23  N   UNL     1      -3.349   1.205  25.293  0.00  0.00    -0.142 NA
BRANCH  23  24
ATOM     24  C   UNL     1      -4.094   1.538  25.170  0.00  0.00    +0.077 A 
ATOM     25  C   UNL     1      -4.208   2.347  25.280  0.00  0.00    +0.021 A 
ATOM     26  C   UNL     1      -4.952   2.680  25.157  0.00  0.00    +0.073 A 
ATOM     27  C   UNL     1      -5.584   2.203  24.924  0.00  0.00    +0.004 A 
ATOM     28  C   UNL     1      -5.471   1.393  24.814  0.00  0.00    +0.001 A 
ATOM     29  C   UNL     1      -4.726   1.061  24.937  0.00  0.00    +0.017 A 
BRANCH  26  30
ATOM     30  C   UNL     1      -5.065   3.490  25.267  0.00  0.00    +0.419 C 
ATOM     31  F   UNL     1      -5.178   4.300  25.376  0.00  0.00    -0.166 F 
ATOM     32  F   UNL     1      -4.733   3.637  24.526  0.00  0.00    -0.166 F 
ATOM     33  F   UNL     1      -5.397   3.344  26.007  0.00  0.00    -0.166 F 
ENDBRANCH  26  30
ENDBRANCH  23  24
ENDBRANCH  20  21
ENDBRANCH  16  20
TORSDOF 7
ENDMDL
MODEL 2
REMARK VINA RESULT:      -9.6      1.783      2.115
REMARK  Name = 
REMARK  7 active torsions:
REMARK  status: ('A' for Active; 'I' for Inactive)
REMARK    1  A    between atoms: C_2  and  C_4
REMARK    2  A    between atoms: C_7  and  N_8
REMARK    3  A    between atoms: N_11  and  C_12
REMARK    4  A    between atoms: C_16  and  O_20
REMARK    5  A    between atoms: O_20  and  C_21
REMARK    6  A    between atoms: N_23  and  C_24
REMARK    7  A    between atoms: C_26  and  C_30
REMARK                            x       y       z     vdW  Elec       q    Type
REMARK                         _______ _______ _______ _____ _____    ______ ____
ROOT
ATOM     12  C   UNL     1       0.094   0.080  23.413  0.00  0.00    +0.156 C 
ATOM     13  C   UNL     1       0.006  -0.272  24.153  0.00  0.00    +0.166 C 
ATOM     14  O   UNL     1      -0.671   0.042  24.505  0.00  0.00    -0.348 OA
ATOM     15  C   UNL     1      -1.001   0.588  23.983  0.00  0.00    +0.186 C 
ATOM     16  C   UNL     1      -1.623   1.120  23.877  0.00  0.00    +0.229 C 
ATOM     17  C   UNL     1      -1.535   1.472  23.136  0.00  0.00    +0.188 C 
ATOM     18  O   UNL     1      -0.858   1.158  22.784  0.00  0.00    -0.348 OA
ATOM     19  C   UNL     1      -0.528   0.611  23.307  0.00  0.00    +0.168 C 
ENDROOT
BRANCH  12  11
ATOM      8  N   UNL     1       2.090  -0.106  22.548  0.00  0.00    -0.161 NA
ATOM      9  C   UNL     1       1.485   0.046  23.088  0.00  0.00    +0.344 C 
ATOM     10  O   UNL     1       1.668   0.318  23.846  0.00  0.00    -0.249 OA
ATOM     11  N   UNL     1       0.698  -0.073  22.872  0.00  0.00    -0.184 NA
BRANCH   8   7
ATOM      4  C   UNL     1       4.451   0.252  23.196  0.00  0.00    +0.035 A 
ATOM      5  C   UNL     1       4.029   0.856  22.824  0.00  0.00    +0.004 A 
ATOM      6  C   UNL     1       3.242   0.736  22.608  0.00  0.00    +0.017 A 
ATOM      7  C   UNL     1       2.877   0.013  22.764  0.00  0.00    +0.075 A 
ATOM     34  C   UNL     1       3.298  -0.590  23.136  0.00  0.00    +0.017 A 
ATOM     35  C   UNL     1       4.086  -0.471  23.352  0.00  0.00    +0.004 A 
BRANCH   4   2
ATOM      1  C   UNL     1       5.825  -0.135  23.129  0.00  0.00    +0.077 C 
ATOM      2  C   UNL     1       5.238   0.372  23.412  0.00  0.00    +0.173 C 
ATOM      3  O   UNL     1       5.439   0.997  23.911  0.00  0.00    -0.291 OA
ENDBRANCH   4   2
ENDBRANCH   8   7
ENDBRANCH  12  11
BRANCH  16  20
ATOM     20  O   UNL     1      -2.227   1.272  24.418  0.00  0.00    -0.432 OA
BRANCH  20  21
ATOM     21  C   UNL     1      -2.427   2.051  24.605  0.00  0.00    +0.425 C 
ATOM     22  O   UNL     1      -2.951   2.469  24.125  0.00  0.00    -0.224 OA
ATOM     23  N   UNL     1      -2.102   2.411  25.272  0.00  0.00    -0.142 NA
BRANCH  23  24
ATOM     24  C   UNL     1      -2.302   3.190  25.459  0.00  0.00    +0.077 A 
ATOM     25  C   UNL     1      -1.809   3.809  25.229  0.00  0.00    +0.021 A 
ATOM     26  C   UNL     1      -2.008   4.587  25.416  0.00  0.00    +0.073 A 
ATOM     27  C   UNL     1      -2.701   4.746  25.834  0.00  0.00    +0.004 A 
ATOM     28  C   UNL     1      -3.195   4.126  26.064  0.00  0.00    +0.001 A 
ATOM     29  C   UNL     1      -2.995   3.348  25.877  0.00  0.00    +0.017 A 
BRANCH  26  30
ATOM     30  C   UNL     1      -1.514   5.206  25.185  0.00  0.00    +0.419 C 
ATOM     31  F   UNL     1      -1.020   5.825  24.955  0.00  0.00    -0.166 F 
ATOM     32  F   UNL     1      -0.919   4.915  25.677  0.00  0.00    -0.166 F 
ATOM     33  F   UNL     1      -2.108   5.497  24.693  0.00  0.00    -0.166 F 
ENDBRANCH  26  30
ENDBRANCH  23  24
ENDBRANCH  20  21
ENDBRANCH  16  20
TORSDOF 7
ENDMDL
MODEL 3
REMARK VINA RESULT:      -9.5      3.415      7.877
REMARK  Name = 
REMARK  7 active torsions:
REMARK  status: ('A' for Active; 'I' for Inactive)
REMARK    1  A    between atoms: C_2  and  C_4
REMARK    2  A    between atoms: C_7  and  N_8
REMARK    3  A    between atoms: N_11  and  C_12
REMARK    4  A    between atoms: C_16  and  O_20
REMARK    5  A    between atoms: O_20  and  C_21
REMARK    6  A    between atoms: N_23  and  C_24
REMARK    7  A    between atoms: C_26  and  C_30
REMARK                            x       y       z     vdW  Elec       q    Type
REMARK                         _______ _______ _______ _____ _____    ______ ____
ROOT
ATOM     12  C   UNL     1      -1.055   0.504  24.082  0.00  0.00    +0.156 C 
ATOM     13  C   UNL     1      -1.058   1.151  23.571  0.00  0.00    +0.166 C 
ATOM     14  O   UNL     1      -0.373   1.118  23.114  0.00  0.00    -0.348 OA
ATOM     15  C   UNL     1       0.054   0.450  23.341  0.00  0.00    +0.186 C 
ATOM     16  C   UNL     1       0.741   0.016  23.199  0.00  0.00    +0.229 C 
ATOM     17  C   UNL     1       0.744  -0.632  23.710  0.00  0.00    +0.188 C 
ATOM     18  O   UNL     1       0.059  -0.598  24.168  0.00  0.00    -0.348 OA
ATOM     19  C   UNL     1      -0.368   0.071  23.940  0.00  0.00    +0.168 C 
ENDROOT
BRANCH  12  11
ATOM      8  N   UNL     1      -2.948   0.526  25.169  0.00  0.00    -0.161 NA
ATOM      9  C   UNL     1      -2.366   0.707  24.614  0.00  0.00    +0.344 C 
ATOM     10  O   UNL     1      -2.513   1.275  24.033  0.00  0.00    -0.249 OA
ATOM     11  N   UNL     1      -1.637   0.322  24.638  0.00  0.00    -0.184 NA
BRANCH   8   7
ATOM      4  C   UNL     1      -5.136   1.681  25.096  0.00  0.00    +0.035 A 
ATOM      5  C   UNL     1      -5.076   0.895  24.853  0.00  0.00    +0.004 A 
ATOM      6  C   UNL     1      -4.346   0.510  24.878  0.00  0.00    +0.017 A 
ATOM      7  C   UNL     1      -3.677   0.911  25.145  0.00  0.00    +0.075 A 
ATOM     34  C   UNL     1      -3.737   1.697  25.387  0.00  0.00    +0.017 A 
ATOM     35  C   UNL     1      -4.466   2.082  25.363  0.00  0.00    +0.004 A 
BRANCH   4   2
ATOM      1  C   UNL     1      -5.958   2.798  25.441  0.00  0.00    +0.077 C 
ATOM      2  C   UNL     1      -5.865   2.066  25.071  0.00  0.00    +0.173 C 
ATOM      3  O   UNL     1      -6.501   1.719  24.677  0.00  0.00    -0.291 OA
ENDBRANCH   4   2
ENDBRANCH   8   7
ENDBRANCH  12  11
BRANCH  16  20
ATOM     20  O   UNL     1       1.323   0.198  22.643  0.00  0.00    -0.432 OA
BRANCH  20  21
ATOM     21  C   UNL     1       2.090   0.373  22.891  0.00  0.00    +0.425 C 
ATOM     22  O   UNL     1       2.216   0.950  23.467  0.00  0.00    -0.224 OA
ATOM     23  N   UNL     1       2.731  -0.029  22.563  0.00  0.00    -0.142 NA
BRANCH  23  24
ATOM     24  C   UNL     1       3.499   0.146  22.811  0.00  0.00    +0.077 A 
ATOM     25  C   UNL     1       3.895  -0.366  23.321  0.00  0.00    +0.021 A 
ATOM     26  C   UNL     1       4.662  -0.192  23.568  0.00  0.00    +0.073 A 
ATOM     27  C   UNL     1       5.033   0.497  23.306  0.00  0.00    +0.004 A 
ATOM     28  C   UNL     1       4.637   1.011  22.796  0.00  0.00    +0.001 A 
ATOM     29  C   UNL     1       3.870   0.835  22.549  0.00  0.00    +0.017 A 
BRANCH  26  30
ATOM     30  C   UNL     1       5.058  -0.706  24.078  0.00  0.00    +0.419 C 
ATOM     31  F   UNL     1       5.454  -1.218  24.588  0.00  0.00    -0.166 F 
ATOM     32  F   UNL     1       5.401  -0.060  24.462  0.00  0.00    -0.166 F 
ATOM     33  F   UNL     1       4.716  -1.351  23.695  0.00  0.00    -0.166 F 
ENDBRANCH  26  30
ENDBRANCH  23  24
ENDBRANCH  20  21
ENDBRANCH  16  20
TORSDOF 7
ENDMDL
MODEL 4
REMARK VINA RESULT:      -6.5     15.362     16.582
REMARK  Name = 
REMARK  7 active torsions:
REMARK  status: ('A' for Active; 'I' for Inactive)
REMARK    1  A    between atoms: C_2  and  C_4
REMARK    2  A    between atoms: C_7  and  N_8
REMARK    3  A    between atoms: N_11  and  C_12
REMARK    4  A    between atoms: C_16  and  O_20
REMARK    5  A    between atoms: O_20  and  C_21
REMARK    6  A    between atoms: N_23  and  C_24
REMARK    7  A    between atoms: C_26  and  C_30
REMARK                            x       y       z     vdW  Elec       q    Type
REMARK                         _______ _______ _______ _____ _____    ______ ____
ROOT
ATOM     12  C   UNL     1      11.962  -6.767  32.521  0.00  0.00    +0.156 C 
ATOM     13  C   UNL     1      11.532  -6.118  32.794  0.00  0.00    +0.166 C 
ATOM     14  O   UNL     1      10.745  -6.350  32.873  0.00  0.00    -0.348 OA
ATOM     15  C   UNL     1      10.687  -7.141  32.649  0.00  0.00    +0.186 C 
ATOM     16  C   UNL     1      10.166  -7.774  32.559  0.00  0.00    +0.229 C 
ATOM     17  C   UNL     1      10.596  -8.423  32.286  0.00  0.00    +0.188 C 
ATOM     18  O   UNL     1      11.383  -8.191  32.207  0.00  0.00    -0.348 OA
ATOM     19  C   UNL     1      11.440  -7.399  32.431  0.00  0.00    +0.168 C 
ENDROOT
BRANCH  12  11
ATOM      8  N   UNL     1      13.983  -6.092  32.047  0.00  0.00    -0.161 NA
ATOM      9  C   UNL     1      13.174  -6.078  32.203  0.00  0.00    +0.344 C 
ATOM     10  O   UNL     1      12.764  -5.361  32.199  0.00  0.00    -0.249 OA
ATOM     11  N   UNL     1      12.772  -6.781  32.365  0.00  0.00    -0.184 NA
BRANCH   8   7
ATOM      4  C   UNL     1      15.188  -3.984  31.565  0.00  0.00    +0.035 A 
ATOM      5  C   UNL     1      15.069  -4.222  32.346  0.00  0.00    +0.004 A 
ATOM      6  C   UNL     1      14.667  -4.924  32.506  0.00  0.00    +0.017 A 
ATOM      7  C   UNL     1      14.385  -5.389  31.886  0.00  0.00    +0.075 A 
ATOM     34  C   UNL     1      14.504  -5.151  31.106  0.00  0.00    +0.017 A 
ATOM     35  C   UNL     1      14.905  -4.449  30.945  0.00  0.00    +0.004 A 
BRANCH   4   2
ATOM      1  C   UNL     1      16.031  -3.208  30.711  0.00  0.00    +0.077 C 
ATOM      2  C   UNL     1      15.589  -3.281  31.405  0.00  0.00    +0.173 C 
ATOM      3  O   UNL     1      15.549  -2.652  31.937  0.00  0.00    -0.291 OA
ENDBRANCH   4   2
ENDBRANCH   8   7
ENDBRANCH  12  11
BRANCH  16  20
ATOM     20  O   UNL     1       9.356  -7.760  32.716  0.00  0.00    -0.432 OA
BRANCH  20  21
ATOM     21  C   UNL     1       8.886  -8.409  32.518  0.00  0.00    +0.425 C 
ATOM     22  O   UNL     1       9.160  -9.175  32.658  0.00  0.00    -0.224 OA
ATOM     23  N   UNL     1       8.142  -8.294  32.181  0.00  0.00    -0.142 NA
BRANCH  23  24
ATOM     24  C   UNL     1       7.673  -8.942  31.984  0.00  0.00    +0.077 A 
ATOM     25  C   UNL     1       7.549  -9.137  31.192  0.00  0.00    +0.021 A 
ATOM     26  C   UNL     1       7.079  -9.785  30.995  0.00  0.00    +0.073 A 
ATOM     27  C   UNL     1       6.733 -10.240  31.590  0.00  0.00    +0.004 A 
ATOM     28  C   UNL     1       6.857 -10.046  32.382  0.00  0.00    +0.001 A 
ATOM     29  C   UNL     1       7.327  -9.397  32.579  0.00  0.00    +0.017 A 
BRANCH  26  30
ATOM     30  C   UNL     1       6.955  -9.979  30.202  0.00  0.00    +0.419 C 
ATOM     31  F   UNL     1       6.831 -10.173  29.410  0.00  0.00    -0.166 F 
ATOM     32  F   UNL     1       6.313  -9.461  30.176  0.00  0.00    -0.166 F 
ATOM     33  F   UNL     1       7.597 -10.496  30.228  0.00  0.00    -0.166 F 
ENDBRANCH  26  30
ENDBRANCH  23  24
ENDBRANCH  20  21
ENDBRANCH  16  20
TORSDOF 7
ENDMDL
MODEL 5
REMARK VINA RESULT:      -6.2     15.310     16.596
REMARK  Name = 
REMARK  7 active torsions:
REMARK  status: ('A' for Active; 'I' for Inactive)
REMARK    1  A    between atoms: C_2  and  C_4
REMARK    2  A    between atoms: C_7  and  N_8
REMARK    3  A    between atoms: N_11  and  C_12
REMARK    4  A    between atoms: C_16  and  O_20
REMARK    5  A    between atoms: O_20  and  C_21
REMARK    6  A    between atoms: N_23  and  C_24
REMARK    7  A    between atoms: C_26  and  C_30
REMARK                            x       y       z     vdW  Elec       q    Type
REMARK                         _______ _______ _______ _____ _____    ______ ____
ROOT
ATOM     12  C   UNL     1      12.337  -7.357  31.786  0.00  0.00    +0.156 C 
ATOM     13  C   UNL     1      11.942  -6.656  31.605  0.00  0.00    +0.166 C 
ATOM     14  O   UNL     1      11.158  -6.736  31.848  0.00  0.00    -0.348 OA
ATOM     15  C   UNL     1      11.068  -7.486  32.179  0.00  0.00    +0.186 C 
ATOM     16  C   UNL     1      10.530  -8.000  32.534  0.00  0.00    +0.229 C 
ATOM     17  C   UNL     1      10.925  -8.700  32.715  0.00  0.00    +0.188 C 
ATOM     18  O   UNL     1      11.709  -8.620  32.472  0.00  0.00    -0.348 OA
ATOM     19  C   UNL     1      11.798  -7.870  32.140  0.00  0.00    +0.168 C 
ENDROOT
BRANCH  12  11
ATOM      8  N   UNL     1      14.255  -7.498  30.752  0.00  0.00    -0.161 NA
ATOM      9  C   UNL     1      13.460  -7.338  30.901  0.00  0.00    +0.344 C 
ATOM     10  O   UNL     1      12.990  -7.000  30.313  0.00  0.00    -0.249 OA
ATOM     11  N   UNL     1      13.133  -7.517  31.637  0.00  0.00    -0.184 NA
BRANCH   8   7
ATOM      4  C   UNL     1      15.235  -6.961  28.544  0.00  0.00    +0.035 A 
ATOM      5  C   UNL     1      15.145  -6.368  29.110  0.00  0.00    +0.004 A 
ATOM      6  C   UNL     1      14.818  -6.547  29.846  0.00  0.00    +0.017 A 
ATOM      7  C   UNL     1      14.582  -7.319  30.016  0.00  0.00    +0.075 A 
ATOM     34  C   UNL     1      14.673  -7.912  29.450  0.00  0.00    +0.017 A 
ATOM     35  C   UNL     1      14.999  -7.733  28.714  0.00  0.00    +0.004 A 
BRANCH   4   2
ATOM      1  C   UNL     1      16.366  -6.605  27.746  0.00  0.00    +0.077 C 
ATOM      2  C   UNL     1      15.562  -6.782  27.808  0.00  0.00    +0.173 C 
ATOM      3  O   UNL     1      15.086  -6.778  27.134  0.00  0.00    -0.291 OA
ENDBRANCH   4   2
ENDBRANCH   8   7
ENDBRANCH  12  11
BRANCH  16  20
ATOM     20  O   UNL     1       9.734  -7.840  32.683  0.00  0.00    -0.432 OA
BRANCH  20  21
ATOM     21  C   UNL     1       9.161  -8.413  32.526  0.00  0.00    +0.425 C 
ATOM     22  O   UNL     1       9.318  -9.207  32.689  0.00  0.00    -0.224 OA
ATOM     23  N   UNL     1       8.433  -8.194  32.208  0.00  0.00    -0.142 NA
BRANCH  23  24
ATOM     24  C   UNL     1       7.861  -8.767  32.052  0.00  0.00    +0.077 A 
ATOM     25  C   UNL     1       7.687  -8.976  31.273  0.00  0.00    +0.021 A 
ATOM     26  C   UNL     1       7.115  -9.548  31.117  0.00  0.00    +0.073 A 
ATOM     27  C   UNL     1       6.716  -9.914  31.740  0.00  0.00    +0.004 A 
ATOM     28  C   UNL     1       6.890  -9.706  32.520  0.00  0.00    +0.001 A 
ATOM     29  C   UNL     1       7.462  -9.133  32.675  0.00  0.00    +0.017 A 
BRANCH  26  30
ATOM     30  C   UNL     1       6.941  -9.757  30.337  0.00  0.00    +0.419 C 
ATOM     31  F   UNL     1       6.768  -9.965  29.559  0.00  0.00    -0.166 F 
ATOM     32  F   UNL     1       7.497 -10.365  30.376  0.00  0.00    -0.166 F 
ATOM     33  F   UNL     1       6.385  -9.149  30.299  0.00  0.00    -0.166 F 
ENDBRANCH  26  30
ENDBRANCH  23  24
ENDBRANCH  20  21
ENDBRANCH  16  20
TORSDOF 7
ENDMDL
