MODEL 1
REMARK VINA RESULT:     -13.4      0.000      0.000
REMARK  Name = 
REMARK  3 active torsions:
REMARK  status: ('A' for Active; 'I' for Inactive)
REMARK    1  A    between atoms: C_5  and  N_8
REMARK    2  A    between atoms: N_15  and  S_19
REMARK    3  A    between atoms: S_19  and  C_22
REMARK                            x       y       z     vdW  Elec       q    Type
REMARK                         _______ _______ _______ _____ _____    ______ ____
ROOT
ATOM      8  N   UNL     1      -3.094   2.721  25.003  0.00  0.00    -0.190 N 
ATOM      9  C   UNL     1      -3.607   3.367  24.997  0.00  0.00    +0.333 C 
ATOM     10  O   UNL     1      -3.305   4.133  25.042  0.00  0.00    -0.250 OA
ATOM     11  N   UNL     1      -4.421   3.246  24.946  0.00  0.00    -0.188 NA
ATOM     12  C   UNL     1      -4.723   2.480  24.900  0.00  0.00    +0.123 C 
ATOM     13  C   UNL     1      -5.493   2.192  24.846  0.00  0.00    +0.043 C 
ATOM     14  C   UNL     1      -5.457   1.369  24.818  0.00  0.00    +0.098 C 
ATOM     15  N   UNL     1      -4.664   1.147  24.855  0.00  0.00    -0.146 NA
ATOM     16  C   UNL     1      -4.210   1.834  24.906  0.00  0.00    +0.176 C 
ATOM     17  C   UNL     1      -3.395   1.954  24.958  0.00  0.00    +0.254 C 
ATOM     18  O   UNL     1      -2.882   1.308  24.964  0.00  0.00    -0.273 OA
ENDROOT
BRANCH   8   5
ATOM      1  C   UNL     1       0.164   3.202  25.209  0.00  0.00    +0.031 C 
ATOM      2  C   UNL     1      -0.649   3.082  25.157  0.00  0.00    -0.022 A 
ATOM      3  C   UNL     1      -1.105   3.041  25.844  0.00  0.00    -0.003 A 
ATOM      4  C   UNL     1      -1.920   2.921  25.793  0.00  0.00    +0.015 A 
ATOM      5  C   UNL     1      -2.279   2.841  25.054  0.00  0.00    +0.062 A 
ATOM      6  C   UNL     1      -1.823   2.882  24.368  0.00  0.00    +0.015 A 
ATOM      7  C   UNL     1      -1.010   3.002  24.419  0.00  0.00    -0.003 A 
ENDBRANCH   8   5
BRANCH  15  19
ATOM     19  S   UNL     1      -4.375   0.374  24.844  0.00  0.00    +0.064 S 
ATOM     20  O   UNL     1      -4.273   0.424  24.027  0.00  0.00    -0.153 OA
ATOM     21  O   UNL     1      -4.476   0.324  25.661  0.00  0.00    -0.153 OA
BRANCH  19  22
ATOM     22  C   UNL     1      -4.086  -0.399  24.832  0.00  0.00    +0.122 A 
ATOM     23  C   UNL     1      -4.091  -0.830  24.129  0.00  0.00    +0.021 A 
ATOM     24  C   UNL     1      -3.802  -1.603  24.117  0.00  0.00    +0.013 A 
ATOM     25  C   UNL     1      -3.508  -1.944  24.809  0.00  0.00    +0.058 A 
ATOM     26 CL   UNL     1      -3.219  -2.717  24.797  0.00  0.00    -0.082 Cl
ATOM     27  C   UNL     1      -3.504  -1.512  25.512  0.00  0.00    +0.013 A 
ATOM     28  C   UNL     1      -3.793  -0.740  25.524  0.00  0.00    +0.021 A 
ENDBRANCH  19  22
ENDBRANCH  15  19
TORSDOF 3
ENDMDL
MODEL 2
REMARK VINA RESULT:     -12.5      1.790      4.095
REMARK  Name = 
REMARK  3 active torsions:
REMARK  status: ('A' for Active; 'I' for Inactive)
REMARK    1  A    between atoms: C_5  and  N_8
REMARK    2  A    between atoms: N_15  and  S_19
REMARK    3  A    between atoms: S_19  and  C_22
REMARK                            x       y       z     vdW  Elec       q    Type
REMARK                         _______ _______ _______ _____ _____    ______ ____
ROOT
ATOM      8  N   UNL     1      -4.652   1.213  24.999  0.00  0.00    -0.190 N 
ATOM      9  C   UNL     1      -5.468   1.306  25.078  0.00  0.00    +0.333 C 
ATOM     10  O   UNL     1      -5.967   0.653  25.002  0.00  0.00    -0.250 OA
ATOM     11  N   UNL     1      -5.785   2.051  25.232  0.00  0.00    -0.188 NA
ATOM     12  C   UNL     1      -5.286   2.704  25.307  0.00  0.00    +0.123 C 
ATOM     13  C   UNL     1      -5.438   3.500  25.458  0.00  0.00    +0.043 C 
ATOM     14  C   UNL     1      -4.716   3.900  25.472  0.00  0.00    +0.098 C 
ATOM     15  N   UNL     1      -4.118   3.350  25.331  0.00  0.00    -0.146 NA
ATOM     16  C   UNL     1      -4.470   2.611  25.229  0.00  0.00    +0.176 C 
ATOM     17  C   UNL     1      -4.153   1.865  25.074  0.00  0.00    +0.254 C 
ATOM     18  O   UNL     1      -3.337   1.771  24.996  0.00  0.00    -0.273 OA
ENDROOT
BRANCH   8   5
ATOM      1  C   UNL     1      -3.384  -1.771  24.383  0.00  0.00    +0.031 C 
ATOM      2  C   UNL     1      -3.701  -1.026  24.536  0.00  0.00    -0.022 A 
ATOM      3  C   UNL     1      -3.817  -0.780  25.315  0.00  0.00    -0.003 A 
ATOM      4  C   UNL     1      -4.134  -0.033  25.470  0.00  0.00    +0.015 A 
ATOM      5  C   UNL     1      -4.335   0.466  24.845  0.00  0.00    +0.062 A 
ATOM      6  C   UNL     1      -4.219   0.220  24.066  0.00  0.00    +0.015 A 
ATOM      7  C   UNL     1      -3.902  -0.525  23.912  0.00  0.00    -0.003 A 
ENDBRANCH   8   5
BRANCH  15  19
ATOM     19  S   UNL     1      -3.309   3.511  25.297  0.00  0.00    +0.064 S 
ATOM     20  O   UNL     1      -3.361   3.600  24.479  0.00  0.00    -0.153 OA
ATOM     21  O   UNL     1      -3.257   3.421  26.116  0.00  0.00    -0.153 OA
BRANCH  19  22
ATOM     22  C   UNL     1      -2.501   3.671  25.263  0.00  0.00    +0.122 A 
ATOM     23  C   UNL     1      -2.201   4.154  24.665  0.00  0.00    +0.021 A 
ATOM     24  C   UNL     1      -1.392   4.315  24.631  0.00  0.00    +0.013 A 
ATOM     25  C   UNL     1      -0.884   3.993  25.195  0.00  0.00    +0.058 A 
ATOM     26 CL   UNL     1      -0.075   4.154  25.162  0.00  0.00    -0.082 Cl
ATOM     27  C   UNL     1      -1.184   3.510  25.793  0.00  0.00    +0.013 A 
ATOM     28  C   UNL     1      -1.992   3.350  25.827  0.00  0.00    +0.021 A 
ENDBRANCH  19  22
ENDBRANCH  15  19
TORSDOF 3
ENDMDL
MODEL 3
REMARK VINA RESULT:     -12.3      2.147      4.477
REMARK  Name = 
REMARK  3 active torsions:
REMARK  status: ('A' for Active; 'I' for Inactive)
REMARK    1  A    between atoms: C_5  and  N_8
REMARK    2  A    between atoms: N_15  and  S_19
REMARK    3  A    between atoms: S_19  and  C_22
REMARK                            x       y       z     vdW  Elec       q    Type
REMARK                         _______ _______ _______ _____ _____    ______ ____
ROOT
ATOM      8  N   UNL     1      -1.695   0.109  24.635  0.00  0.00    -0.190 N 
ATOM      9  C   UNL     1      -0.900   0.024  24.432  0.00  0.00    +0.333 C 
ATOM     10  O   UNL     1      -0.566  -0.728  24.380  0.00  0.00    -0.250 OA
ATOM     11  N   UNL     1      -0.441   0.692  24.280  0.00  0.00    -0.188 NA
ATOM     12  C   UNL     1      -0.775   1.444  24.331  0.00  0.00    +0.123 C 
ATOM     13  C   UNL     1      -0.462   2.197  24.214  0.00  0.00    +0.043 C 
ATOM     14  C   UNL     1      -1.063   2.747  24.345  0.00  0.00    +0.098 C 
ATOM     15  N   UNL     1      -1.748   2.334  24.544  0.00  0.00    -0.146 NA
ATOM     16  C   UNL     1      -1.570   1.529  24.535  0.00  0.00    +0.176 C 
ATOM     17  C   UNL     1      -2.031   0.860  24.688  0.00  0.00    +0.254 C 
ATOM     18  O   UNL     1      -2.826   0.944  24.892  0.00  0.00    -0.273 OA
ENDROOT
BRANCH   8   5
ATOM      1  C   UNL     1      -3.536  -2.563  25.243  0.00  0.00    +0.031 C 
ATOM      2  C   UNL     1      -3.076  -1.895  25.091  0.00  0.00    -0.022 A 
ATOM      3  C   UNL     1      -3.027  -1.594  24.325  0.00  0.00    -0.003 A 
ATOM      4  C   UNL     1      -2.566  -0.926  24.173  0.00  0.00    +0.015 A 
ATOM      5  C   UNL     1      -2.156  -0.560  24.788  0.00  0.00    +0.062 A 
ATOM      6  C   UNL     1      -2.205  -0.861  25.554  0.00  0.00    +0.015 A 
ATOM      7  C   UNL     1      -2.665  -1.528  25.706  0.00  0.00    -0.003 A 
ENDBRANCH   8   5
BRANCH  15  19
ATOM     19  S   UNL     1      -2.482   2.667  24.720  0.00  0.00    +0.064 S 
ATOM     20  O   UNL     1      -2.276   2.699  25.518  0.00  0.00    -0.153 OA
ATOM     21  O   UNL     1      -2.688   2.636  23.921  0.00  0.00    -0.153 OA
BRANCH  19  22
ATOM     22  C   UNL     1      -3.216   3.001  24.896  0.00  0.00    +0.122 A 
ATOM     23  C   UNL     1      -3.338   3.367  25.625  0.00  0.00    +0.021 A 
ATOM     24  C   UNL     1      -4.072   3.700  25.801  0.00  0.00    +0.013 A 
ATOM     25  C   UNL     1      -4.683   3.668  25.249  0.00  0.00    +0.058 A 
ATOM     26 CL   UNL     1      -5.417   4.001  25.425  0.00  0.00    -0.082 Cl
ATOM     27  C   UNL     1      -4.560   3.301  24.519  0.00  0.00    +0.013 A 
ATOM     28  C   UNL     1      -3.827   2.968  24.343  0.00  0.00    +0.021 A 
ENDBRANCH  19  22
ENDBRANCH  15  19
TORSDOF 3
ENDMDL
MODEL 4
REMARK VINA RESULT:     -12.2      2.232      3.705
REMARK  Name = 
REMARK  3 active torsions:
REMARK  status: ('A' for Active; 'I' for Inactive)
REMARK    1  A    between atoms: C_5  and  N_8
REMARK    2  A    between atoms: N_15  and  S_19
REMARK    3  A    between atoms: S_19  and  C_22
REMARK                            x       y       z     vdW  Elec       q    Type
REMARK                         _______ _______ _______ _____ _____    ______ ____
ROOT
ATOM      8  N   UNL     1      -0.970   1.875  25.105  0.00  0.00    -0.190 N 
ATOM      9  C   UNL     1      -0.309   2.368  25.133  0.00  0.00    +0.333 C 
ATOM     10  O   UNL     1       0.449   2.043  25.128  0.00  0.00    -0.250 OA
ATOM     11  N   UNL     1      -0.407   3.186  25.166  0.00  0.00    -0.188 NA
ATOM     12  C   UNL     1      -1.165   3.512  25.171  0.00  0.00    +0.123 C 
ATOM     13  C   UNL     1      -1.431   4.291  25.201  0.00  0.00    +0.043 C 
ATOM     14  C   UNL     1      -2.256   4.281  25.191  0.00  0.00    +0.098 C 
ATOM     15  N   UNL     1      -2.500   3.494  25.156  0.00  0.00    -0.146 NA
ATOM     16  C   UNL     1      -1.826   3.019  25.143  0.00  0.00    +0.176 C 
ATOM     17  C   UNL     1      -1.728   2.199  25.110  0.00  0.00    +0.254 C 
ATOM     18  O   UNL     1      -2.389   1.706  25.082  0.00  0.00    -0.273 OA
ENDROOT
BRANCH   8   5
ATOM      1  C   UNL     1      -0.580  -1.399  24.971  0.00  0.00    +0.031 C 
ATOM      2  C   UNL     1      -0.677  -0.581  25.005  0.00  0.00    -0.022 A 
ATOM      3  C   UNL     1      -0.606  -0.129  24.318  0.00  0.00    -0.003 A 
ATOM      4  C   UNL     1      -0.704   0.690  24.352  0.00  0.00    +0.015 A 
ATOM      5  C   UNL     1      -0.872   1.056  25.072  0.00  0.00    +0.062 A 
ATOM      6  C   UNL     1      -0.943   0.604  25.758  0.00  0.00    +0.015 A 
ATOM      7  C   UNL     1      -0.846  -0.214  25.724  0.00  0.00    -0.003 A 
ENDBRANCH   8   5
BRANCH  15  19
ATOM     19  S   UNL     1      -3.281   3.228  25.136  0.00  0.00    +0.064 S 
ATOM     20  O   UNL     1      -3.294   3.204  25.960  0.00  0.00    -0.153 OA
ATOM     21  O   UNL     1      -3.268   3.252  24.311  0.00  0.00    -0.153 OA
BRANCH  19  22
ATOM     22  C   UNL     1      -4.062   2.963  25.116  0.00  0.00    +0.122 A 
ATOM     23  C   UNL     1      -4.550   3.068  25.773  0.00  0.00    +0.021 A 
ATOM     24  C   UNL     1      -5.331   2.803  25.754  0.00  0.00    +0.013 A 
ATOM     25  C   UNL     1      -5.624   2.432  25.077  0.00  0.00    +0.058 A 
ATOM     26 CL   UNL     1      -6.405   2.167  25.057  0.00  0.00    -0.082 Cl
ATOM     27  C   UNL     1      -5.135   2.327  24.420  0.00  0.00    +0.013 A 
ATOM     28  C   UNL     1      -4.355   2.592  24.440  0.00  0.00    +0.021 A 
ENDBRANCH  19  22
ENDBRANCH  15  19
TORSDOF 3
ENDMDL
