REMARK  Name = 
REMARK  12 active torsions:
REMARK  status: ('A' for Active; 'I' for Inactive)
REMARK    1  A    between atoms: C_2  and  C_4
REMARK    2  A    between atoms: C_4  and  C_5
REMARK    3  A    between atoms: C_4  and  N_11
REMARK    4  A    between atoms: C_5  and  C_6
REMARK    5  A    between atoms: C_12  and  C_14
REMARK    6  A    between atoms: C_16  and  O_28
REMARK    7  A    between atoms: C_20  and  C_22
REMARK    8  A    between atoms: C_22  and  O_23
REMARK    9  A    between atoms: O_23  and  C_24
REMARK   10  A    between atoms: C_24  and  C_25
REMARK   11  A    between atoms: O_28  and  C_29
REMARK   12  A    between atoms: C_29  and  C_30
REMARK                            x       y       z     vdW  Elec       q    Type
REMARK                         _______ _______ _______ _____ _____    ______ ____
ROOT
ATOM     14  C   UNL     1       0.715  -0.412   0.000  0.00  0.00    +0.156 C 
ATOM     15  C   UNL     1       0.000   0.000   0.000  0.00  0.00    +0.059 C 
ATOM     16  C   UNL     1       0.000   0.825   0.000  0.00  0.00    +0.120 C 
ATOM     17  C   UNL     1       0.715   1.238   0.000  0.00  0.00    +0.051 C 
ATOM     18  C   UNL     1       1.429   0.825   0.000  0.00  0.00    +0.096 C 
ATOM     19  N   UNL     1       1.429   0.000   0.000  0.00  0.00    -0.271 N 
ATOM     20  C   UNL     1       2.143  -0.412   0.000  0.00  0.00    +0.256 C 
ATOM     21  O   UNL     1       2.143  -1.238   0.000  0.00  0.00    -0.272 OA
ENDROOT
BRANCH  14  12
ATOM     11  N   UNL     1       0.000  -1.650   0.000  0.00  0.00    -0.196 NA
ATOM     12  C   UNL     1       0.715  -1.238   0.000  0.00  0.00    +0.260 C 
ATOM     13  O   UNL     1       1.429  -1.650   0.000  0.00  0.00    -0.272 OA
BRANCH  11   4
ATOM      4  C   UNL     1       0.000  -2.475   0.000  0.00  0.00    +0.179 C 
BRANCH   4   2
ATOM      1  N   UNL     1       1.429  -2.475   0.000  0.00  0.00    -0.086 NA
ATOM      2  C   UNL     1       0.715  -2.888   0.000  0.00  0.00    +0.281 C 
ATOM      3  O   UNL     1       0.715  -3.712   0.000  0.00  0.00    -0.270 OA
ENDBRANCH   4   2
BRANCH   4   5
ATOM      5  C   UNL     1      -0.715  -2.888   0.000  0.00  0.00    +0.064 C 
BRANCH   5   6
ATOM      6  C   UNL     1      -0.715  -3.712   0.000  0.00  0.00    +0.010 A 
ATOM      7  C   UNL     1      -0.047  -4.197   0.000  0.00  0.00    +0.003 A 
ATOM      8  C   UNL     1      -0.302  -4.982   0.000  0.00  0.00    +0.007 A 
ATOM      9  C   UNL     1      -1.127  -4.982   0.000  0.00  0.00    +0.035 A 
ATOM     10  S   UNL     1      -1.382  -4.197   0.000  0.00  0.00    -0.091 S 
ENDBRANCH   5   6
ENDBRANCH   4   5
ENDBRANCH  11   4
ENDBRANCH  14  12
BRANCH  20  22
ATOM     22  C   UNL     1       2.858   0.000   0.000  0.00  0.00    +0.228 C 
BRANCH  22  23
ATOM     23  O   UNL     1       3.572  -0.412   0.000  0.00  0.00    -0.333 OA
BRANCH  23  24
ATOM     24  C   UNL     1       4.287   0.000   0.000  0.00  0.00    +0.257 C 
BRANCH  24  25
ATOM     25  C   UNL     1       5.001  -0.412   0.000  0.00  0.00    +0.394 C 
ATOM     26  O   UNL     1       5.716   0.000   0.000  0.00  0.00    -0.243 OA
ATOM     27  O   UNL     1       5.001  -1.238   0.000  0.00  0.00    -0.243 OA
ENDBRANCH  24  25
ENDBRANCH  23  24
ENDBRANCH  22  23
ENDBRANCH  20  22
BRANCH  16  28
ATOM     28  O   UNL     1      -0.715   1.238   0.000  0.00  0.00    -0.351 OA
BRANCH  28  29
ATOM     29  C   UNL     1      -0.715   2.062   0.000  0.00  0.00    +0.168 C 
BRANCH  29  30
ATOM     30  C   UNL     1      -1.429   2.475   0.000  0.00  0.00    +0.006 C 
ATOM     31  C   UNL     1      -1.429   3.300   0.000  0.00  0.00    -0.002 C 
ENDBRANCH  29  30
ENDBRANCH  28  29
ENDBRANCH  16  28
TORSDOF 12
