MODEL 1
REMARK VINA RESULT:     -12.5      0.000      0.000
REMARK  Name = 
REMARK  4 active torsions:
REMARK  status: ('A' for Active; 'I' for Inactive)
REMARK    1  A    between atoms: O_2  and  C_3
REMARK    2  A    between atoms: C_7  and  C_8
REMARK    3  A    between atoms: C_8  and  N_9
REMARK    4  A    between atoms: C_12  and  C_14
REMARK                            x       y       z     vdW  Elec       q    Type
REMARK                         _______ _______ _______ _____ _____    ______ ____
ROOT
ATOM      9  N   UNL     1      -4.344   2.395  24.620  0.00  0.00    -0.268 NA
ATOM     10  C   UNL     1      -5.092   2.213  24.917  0.00  0.00    +0.073 C 
ATOM     11  C   UNL     1      -5.139   1.394  25.006  0.00  0.00    +0.028 C 
ATOM     12  C   UNL     1      -4.420   1.069  24.763  0.00  0.00    +0.094 C 
ATOM     13  C   UNL     1      -3.929   1.687  24.525  0.00  0.00    +0.082 C 
ENDROOT
BRANCH  12  14
ATOM     14  C   UNL     1      -4.227   0.267  24.759  0.00  0.00    +0.207 A 
ATOM     15  N   UNL     1      -4.386  -0.267  24.152  0.00  0.00    -0.212 NA
ATOM     16  C   UNL     1      -4.098  -1.006  24.380  0.00  0.00    +0.119 A 
ATOM     17  C   UNL     1      -3.761  -0.927  25.129  0.00  0.00    +0.164 A 
ATOM     18  O   UNL     1      -3.840  -0.141  25.364  0.00  0.00    -0.438 OA
ATOM     19  C   UNL     1      -3.425  -1.584  25.500  0.00  0.00    +0.040 A 
ATOM     20  C   UNL     1      -3.426  -2.317  25.123  0.00  0.00    +0.015 A 
ATOM     21  C   UNL     1      -3.764  -2.395  24.374  0.00  0.00    +0.059 A 
ATOM     22 CL   UNL     1      -3.766  -3.128  23.996  0.00  0.00    -0.082 Cl
ATOM     23  C   UNL     1      -4.100  -1.740  24.002  0.00  0.00    +0.034 A 
ENDBRANCH  12  14
BRANCH   9   8
ATOM      8  C   UNL     1      -4.061   3.150  24.448  0.00  0.00    +0.099 C 
BRANCH   8   7
ATOM      3  C   UNL     1      -2.167   3.913  25.222  0.00  0.00    +0.138 A 
ATOM      4  C   UNL     1      -2.409   4.223  25.947  0.00  0.00    +0.037 A 
ATOM      5  C   UNL     1      -3.201   4.175  26.172  0.00  0.00    +0.003 A 
ATOM      6  C   UNL     1      -3.752   3.817  25.673  0.00  0.00    -0.003 A 
ATOM      7  C   UNL     1      -3.510   3.507  24.947  0.00  0.00    -0.003 A 
ATOM     24  C   UNL     1      -2.718   3.555  24.721  0.00  0.00    +0.034 A 
BRANCH   3   2
ATOM      1  C   UNL     1      -0.984   4.686  25.017  0.00  0.00    +0.252 C 
ATOM      2  O   UNL     1      -1.375   3.961  24.996  0.00  0.00    -0.471 OA
ENDBRANCH   3   2
ENDBRANCH   8   7
ENDBRANCH   9   8
TORSDOF 4
ENDMDL
MODEL 2
REMARK VINA RESULT:     -11.9      2.135      5.153
REMARK  Name = 
REMARK  4 active torsions:
REMARK  status: ('A' for Active; 'I' for Inactive)
REMARK    1  A    between atoms: O_2  and  C_3
REMARK    2  A    between atoms: C_7  and  C_8
REMARK    3  A    between atoms: C_8  and  N_9
REMARK    4  A    between atoms: C_12  and  C_14
REMARK                            x       y       z     vdW  Elec       q    Type
REMARK                         _______ _______ _______ _____ _____    ______ ____
ROOT
ATOM      9  N   UNL     1      -4.037   0.528  25.028  0.00  0.00    -0.268 NA
ATOM     10  C   UNL     1      -4.450   0.944  24.447  0.00  0.00    +0.073 C 
ATOM     11  C   UNL     1      -4.064   1.663  24.325  0.00  0.00    +0.028 C 
ATOM     12  C   UNL     1      -3.412   1.691  24.831  0.00  0.00    +0.094 C 
ATOM     13  C   UNL     1      -3.396   0.990  25.265  0.00  0.00    +0.082 C 
ENDROOT
BRANCH  12  14
ATOM     14  C   UNL     1      -2.873   2.312  24.891  0.00  0.00    +0.207 A 
ATOM     15  N   UNL     1      -3.059   3.114  24.936  0.00  0.00    -0.212 NA
ATOM     16  C   UNL     1      -2.353   3.537  24.990  0.00  0.00    +0.119 A 
ATOM     17  C   UNL     1      -1.730   2.996  24.977  0.00  0.00    +0.164 A 
ATOM     18  O   UNL     1      -2.051   2.239  24.916  0.00  0.00    -0.438 OA
ATOM     19  C   UNL     1      -0.951   3.264  25.023  0.00  0.00    +0.040 A 
ATOM     20  C   UNL     1      -0.795   4.072  25.082  0.00  0.00    +0.015 A 
ATOM     21  C   UNL     1      -1.418   4.612  25.094  0.00  0.00    +0.059 A 
ATOM     22 CL   UNL     1      -1.262   5.420  25.153  0.00  0.00    -0.082 Cl
ATOM     23  C   UNL     1      -2.197   4.346  25.048  0.00  0.00    +0.034 A 
ENDBRANCH  12  14
BRANCH   9   8
ATOM      8  C   UNL     1      -4.231  -0.218  25.320  0.00  0.00    +0.099 C 
BRANCH   8   7
ATOM      3  C   UNL     1      -3.064  -1.980  24.773  0.00  0.00    +0.138 A 
ATOM      4  C   UNL     1      -3.488  -2.250  24.119  0.00  0.00    +0.037 A 
ATOM      5  C   UNL     1      -4.159  -1.844  23.866  0.00  0.00    +0.003 A 
ATOM      6  C   UNL     1      -4.407  -1.166  24.266  0.00  0.00    -0.003 A 
ATOM      7  C   UNL     1      -3.983  -0.896  24.920  0.00  0.00    -0.003 A 
ATOM     24  C   UNL     1      -3.312  -1.302  25.174  0.00  0.00    +0.034 A 
BRANCH   3   2
ATOM      1  C   UNL     1      -1.693  -2.339  24.592  0.00  0.00    +0.252 C 
ATOM      2  O   UNL     1      -2.392  -2.387  25.027  0.00  0.00    -0.471 OA
ENDBRANCH   3   2
ENDBRANCH   8   7
ENDBRANCH   9   8
TORSDOF 4
ENDMDL
MODEL 3
REMARK VINA RESULT:     -11.5      1.785      2.456
REMARK  Name = 
REMARK  4 active torsions:
REMARK  status: ('A' for Active; 'I' for Inactive)
REMARK    1  A    between atoms: O_2  and  C_3
REMARK    2  A    between atoms: C_7  and  C_8
REMARK    3  A    between atoms: C_8  and  N_9
REMARK    4  A    between atoms: C_12  and  C_14
REMARK                            x       y       z     vdW  Elec       q    Type
REMARK                         _______ _______ _______ _____ _____    ______ ____
ROOT
ATOM      9  N   UNL     1      -0.874   1.745  25.206  0.00  0.00    -0.268 NA
ATOM     10  C   UNL     1      -0.479   1.512  24.520  0.00  0.00    +0.073 C 
ATOM     11  C   UNL     1      -0.869   0.853  24.213  0.00  0.00    +0.028 C 
ATOM     12  C   UNL     1      -1.505   0.679  24.709  0.00  0.00    +0.094 C 
ATOM     13  C   UNL     1      -1.508   1.230  25.323  0.00  0.00    +0.082 C 
ENDROOT
BRANCH  12  14
ATOM     14  C   UNL     1      -2.044   0.062  24.609  0.00  0.00    +0.207 A 
ATOM     15  N   UNL     1      -1.897  -0.737  24.750  0.00  0.00    -0.212 NA
ATOM     16  C   UNL     1      -2.586  -1.157  24.578  0.00  0.00    +0.119 A 
ATOM     17  C   UNL     1      -3.158  -0.617  24.331  0.00  0.00    +0.164 A 
ATOM     18  O   UNL     1      -2.824   0.136  24.350  0.00  0.00    -0.438 OA
ATOM     19  C   UNL     1      -3.911  -0.882  24.121  0.00  0.00    +0.040 A 
ATOM     20  C   UNL     1      -4.091  -1.686  24.157  0.00  0.00    +0.015 A 
ATOM     21  C   UNL     1      -3.518  -2.226  24.405  0.00  0.00    +0.059 A 
ATOM     22 CL   UNL     1      -3.697  -3.030  24.442  0.00  0.00    -0.082 Cl
ATOM     23  C   UNL     1      -2.766  -1.962  24.615  0.00  0.00    +0.034 A 
ENDBRANCH  12  14
BRANCH   9   8
ATOM      8  C   UNL     1      -0.670   2.381  25.690  0.00  0.00    +0.099 C 
BRANCH   8   7
ATOM      3  C   UNL     1      -2.072   4.050  25.805  0.00  0.00    +0.138 A 
ATOM      4  C   UNL     1      -1.699   4.600  25.317  0.00  0.00    +0.037 A 
ATOM      5  C   UNL     1      -0.984   4.411  24.953  0.00  0.00    +0.003 A 
ATOM      6  C   UNL     1      -0.640   3.671  25.078  0.00  0.00    -0.003 A 
ATOM      7  C   UNL     1      -1.014   3.121  25.566  0.00  0.00    -0.003 A 
ATOM     24  C   UNL     1      -1.729   3.310  25.930  0.00  0.00    +0.034 A 
BRANCH   3   2
ATOM      1  C   UNL     1      -3.498   4.134  25.762  0.00  0.00    +0.252 C 
ATOM      2  O   UNL     1      -2.789   4.240  26.169  0.00  0.00    -0.471 OA
ENDBRANCH   3   2
ENDBRANCH   8   7
ENDBRANCH   9   8
TORSDOF 4
ENDMDL
MODEL 4
REMARK VINA RESULT:     -11.1      2.178      4.869
REMARK  Name = 
REMARK  4 active torsions:
REMARK  status: ('A' for Active; 'I' for Inactive)
REMARK    1  A    between atoms: O_2  and  C_3
REMARK    2  A    between atoms: C_7  and  C_8
REMARK    3  A    between atoms: C_8  and  N_9
REMARK    4  A    between atoms: C_12  and  C_14
REMARK                            x       y       z     vdW  Elec       q    Type
REMARK                         _______ _______ _______ _____ _____    ______ ____
ROOT
ATOM      9  N   UNL     1      -3.849  -0.995  25.030  0.00  0.00    -0.268 NA
ATOM     10  C   UNL     1      -4.289  -0.992  24.332  0.00  0.00    +0.073 C 
ATOM     11  C   UNL     1      -4.567  -0.224  24.210  0.00  0.00    +0.028 C 
ATOM     12  C   UNL     1      -4.299   0.246  24.833  0.00  0.00    +0.094 C 
ATOM     13  C   UNL     1      -3.855  -0.230  25.339  0.00  0.00    +0.082 C 
ENDROOT
BRANCH  12  14
ATOM     14  C   UNL     1      -4.449   1.051  24.932  0.00  0.00    +0.207 A 
ATOM     15  N   UNL     1      -5.140   1.382  25.237  0.00  0.00    -0.212 NA
ATOM     16  C   UNL     1      -5.051   2.202  25.236  0.00  0.00    +0.119 A 
ATOM     17  C   UNL     1      -4.305   2.378  24.931  0.00  0.00    +0.164 A 
ATOM     18  O   UNL     1      -3.933   1.667  24.743  0.00  0.00    -0.438 OA
ATOM     19  C   UNL     1      -4.063   3.164  24.864  0.00  0.00    +0.040 A 
ATOM     20  C   UNL     1      -4.565   3.773  25.102  0.00  0.00    +0.015 A 
ATOM     21  C   UNL     1      -5.311   3.597  25.407  0.00  0.00    +0.059 A 
ATOM     22 CL   UNL     1      -5.814   4.206  25.646  0.00  0.00    -0.082 Cl
ATOM     23  C   UNL     1      -5.555   2.812  25.475  0.00  0.00    +0.034 A 
ENDBRANCH  12  14
BRANCH   9   8
ATOM      8  C   UNL     1      -3.469  -1.649  25.360  0.00  0.00    +0.099 C 
BRANCH   8   7
ATOM      3  C   UNL     1      -1.327  -1.754  24.957  0.00  0.00    +0.138 A 
ATOM      4  C   UNL     1      -1.295  -2.406  24.454  0.00  0.00    +0.037 A 
ATOM      5  C   UNL     1      -1.987  -2.807  24.253  0.00  0.00    +0.003 A 
ATOM      6  C   UNL     1      -2.712  -2.554  24.555  0.00  0.00    -0.003 A 
ATOM      7  C   UNL     1      -2.744  -1.901  25.058  0.00  0.00    -0.003 A 
ATOM     24  C   UNL     1      -2.052  -1.501  25.260  0.00  0.00    +0.034 A 
BRANCH   3   2
ATOM      1  C   UNL     1      -0.237  -0.906  24.591  0.00  0.00    +0.252 C 
ATOM      2  O   UNL     1      -0.633  -1.354  25.159  0.00  0.00    -0.471 OA
ENDBRANCH   3   2
ENDBRANCH   8   7
ENDBRANCH   9   8
TORSDOF 4
ENDMDL
MODEL 5
REMARK VINA RESULT:     -11.1      2.736      5.690
REMARK  Name = 
REMARK  4 active torsions:
REMARK  status: ('A' for Active; 'I' for Inactive)
REMARK    1  A    between atoms: O_2  and  C_3
REMARK    2  A    between atoms: C_7  and  C_8
REMARK    3  A    between atoms: C_8  and  N_9
REMARK    4  A    between atoms: C_12  and  C_14
REMARK                            x       y       z     vdW  Elec       q    Type
REMARK                         _______ _______ _______ _____ _____    ______ ____
ROOT
ATOM      9  N   UNL     1      -1.085  -0.123  25.313  0.00  0.00    -0.268 NA
ATOM     10  C   UNL     1      -0.543   0.022  24.708  0.00  0.00    +0.073 C 
ATOM     11  C   UNL     1      -0.527   0.835  24.570  0.00  0.00    +0.028 C 
ATOM     12  C   UNL     1      -1.059   1.193  25.090  0.00  0.00    +0.094 C 
ATOM     13  C   UNL     1      -1.403   0.600  25.549  0.00  0.00    +0.082 C 
ENDROOT
BRANCH  12  14
ATOM     14  C   UNL     1      -1.218   2.001  25.142  0.00  0.00    +0.207 A 
ATOM     15  N   UNL     1      -0.714   2.610  24.909  0.00  0.00    -0.212 NA
ATOM     16  C   UNL     1      -1.093   3.326  25.058  0.00  0.00    +0.119 A 
ATOM     17  C   UNL     1      -1.833   3.160  25.383  0.00  0.00    +0.164 A 
ATOM     18  O   UNL     1      -1.910   2.341  25.435  0.00  0.00    -0.438 OA
ATOM     19  C   UNL     1      -2.340   3.777  25.590  0.00  0.00    +0.040 A 
ATOM     20  C   UNL     1      -2.109   4.559  25.472  0.00  0.00    +0.015 A 
ATOM     21  C   UNL     1      -1.369   4.726  25.147  0.00  0.00    +0.059 A 
ATOM     22 CL   UNL     1      -1.136   5.508  25.029  0.00  0.00    -0.082 Cl
ATOM     23  C   UNL     1      -0.861   4.110  24.940  0.00  0.00    +0.034 A 
ENDBRANCH  12  14
BRANCH   9   8
ATOM      8  C   UNL     1      -1.275  -0.862  25.627  0.00  0.00    +0.099 C 
BRANCH   8   7
ATOM      3  C   UNL     1      -3.069  -1.777  24.787  0.00  0.00    +0.138 A 
ATOM      4  C   UNL     1      -2.741  -2.405  24.365  0.00  0.00    +0.037 A 
ATOM      5  C   UNL     1      -1.924  -2.518  24.363  0.00  0.00    +0.003 A 
ATOM      6  C   UNL     1      -1.435  -2.004  24.784  0.00  0.00    -0.003 A 
ATOM      7  C   UNL     1      -1.764  -1.376  25.207  0.00  0.00    -0.003 A 
ATOM     24  C   UNL     1      -2.581  -1.263  25.209  0.00  0.00    +0.034 A 
BRANCH   3   2
ATOM      1  C   UNL     1      -4.298  -1.617  24.076  0.00  0.00    +0.252 C 
ATOM      2  O   UNL     1      -3.887  -1.664  24.789  0.00  0.00    -0.471 OA
ENDBRANCH   3   2
ENDBRANCH   8   7
ENDBRANCH   9   8
TORSDOF 4
ENDMDL
