MODEL 1
REMARK VINA RESULT:     -12.0      0.000      0.000
REMARK  Name = 
REMARK  8 active torsions:
REMARK  status: ('A' for Active; 'I' for Inactive)
REMARK    1  A    between atoms: C_2  and  N_4
REMARK    2  A    between atoms: N_7  and  C_8
REMARK    3  A    between atoms: C_12  and  C_13
REMARK    4  A    between atoms: N_15  and  C_16
REMARK    5  A    between atoms: C_16  and  C_17
REMARK    6  A    between atoms: C_16  and  C_27
REMARK    7  A    between atoms: C_17  and  C_18
REMARK    8  A    between atoms: C_30  and  C_32
REMARK                            x       y       z     vdW  Elec       q    Type
REMARK                         _______ _______ _______ _____ _____    ______ ____
ROOT
ATOM      8  C   UNL     1      -1.484   1.688  24.154  0.00  0.00    +0.126 C 
ATOM      9  C   UNL     1      -0.861   2.207  24.305  0.00  0.00    +0.045 C 
ATOM     10  C   UNL     1      -1.181   2.923  24.563  0.00  0.00    +0.096 C 
ATOM     11  N   UNL     1      -2.002   2.846  24.572  0.00  0.00    -0.267 N 
ATOM     12  C   UNL     1      -2.190   2.083  24.320  0.00  0.00    +0.174 C 
ATOM     30  C   UNL     1      -2.542   3.429  24.795  0.00  0.00    +0.265 C 
ATOM     31  O   UNL     1      -3.351   3.270  24.776  0.00  0.00    -0.268 OA
ENDROOT
BRANCH  30  32
ATOM     32  C   UNL     1      -2.272   4.170  25.036  0.00  0.00    +0.114 A 
ATOM     33  C   UNL     1      -1.738   4.649  24.628  0.00  0.00    +0.023 A 
ATOM     34  C   UNL     1      -1.624   5.337  25.068  0.00  0.00    +0.020 A 
ATOM     35  C   UNL     1      -2.088   5.284  25.748  0.00  0.00    +0.076 A 
ATOM     36  N   UNL     1      -2.487   4.563  25.729  0.00  0.00    -0.320 N 
ATOM     37  C   UNL     1      -3.011   4.284  26.302  0.00  0.00    +0.131 C 
ENDBRANCH  30  32
BRANCH   8   7
ATOM      4  N   UNL     1      -0.649  -0.288  23.754  0.00  0.00    -0.189 NA
ATOM      5  C   UNL     1      -0.719   0.489  24.023  0.00  0.00    +0.339 C 
ATOM      6  O   UNL     1      -0.094   0.844  24.427  0.00  0.00    -0.249 OA
ATOM      7  N   UNL     1      -1.415   0.912  23.886  0.00  0.00    -0.187 NA
BRANCH   4   2
ATOM      1  C   UNL     1       0.081  -1.263  24.503  0.00  0.00    +0.023 C 
ATOM      2  C   UNL     1       0.047  -0.710  23.891  0.00  0.00    +0.097 C 
ATOM      3  C   UNL     1       0.708  -0.580  23.416  0.00  0.00    +0.023 C 
ENDBRANCH   4   2
ENDBRANCH   8   7
BRANCH  12  13
ATOM     13  C   UNL     1      -2.949   1.770  24.246  0.00  0.00    +0.262 C 
ATOM     14  O   UNL     1      -3.404   1.944  23.580  0.00  0.00    -0.271 OA
ATOM     15  N   UNL     1      -3.254   1.282  24.838  0.00  0.00    -0.196 NA
BRANCH  15  16
ATOM     16  C   UNL     1      -4.013   0.969  24.764  0.00  0.00    +0.179 C 
BRANCH  16  27
ATOM     27  C   UNL     1      -4.664   1.399  25.033  0.00  0.00    +0.281 C 
ATOM     28  N   UNL     1      -5.268   1.605  24.507  0.00  0.00    -0.086 NA
ATOM     29  O   UNL     1      -4.713   1.624  25.824  0.00  0.00    -0.270 OA
ENDBRANCH  16  27
BRANCH  16  17
ATOM     17  C   UNL     1      -4.122   0.226  24.421  0.00  0.00    +0.059 C 
BRANCH  17  18
ATOM     18  C   UNL     1      -3.940  -0.456  24.847  0.00  0.00    +0.001 A 
ATOM     19  C   UNL     1      -3.752  -0.490  25.650  0.00  0.00    +0.095 A 
ATOM     20  N   UNL     1      -3.609  -1.279  25.845  0.00  0.00    -0.244 NA
ATOM     21  C   UNL     1      -3.710  -1.732  25.164  0.00  0.00    +0.081 A 
ATOM     22  C   UNL     1      -3.914  -1.223  24.547  0.00  0.00    +0.015 A 
ATOM     23  C   UNL     1      -4.050  -1.525  23.791  0.00  0.00    +0.001 A 
ATOM     24  C   UNL     1      -3.982  -2.335  23.652  0.00  0.00    +0.000 A 
ATOM     25  C   UNL     1      -3.777  -2.844  24.269  0.00  0.00    +0.002 A 
ATOM     26  C   UNL     1      -3.641  -2.543  25.024  0.00  0.00    +0.019 A 
ENDBRANCH  17  18
ENDBRANCH  16  17
ENDBRANCH  15  16
ENDBRANCH  12  13
TORSDOF 8
ENDMDL
MODEL 2
REMARK VINA RESULT:     -11.4      1.188      3.192
REMARK  Name = 
REMARK  8 active torsions:
REMARK  status: ('A' for Active; 'I' for Inactive)
REMARK    1  A    between atoms: C_2  and  N_4
REMARK    2  A    between atoms: N_7  and  C_8
REMARK    3  A    between atoms: C_12  and  C_13
REMARK    4  A    between atoms: N_15  and  C_16
REMARK    5  A    between atoms: C_16  and  C_17
REMARK    6  A    between atoms: C_16  and  C_27
REMARK    7  A    between atoms: C_17  and  C_18
REMARK    8  A    between atoms: C_30  and  C_32
REMARK                            x       y       z     vdW  Elec       q    Type
REMARK                         _______ _______ _______ _____ _____    ______ ____
ROOT
ATOM      8  C   UNL     1      -3.527   2.559  25.174  0.00  0.00    +0.126 C 
ATOM      9  C   UNL     1      -3.642   3.328  25.450  0.00  0.00    +0.045 C 
ATOM     10  C   UNL     1      -2.957   3.760  25.294  0.00  0.00    +0.096 C 
ATOM     11  N   UNL     1      -2.418   3.258  24.921  0.00  0.00    -0.267 N 
ATOM     12  C   UNL     1      -2.771   2.516  24.847  0.00  0.00    +0.174 C 
ATOM     30  C   UNL     1      -1.661   3.463  24.667  0.00  0.00    +0.265 C 
ATOM     31  O   UNL     1      -1.183   2.899  24.301  0.00  0.00    -0.268 OA
ENDROOT
BRANCH  30  32
ATOM     32  C   UNL     1      -1.382   4.231  24.780  0.00  0.00    +0.114 A 
ATOM     33  C   UNL     1      -1.829   4.922  24.728  0.00  0.00    +0.023 A 
ATOM     34  C   UNL     1      -1.329   5.561  24.879  0.00  0.00    +0.020 A 
ATOM     35  C   UNL     1      -0.574   5.264  25.025  0.00  0.00    +0.076 A 
ATOM     36  N   UNL     1      -0.606   4.443  24.964  0.00  0.00    -0.320 N 
ATOM     37  C   UNL     1       0.027   3.924  25.068  0.00  0.00    +0.131 C 
ENDBRANCH  30  32
BRANCH   8   7
ATOM      4  N   UNL     1      -5.421   1.489  25.350  0.00  0.00    -0.189 NA
ATOM      5  C   UNL     1      -4.876   2.107  25.307  0.00  0.00    +0.339 C 
ATOM      6  O   UNL     1      -5.134   2.888  25.355  0.00  0.00    -0.249 OA
ATOM      7  N   UNL     1      -4.072   1.941  25.217  0.00  0.00    -0.187 NA
BRANCH   4   2
ATOM      1  C   UNL     1      -6.550   1.721  26.196  0.00  0.00    +0.023 C 
ATOM      2  C   UNL     1      -6.225   1.654  25.441  0.00  0.00    +0.097 C 
ATOM      3  C   UNL     1      -6.703   1.753  24.776  0.00  0.00    +0.023 C 
ENDBRANCH   4   2
ENDBRANCH   8   7
BRANCH  12  13
ATOM     13  C   UNL     1      -2.427   1.848  24.506  0.00  0.00    +0.262 C 
ATOM     14  O   UNL     1      -2.339   1.803  23.687  0.00  0.00    -0.271 OA
ATOM     15  N   UNL     1      -2.172   1.226  24.983  0.00  0.00    -0.196 NA
BRANCH  15  16
ATOM     16  C   UNL     1      -1.828   0.558  24.642  0.00  0.00    +0.179 C 
BRANCH  16  27
ATOM     27  C   UNL     1      -1.008   0.462  24.660  0.00  0.00    +0.281 C 
ATOM     28  N   UNL     1      -0.597   0.303  23.962  0.00  0.00    -0.086 NA
ATOM     29  O   UNL     1      -0.601   0.525  25.373  0.00  0.00    -0.270 OA
ENDBRANCH  16  27
BRANCH  16  17
ATOM     17  C   UNL     1      -2.303  -0.013  24.283  0.00  0.00    +0.059 C 
BRANCH  17  18
ATOM     18  C   UNL     1      -2.552  -0.672  24.712  0.00  0.00    +0.001 A 
ATOM     19  C   UNL     1      -2.278  -0.897  25.457  0.00  0.00    +0.095 A 
ATOM     20  N   UNL     1      -2.675  -1.586  25.677  0.00  0.00    -0.244 NA
ATOM     21  C   UNL     1      -3.194  -1.786  25.069  0.00  0.00    +0.081 A 
ATOM     22  C   UNL     1      -3.118  -1.221  24.472  0.00  0.00    +0.015 A 
ATOM     23  C   UNL     1      -3.575  -1.281  23.788  0.00  0.00    +0.001 A 
ATOM     24  C   UNL     1      -4.107  -1.904  23.699  0.00  0.00    +0.000 A 
ATOM     25  C   UNL     1      -4.183  -2.469  24.296  0.00  0.00    +0.002 A 
ATOM     26  C   UNL     1      -3.727  -2.411  24.980  0.00  0.00    +0.019 A 
ENDBRANCH  17  18
ENDBRANCH  16  17
ENDBRANCH  15  16
ENDBRANCH  12  13
TORSDOF 8
ENDMDL
MODEL 3
REMARK VINA RESULT:     -11.3      1.298      5.511
REMARK  Name = 
REMARK  8 active torsions:
REMARK  status: ('A' for Active; 'I' for Inactive)
REMARK    1  A    between atoms: C_2  and  N_4
REMARK    2  A    between atoms: N_7  and  C_8
REMARK    3  A    between atoms: C_12  and  C_13
REMARK    4  A    between atoms: N_15  and  C_16
REMARK    5  A    between atoms: C_16  and  C_17
REMARK    6  A    between atoms: C_16  and  C_27
REMARK    7  A    between atoms: C_17  and  C_18
REMARK    8  A    between atoms: C_30  and  C_32
REMARK                            x       y       z     vdW  Elec       q    Type
REMARK                         _______ _______ _______ _____ _____    ______ ____
ROOT
ATOM      8  C   UNL     1      -3.801   0.816  24.930  0.00  0.00    +0.126 C 
ATOM      9  C   UNL     1      -4.445   0.328  25.093  0.00  0.00    +0.045 C 
ATOM     10  C   UNL     1      -4.264  -0.432  24.826  0.00  0.00    +0.096 C 
ATOM     11  N   UNL     1      -3.508  -0.413  24.498  0.00  0.00    -0.267 N 
ATOM     12  C   UNL     1      -3.221   0.358  24.562  0.00  0.00    +0.174 C 
ATOM     30  C   UNL     1      -3.108  -1.053  24.164  0.00  0.00    +0.265 C 
ATOM     31  O   UNL     1      -2.349  -0.949  23.855  0.00  0.00    -0.268 OA
ENDROOT
BRANCH  30  32
ATOM     32  C   UNL     1      -3.466  -1.795  24.139  0.00  0.00    +0.114 A 
ATOM     33  C   UNL     1      -4.212  -1.964  23.831  0.00  0.00    +0.023 A 
ATOM     34  C   UNL     1      -4.348  -2.772  23.919  0.00  0.00    +0.020 A 
ATOM     35  C   UNL     1      -3.685  -3.104  24.281  0.00  0.00    +0.076 A 
ATOM     36  N   UNL     1      -3.140  -2.501  24.417  0.00  0.00    -0.320 N 
ATOM     37  C   UNL     1      -2.399  -2.587  24.768  0.00  0.00    +0.131 C 
ENDBRANCH  30  32
BRANCH   8   7
ATOM      4  N   UNL     1      -4.375   2.869  25.394  0.00  0.00    -0.189 NA
ATOM      5  C   UNL     1      -4.431   2.065  25.220  0.00  0.00    +0.339 C 
ATOM      6  O   UNL     1      -5.170   1.705  25.162  0.00  0.00    -0.249 OA
ATOM      7  N   UNL     1      -3.745   1.620  25.104  0.00  0.00    -0.187 NA
BRANCH   4   2
ATOM      1  C   UNL     1      -5.241   3.937  24.999  0.00  0.00    +0.023 C 
ATOM      2  C   UNL     1      -5.061   3.314  25.510  0.00  0.00    +0.097 C 
ATOM      3  C   UNL     1      -5.566   3.137  26.137  0.00  0.00    +0.023 C 
ENDBRANCH   4   2
ENDBRANCH   8   7
BRANCH  12  13
ATOM     13  C   UNL     1      -2.485   0.625  24.303  0.00  0.00    +0.262 C 
ATOM     14  O   UNL     1      -2.339   0.715  23.496  0.00  0.00    -0.271 OA
ATOM     15  N   UNL     1      -1.894   0.802  24.851  0.00  0.00    -0.196 NA
BRANCH  15  16
ATOM     16  C   UNL     1      -1.158   1.068  24.592  0.00  0.00    +0.179 C 
BRANCH  16  27
ATOM     27  C   UNL     1      -0.519   0.546  24.560  0.00  0.00    +0.281 C 
ATOM     28  N   UNL     1      -0.063   0.495  23.874  0.00  0.00    -0.086 NA
ATOM     29  O   UNL     1      -0.336   0.077  25.213  0.00  0.00    -0.270 OA
ENDBRANCH  16  27
BRANCH  16  17
ATOM     17  C   UNL     1      -1.059   1.855  24.365  0.00  0.00    +0.059 C 
BRANCH  17  18
ATOM     18  C   UNL     1      -0.878   2.428  24.930  0.00  0.00    +0.001 A 
ATOM     19  C   UNL     1      -0.598   2.286  25.693  0.00  0.00    +0.095 A 
ATOM     20  N   UNL     1      -0.492   3.014  26.066  0.00  0.00    -0.244 NA
ATOM     21  C   UNL     1      -0.706   3.606  25.534  0.00  0.00    +0.081 A 
ATOM     22  C   UNL     1      -0.944   3.244  24.832  0.00  0.00    +0.015 A 
ATOM     23  C   UNL     1      -1.191   3.706  24.194  0.00  0.00    +0.001 A 
ATOM     24  C   UNL     1      -1.199   4.527  24.257  0.00  0.00    +0.000 A 
ATOM     25  C   UNL     1      -0.961   4.889  24.959  0.00  0.00    +0.002 A 
ATOM     26  C   UNL     1      -0.714   4.429  25.598  0.00  0.00    +0.019 A 
ENDBRANCH  17  18
ENDBRANCH  16  17
ENDBRANCH  15  16
ENDBRANCH  12  13
TORSDOF 8
ENDMDL
MODEL 4
REMARK VINA RESULT:     -10.8      1.622      4.452
REMARK  Name = 
REMARK  8 active torsions:
REMARK  status: ('A' for Active; 'I' for Inactive)
REMARK    1  A    between atoms: C_2  and  N_4
REMARK    2  A    between atoms: N_7  and  C_8
REMARK    3  A    between atoms: C_12  and  C_13
REMARK    4  A    between atoms: N_15  and  C_16
REMARK    5  A    between atoms: C_16  and  C_17
REMARK    6  A    between atoms: C_16  and  C_27
REMARK    7  A    between atoms: C_17  and  C_18
REMARK    8  A    between atoms: C_30  and  C_32
REMARK                            x       y       z     vdW  Elec       q    Type
REMARK                         _______ _______ _______ _____ _____    ______ ____
ROOT
ATOM      8  C   UNL     1      -0.383  -0.139  24.015  0.00  0.00    +0.126 C 
ATOM      9  C   UNL     1      -0.543  -0.906  23.757  0.00  0.00    +0.045 C 
ATOM     10  C   UNL     1      -1.227  -1.166  24.139  0.00  0.00    +0.096 C 
ATOM     11  N   UNL     1      -1.490  -0.561  24.633  0.00  0.00    -0.267 N 
ATOM     12  C   UNL     1      -0.968   0.075  24.557  0.00  0.00    +0.174 C 
ATOM     30  C   UNL     1      -2.157  -0.585  25.118  0.00  0.00    +0.265 C 
ATOM     31  O   UNL     1      -2.351   0.068  25.584  0.00  0.00    -0.268 OA
ENDROOT
BRANCH  30  32
ATOM     32  C   UNL     1      -2.628  -1.261  25.137  0.00  0.00    +0.114 A 
ATOM     33  C   UNL     1      -2.364  -2.034  25.253  0.00  0.00    +0.023 A 
ATOM     34  C   UNL     1      -3.020  -2.534  25.231  0.00  0.00    +0.020 A 
ATOM     35  C   UNL     1      -3.689  -2.070  25.100  0.00  0.00    +0.076 A 
ATOM     36  N   UNL     1      -3.448  -1.284  25.042  0.00  0.00    -0.320 N 
ATOM     37  C   UNL     1      -3.939  -0.634  24.913  0.00  0.00    +0.131 C 
ENDBRANCH  30  32
BRANCH   8   7
ATOM      4  N   UNL     1       1.492   0.474  23.084  0.00  0.00    -0.189 NA
ATOM      5  C   UNL     1       0.859   0.004  23.324  0.00  0.00    +0.339 C 
ATOM      6  O   UNL     1       0.835  -0.793  23.115  0.00  0.00    -0.249 OA
ATOM      7  N   UNL     1       0.250   0.331  23.775  0.00  0.00    -0.187 NA
BRANCH   4   2
ATOM      1  C   UNL     1       2.857   0.065  22.958  0.00  0.00    +0.023 C 
ATOM      2  C   UNL     1       2.102   0.147  22.634  0.00  0.00    +0.097 C 
ATOM      3  C   UNL     1       1.957  -0.099  21.860  0.00  0.00    +0.023 C 
ENDBRANCH   4   2
ENDBRANCH   8   7
BRANCH  12  13
ATOM     13  C   UNL     1      -1.023   0.796  24.952  0.00  0.00    +0.262 C 
ATOM     14  O   UNL     1      -0.849   0.839  25.757  0.00  0.00    -0.271 OA
ATOM     15  N   UNL     1      -1.250   1.475  24.543  0.00  0.00    -0.196 NA
BRANCH  15  16
ATOM     16  C   UNL     1      -1.304   2.197  24.938  0.00  0.00    +0.179 C 
BRANCH  16  27
ATOM     27  C   UNL     1      -0.636   2.674  25.017  0.00  0.00    +0.281 C 
ATOM     28  N   UNL     1      -0.331   2.835  25.768  0.00  0.00    -0.086 NA
ATOM     29  O   UNL     1      -0.272   2.990  24.349  0.00  0.00    -0.270 OA
ENDBRANCH  16  27
BRANCH  16  17
ATOM     17  C   UNL     1      -2.026   2.441  25.255  0.00  0.00    +0.059 C 
BRANCH  17  18
ATOM     18  C   UNL     1      -2.600   2.774  24.765  0.00  0.00    +0.001 A 
ATOM     19  C   UNL     1      -2.546   2.864  23.947  0.00  0.00    +0.095 A 
ATOM     20  N   UNL     1      -3.242   3.221  23.684  0.00  0.00    -0.244 NA
ATOM     21  C   UNL     1      -3.725   3.351  24.339  0.00  0.00    +0.081 A 
ATOM     22  C   UNL     1      -3.329   3.075  25.007  0.00  0.00    +0.015 A 
ATOM     23  C   UNL     1      -3.683   3.133  25.750  0.00  0.00    +0.001 A 
ATOM     24  C   UNL     1      -4.433   3.467  25.825  0.00  0.00    +0.000 A 
ATOM     25  C   UNL     1      -4.830   3.743  25.156  0.00  0.00    +0.002 A 
ATOM     26  C   UNL     1      -4.476   3.685  24.413  0.00  0.00    +0.019 A 
ENDBRANCH  17  18
ENDBRANCH  16  17
ENDBRANCH  15  16
ENDBRANCH  12  13
TORSDOF 8
ENDMDL
MODEL 5
REMARK VINA RESULT:     -10.5      1.265      4.365
REMARK  Name = 
REMARK  8 active torsions:
REMARK  status: ('A' for Active; 'I' for Inactive)
REMARK    1  A    between atoms: C_2  and  N_4
REMARK    2  A    between atoms: N_7  and  C_8
REMARK    3  A    between atoms: C_12  and  C_13
REMARK    4  A    between atoms: N_15  and  C_16
REMARK    5  A    between atoms: C_16  and  C_17
REMARK    6  A    between atoms: C_16  and  C_27
REMARK    7  A    between atoms: C_17  and  C_18
REMARK    8  A    between atoms: C_30  and  C_32
REMARK                            x       y       z     vdW  Elec       q    Type
REMARK                         _______ _______ _______ _____ _____    ______ ____
ROOT
ATOM      8  C   UNL     1      -3.678  -0.001  24.861  0.00  0.00    +0.126 C 
ATOM      9  C   UNL     1      -4.382  -0.042  25.289  0.00  0.00    +0.045 C 
ATOM     10  C   UNL     1      -4.722   0.710  25.294  0.00  0.00    +0.096 C 
ATOM     11  N   UNL     1      -4.228   1.216  24.869  0.00  0.00    -0.267 N 
ATOM     12  C   UNL     1      -3.583   0.777  24.601  0.00  0.00    +0.174 C 
ATOM     30  C   UNL     1      -4.356   2.020  24.735  0.00  0.00    +0.265 C 
ATOM     31  O   UNL     1      -3.810   2.457  24.297  0.00  0.00    -0.268 OA
ENDROOT
BRANCH  30  32
ATOM     32  C   UNL     1      -5.029   2.386  25.039  0.00  0.00    +0.114 A 
ATOM     33  C   UNL     1      -5.807   2.128  24.944  0.00  0.00    +0.023 A 
ATOM     34  C   UNL     1      -6.302   2.658  25.338  0.00  0.00    +0.020 A 
ATOM     35  C   UNL     1      -5.830   3.243  25.677  0.00  0.00    +0.076 A 
ATOM     36  N   UNL     1      -5.044   3.076  25.493  0.00  0.00    -0.320 N 
ATOM     37  C   UNL     1      -4.388   3.519  25.721  0.00  0.00    +0.131 C 
ENDBRANCH  30  32
BRANCH   8   7
ATOM      4  N   UNL     1      -2.930  -2.027  24.548  0.00  0.00    -0.189 NA
ATOM      5  C   UNL     1      -3.447  -1.401  24.691  0.00  0.00    +0.339 C 
ATOM      6  O   UNL     1      -4.250  -1.547  24.808  0.00  0.00    -0.249 OA
ATOM      7  N   UNL     1      -3.161  -0.627  24.717  0.00  0.00    -0.187 NA
BRANCH   4   2
ATOM      1  C   UNL     1      -3.163  -3.283  25.189  0.00  0.00    +0.023 C 
ATOM      2  C   UNL     1      -3.216  -2.800  24.521  0.00  0.00    +0.097 C 
ATOM      3  C   UNL     1      -3.554  -3.092  23.828  0.00  0.00    +0.023 C 
ENDBRANCH   4   2
ENDBRANCH   8   7
BRANCH  12  13
ATOM     13  C   UNL     1      -2.953   1.064  24.152  0.00  0.00    +0.262 C 
ATOM     14  O   UNL     1      -3.064   1.244  23.355  0.00  0.00    -0.271 OA
ATOM     15  N   UNL     1      -2.213   1.172  24.501  0.00  0.00    -0.196 NA
BRANCH  15  16
ATOM     16  C   UNL     1      -1.584   1.459  24.052  0.00  0.00    +0.179 C 
BRANCH  16  27
ATOM     27  C   UNL     1      -1.078   0.932  23.668  0.00  0.00    +0.281 C 
ATOM     28  N   UNL     1      -1.001   0.961  22.846  0.00  0.00    -0.086 NA
ATOM     29  O   UNL     1      -0.649   0.379  24.103  0.00  0.00    -0.270 OA
ENDBRANCH  16  27
BRANCH  16  17
ATOM     17  C   UNL     1      -1.460   2.272  23.987  0.00  0.00    +0.059 C 
BRANCH  17  18
ATOM     18  C   UNL     1      -1.062   2.678  24.584  0.00  0.00    +0.001 A 
ATOM     19  C   UNL     1      -0.661   2.336  25.219  0.00  0.00    +0.095 A 
ATOM     20  N   UNL     1      -0.345   2.944  25.679  0.00  0.00    -0.244 NA
ATOM     21  C   UNL     1      -0.551   3.661  25.329  0.00  0.00    +0.081 A 
ATOM     22  C   UNL     1      -0.994   3.497  24.652  0.00  0.00    +0.015 A 
ATOM     23  C   UNL     1      -1.278   4.115  24.186  0.00  0.00    +0.001 A 
ATOM     24  C   UNL     1      -1.120   4.897  24.395  0.00  0.00    +0.000 A 
ATOM     25  C   UNL     1      -0.677   5.061  25.071  0.00  0.00    +0.002 A 
ATOM     26  C   UNL     1      -0.393   4.444  25.539  0.00  0.00    +0.019 A 
ENDBRANCH  17  18
ENDBRANCH  16  17
ENDBRANCH  15  16
ENDBRANCH  12  13
TORSDOF 8
ENDMDL
MODEL 6
REMARK VINA RESULT:     -10.4      0.876      3.515
REMARK  Name = 
REMARK  8 active torsions:
REMARK  status: ('A' for Active; 'I' for Inactive)
REMARK    1  A    between atoms: C_2  and  N_4
REMARK    2  A    between atoms: N_7  and  C_8
REMARK    3  A    between atoms: C_12  and  C_13
REMARK    4  A    between atoms: N_15  and  C_16
REMARK    5  A    between atoms: C_16  and  C_17
REMARK    6  A    between atoms: C_16  and  C_27
REMARK    7  A    between atoms: C_17  and  C_18
REMARK    8  A    between atoms: C_30  and  C_32
REMARK                            x       y       z     vdW  Elec       q    Type
REMARK                         _______ _______ _______ _____ _____    ______ ____
ROOT
ATOM      8  C   UNL     1      -1.019   2.388  24.661  0.00  0.00    +0.126 C 
ATOM      9  C   UNL     1      -0.195   2.381  24.694  0.00  0.00    +0.045 C 
ATOM     10  C   UNL     1       0.071   1.708  24.298  0.00  0.00    +0.096 C 
ATOM     11  N   UNL     1      -0.588   1.298  24.020  0.00  0.00    -0.267 N 
ATOM     12  C   UNL     1      -1.263   1.718  24.244  0.00  0.00    +0.174 C 
ATOM     30  C   UNL     1      -0.577   0.593  23.592  0.00  0.00    +0.265 C 
ATOM     31  O   UNL     1      -1.285   0.246  23.350  0.00  0.00    -0.268 OA
ENDROOT
BRANCH  30  32
ATOM     32  C   UNL     1       0.143   0.235  23.407  0.00  0.00    +0.114 A 
ATOM     33  C   UNL     1       0.744   0.562  22.946  0.00  0.00    +0.023 A 
ATOM     34  C   UNL     1       1.360   0.015  22.905  0.00  0.00    +0.020 A 
ATOM     35  C   UNL     1       1.141  -0.649  23.341  0.00  0.00    +0.076 A 
ATOM     36  N   UNL     1       0.389  -0.514  23.652  0.00  0.00    -0.320 N 
ATOM     37  C   UNL     1      -0.042  -1.036  24.124  0.00  0.00    +0.131 C 
ENDBRANCH  30  32
BRANCH   8   7
ATOM      4  N   UNL     1      -1.815   4.336  25.238  0.00  0.00    -0.189 NA
ATOM      5  C   UNL     1      -1.321   3.761  24.912  0.00  0.00    +0.339 C 
ATOM      6  O   UNL     1      -0.636   3.985  24.512  0.00  0.00    -0.249 OA
ATOM      7  N   UNL     1      -1.513   2.962  24.987  0.00  0.00    -0.187 NA
BRANCH   4   2
ATOM      1  C   UNL     1      -0.856   5.358  24.956  0.00  0.00    +0.023 C 
ATOM      2  C   UNL     1      -1.623   5.135  25.164  0.00  0.00    +0.097 C 
ATOM      3  C   UNL     1      -2.198   5.711  25.297  0.00  0.00    +0.023 C 
ENDBRANCH   4   2
ENDBRANCH   8   7
BRANCH  12  13
ATOM     13  C   UNL     1      -2.042   1.507  24.080  0.00  0.00    +0.262 C 
ATOM     14  O   UNL     1      -2.347   1.610  23.320  0.00  0.00    -0.271 OA
ATOM     15  N   UNL     1      -2.518   1.191  24.676  0.00  0.00    -0.196 NA
BRANCH  15  16
ATOM     16  C   UNL     1      -3.298   0.979  24.512  0.00  0.00    +0.179 C 
BRANCH  16  27
ATOM     27  C   UNL     1      -3.905   1.531  24.612  0.00  0.00    +0.281 C 
ATOM     28  N   UNL     1      -4.344   1.782  23.960  0.00  0.00    -0.086 NA
ATOM     29  O   UNL     1      -4.071   1.830  25.361  0.00  0.00    -0.270 OA
ENDBRANCH  16  27
BRANCH  16  17
ATOM     17  C   UNL     1      -3.473   0.217  24.248  0.00  0.00    +0.059 C 
BRANCH  17  18
ATOM     18  C   UNL     1      -3.486  -0.411  24.781  0.00  0.00    +0.001 A 
ATOM     19  C   UNL     1      -3.369  -0.358  25.597  0.00  0.00    +0.095 A 
ATOM     20  N   UNL     1      -3.429  -1.118  25.913  0.00  0.00    -0.244 NA
ATOM     21  C   UNL     1      -3.584  -1.640  25.294  0.00  0.00    +0.081 A 
ATOM     22  C   UNL     1      -3.619  -1.203  24.595  0.00  0.00    +0.015 A 
ATOM     23  C   UNL     1      -3.767  -1.585  23.878  0.00  0.00    +0.001 A 
ATOM     24  C   UNL     1      -3.880  -2.401  23.860  0.00  0.00    +0.000 A 
ATOM     25  C   UNL     1      -3.845  -2.837  24.560  0.00  0.00    +0.002 A 
ATOM     26  C   UNL     1      -3.697  -2.457  25.277  0.00  0.00    +0.019 A 
ENDBRANCH  17  18
ENDBRANCH  16  17
ENDBRANCH  15  16
ENDBRANCH  12  13
TORSDOF 8
ENDMDL
MODEL 7
REMARK VINA RESULT:     -10.1      1.199      4.617
REMARK  Name = 
REMARK  8 active torsions:
REMARK  status: ('A' for Active; 'I' for Inactive)
REMARK    1  A    between atoms: C_2  and  N_4
REMARK    2  A    between atoms: N_7  and  C_8
REMARK    3  A    between atoms: C_12  and  C_13
REMARK    4  A    between atoms: N_15  and  C_16
REMARK    5  A    between atoms: C_16  and  C_17
REMARK    6  A    between atoms: C_16  and  C_27
REMARK    7  A    between atoms: C_17  and  C_18
REMARK    8  A    between atoms: C_30  and  C_32
REMARK                            x       y       z     vdW  Elec       q    Type
REMARK                         _______ _______ _______ _____ _____    ______ ____
ROOT
ATOM      8  C   UNL     1      -2.006   0.384  24.474  0.00  0.00    +0.126 C 
ATOM      9  C   UNL     1      -1.617  -0.338  24.563  0.00  0.00    +0.045 C 
ATOM     10  C   UNL     1      -2.188  -0.934  24.589  0.00  0.00    +0.096 C 
ATOM     11  N   UNL     1      -2.929  -0.580  24.516  0.00  0.00    -0.267 N 
ATOM     12  C   UNL     1      -2.817   0.235  24.445  0.00  0.00    +0.174 C 
ATOM     30  C   UNL     1      -3.656  -0.971  24.515  0.00  0.00    +0.265 C 
ATOM     31  O   UNL     1      -4.355  -0.540  24.437  0.00  0.00    -0.268 OA
ENDROOT
BRANCH  30  32
ATOM     32  C   UNL     1      -3.682  -1.791  24.591  0.00  0.00    +0.114 A 
ATOM     33  C   UNL     1      -3.341  -2.234  25.198  0.00  0.00    +0.023 A 
ATOM     34  C   UNL     1      -3.503  -3.030  25.056  0.00  0.00    +0.020 A 
ATOM     35  C   UNL     1      -3.944  -3.079  24.361  0.00  0.00    +0.076 A 
ATOM     36  N   UNL     1      -4.055  -2.315  24.074  0.00  0.00    -0.320 N 
ATOM     37  C   UNL     1      -4.467  -2.109  23.390  0.00  0.00    +0.131 C 
ENDBRANCH  30  32
BRANCH   8   7
ATOM      4  N   UNL     1      -0.503   1.961  24.610  0.00  0.00    -0.189 NA
ATOM      5  C   UNL     1      -0.862   1.220  24.662  0.00  0.00    +0.339 C 
ATOM      6  O   UNL     1      -0.438   0.575  24.951  0.00  0.00    -0.249 OA
ATOM      7  N   UNL     1      -1.647   1.125  24.423  0.00  0.00    -0.187 NA
BRANCH   4   2
ATOM      1  C   UNL     1       0.896   1.888  24.325  0.00  0.00    +0.023 C 
ATOM      2  C   UNL     1       0.281   2.056  24.849  0.00  0.00    +0.097 C 
ATOM      3  C   UNL     1       0.450   2.319  25.612  0.00  0.00    +0.023 C 
ENDBRANCH   4   2
ENDBRANCH   8   7
BRANCH  12  13
ATOM     13  C   UNL     1      -3.411   0.801  24.360  0.00  0.00    +0.262 C 
ATOM     14  O   UNL     1      -3.765   0.919  23.625  0.00  0.00    -0.271 OA
ATOM     15  N   UNL     1      -3.651   1.249  25.010  0.00  0.00    -0.196 NA
BRANCH  15  16
ATOM     16  C   UNL     1      -4.245   1.814  24.925  0.00  0.00    +0.179 C 
BRANCH  16  27
ATOM     27  C   UNL     1      -5.033   1.606  25.054  0.00  0.00    +0.281 C 
ATOM     28  N   UNL     1      -5.605   1.793  24.489  0.00  0.00    -0.086 NA
ATOM     29  O   UNL     1      -5.249   1.212  25.744  0.00  0.00    -0.270 OA
ENDBRANCH  16  27
BRANCH  16  17
ATOM     17  C   UNL     1      -4.051   2.587  24.712  0.00  0.00    +0.059 C 
BRANCH  17  18
ATOM     18  C   UNL     1      -3.797   3.122  25.285  0.00  0.00    +0.001 A 
ATOM     19  C   UNL     1      -4.008   3.116  26.083  0.00  0.00    +0.095 A 
ATOM     20  N   UNL     1      -3.629   3.748  26.452  0.00  0.00    -0.244 NA
ATOM     21  C   UNL     1      -3.183   4.145  25.884  0.00  0.00    +0.081 A 
ATOM     22  C   UNL     1      -3.287   3.759  25.162  0.00  0.00    +0.015 A 
ATOM     23  C   UNL     1      -2.903   4.037  24.487  0.00  0.00    +0.001 A 
ATOM     24  C   UNL     1      -2.416   4.700  24.533  0.00  0.00    +0.000 A 
ATOM     25  C   UNL     1      -2.312   5.087  25.254  0.00  0.00    +0.002 A 
ATOM     26  C   UNL     1      -2.695   4.809  25.930  0.00  0.00    +0.019 A 
ENDBRANCH  17  18
ENDBRANCH  16  17
ENDBRANCH  15  16
ENDBRANCH  12  13
TORSDOF 8
ENDMDL
MODEL 8
REMARK VINA RESULT:      -9.9      1.240      3.286
REMARK  Name = 
REMARK  8 active torsions:
REMARK  status: ('A' for Active; 'I' for Inactive)
REMARK    1  A    between atoms: C_2  and  N_4
REMARK    2  A    between atoms: N_7  and  C_8
REMARK    3  A    between atoms: C_12  and  C_13
REMARK    4  A    between atoms: N_15  and  C_16
REMARK    5  A    between atoms: C_16  and  C_17
REMARK    6  A    between atoms: C_16  and  C_27
REMARK    7  A    between atoms: C_17  and  C_18
REMARK    8  A    between atoms: C_30  and  C_32
REMARK                            x       y       z     vdW  Elec       q    Type
REMARK                         _______ _______ _______ _____ _____    ______ ____
ROOT
ATOM      8  C   UNL     1      -2.688   3.189  25.289  0.00  0.00    +0.126 C 
ATOM      9  C   UNL     1      -3.177   3.670  25.749  0.00  0.00    +0.045 C 
ATOM     10  C   UNL     1      -3.941   3.358  25.720  0.00  0.00    +0.096 C 
ATOM     11  N   UNL     1      -3.925   2.686  25.242  0.00  0.00    -0.267 N 
ATOM     12  C   UNL     1      -3.150   2.581  24.976  0.00  0.00    +0.174 C 
ATOM     30  C   UNL     1      -4.569   2.203  25.062  0.00  0.00    +0.265 C 
ATOM     31  O   UNL     1      -4.467   1.545  24.574  0.00  0.00    -0.268 OA
ENDROOT
BRANCH  30  32
ATOM     32  C   UNL     1      -5.313   2.377  25.370  0.00  0.00    +0.114 A 
ATOM     33  C   UNL     1      -5.660   3.125  25.408  0.00  0.00    +0.023 A 
ATOM     34  C   UNL     1      -6.404   3.044  25.755  0.00  0.00    +0.020 A 
ATOM     35  C   UNL     1      -6.517   2.247  25.933  0.00  0.00    +0.076 A 
ATOM     36  N   UNL     1      -5.844   1.835  25.695  0.00  0.00    -0.320 N 
ATOM     37  C   UNL     1      -5.721   1.022  25.769  0.00  0.00    +0.131 C 
ENDBRANCH  30  32
BRANCH   8   7
ATOM      4  N   UNL     1      -0.786   4.145  24.811  0.00  0.00    -0.189 NA
ATOM      5  C   UNL     1      -1.594   4.037  24.936  0.00  0.00    +0.339 C 
ATOM      6  O   UNL     1      -2.116   4.667  24.831  0.00  0.00    -0.249 OA
ATOM      7  N   UNL     1      -1.880   3.297  25.165  0.00  0.00    -0.187 NA
BRANCH   4   2
ATOM      1  C   UNL     1      -0.598   5.537  25.078  0.00  0.00    +0.023 C 
ATOM      2  C   UNL     1      -0.500   4.884  24.582  0.00  0.00    +0.097 C 
ATOM      3  C   UNL     1      -0.116   4.971  23.857  0.00  0.00    +0.023 C 
ENDBRANCH   4   2
ENDBRANCH   8   7
BRANCH  12  13
ATOM     13  C   UNL     1      -2.885   1.975  24.484  0.00  0.00    +0.262 C 
ATOM     14  O   UNL     1      -3.062   1.991  23.679  0.00  0.00    -0.271 OA
ATOM     15  N   UNL     1      -2.442   1.353  24.797  0.00  0.00    -0.196 NA
BRANCH  15  16
ATOM     16  C   UNL     1      -2.177   0.747  24.304  0.00  0.00    +0.179 C 
BRANCH  16  27
ATOM     27  C   UNL     1      -1.419   0.783  23.979  0.00  0.00    +0.281 C 
ATOM     28  N   UNL     1      -1.325   0.836  23.160  0.00  0.00    -0.086 NA
ATOM     29  O   UNL     1      -0.757   0.766  24.470  0.00  0.00    -0.270 OA
ENDBRANCH  16  27
BRANCH  16  17
ATOM     17  C   UNL     1      -2.668   0.105  24.137  0.00  0.00    +0.059 C 
BRANCH  17  18
ATOM     18  C   UNL     1      -2.663  -0.557  24.628  0.00  0.00    +0.001 A 
ATOM     19  C   UNL     1      -2.219  -0.646  25.319  0.00  0.00    +0.095 A 
ATOM     20  N   UNL     1      -2.382  -1.391  25.632  0.00  0.00    -0.244 NA
ATOM     21  C   UNL     1      -2.926  -1.763  25.136  0.00  0.00    +0.081 A 
ATOM     22  C   UNL     1      -3.099  -1.247  24.516  0.00  0.00    +0.015 A 
ATOM     23  C   UNL     1      -3.633  -1.474  23.928  0.00  0.00    +0.001 A 
ATOM     24  C   UNL     1      -3.993  -2.215  23.961  0.00  0.00    +0.000 A 
ATOM     25  C   UNL     1      -3.820  -2.730  24.582  0.00  0.00    +0.002 A 
ATOM     26  C   UNL     1      -3.287  -2.505  25.169  0.00  0.00    +0.019 A 
ENDBRANCH  17  18
ENDBRANCH  16  17
ENDBRANCH  15  16
ENDBRANCH  12  13
TORSDOF 8
ENDMDL
MODEL 9
REMARK VINA RESULT:      -9.8      1.561      4.530
REMARK  Name = 
REMARK  8 active torsions:
REMARK  status: ('A' for Active; 'I' for Inactive)
REMARK    1  A    between atoms: C_2  and  N_4
REMARK    2  A    between atoms: N_7  and  C_8
REMARK    3  A    between atoms: C_12  and  C_13
REMARK    4  A    between atoms: N_15  and  C_16
REMARK    5  A    between atoms: C_16  and  C_17
REMARK    6  A    between atoms: C_16  and  C_27
REMARK    7  A    between atoms: C_17  and  C_18
REMARK    8  A    between atoms: C_30  and  C_32
REMARK                            x       y       z     vdW  Elec       q    Type
REMARK                         _______ _______ _______ _____ _____    ______ ____
ROOT
ATOM      8  C   UNL     1      -1.126   0.100  24.528  0.00  0.00    +0.126 C 
ATOM      9  C   UNL     1      -0.690  -0.595  24.441  0.00  0.00    +0.045 C 
ATOM     10  C   UNL     1      -0.026  -0.423  23.980  0.00  0.00    +0.096 C 
ATOM     11  N   UNL     1      -0.053   0.377  23.783  0.00  0.00    -0.267 N 
ATOM     12  C   UNL     1      -0.733   0.701  24.121  0.00  0.00    +0.174 C 
ATOM     30  C   UNL     1       0.502   0.783  23.327  0.00  0.00    +0.265 C 
ATOM     31  O   UNL     1       0.401   1.588  23.175  0.00  0.00    -0.268 OA
ENDROOT
BRANCH  30  32
ATOM     32  C   UNL     1       1.157   0.384  23.024  0.00  0.00    +0.114 A 
ATOM     33  C   UNL     1       1.141  -0.315  22.587  0.00  0.00    +0.023 A 
ATOM     34  C   UNL     1       1.918  -0.517  22.398  0.00  0.00    +0.020 A 
ATOM     35  C   UNL     1       2.415   0.058  22.718  0.00  0.00    +0.076 A 
ATOM     36  N   UNL     1       1.946   0.614  23.105  0.00  0.00    -0.320 N 
ATOM     37  C   UNL     1       2.217   1.284  23.504  0.00  0.00    +0.131 C 
ENDBRANCH  30  32
BRANCH   8   7
ATOM      4  N   UNL     1      -3.087  -0.355  25.371  0.00  0.00    -0.189 NA
ATOM      5  C   UNL     1      -2.381  -0.435  24.951  0.00  0.00    +0.339 C 
ATOM      6  O   UNL     1      -2.225  -1.130  24.536  0.00  0.00    -0.249 OA
ATOM      7  N   UNL     1      -1.831   0.180  24.947  0.00  0.00    -0.187 NA
BRANCH   4   2
ATOM      1  C   UNL     1      -3.621  -1.534  25.978  0.00  0.00    +0.023 C 
ATOM      2  C   UNL     1      -3.636  -0.971  25.375  0.00  0.00    +0.097 C 
ATOM      3  C   UNL     1      -4.201  -1.024  24.776  0.00  0.00    +0.023 C 
ENDBRANCH   4   2
ENDBRANCH   8   7
BRANCH  12  13
ATOM     13  C   UNL     1      -0.976   1.487  24.063  0.00  0.00    +0.262 C 
ATOM     14  O   UNL     1      -1.180   1.802  23.328  0.00  0.00    -0.271 OA
ATOM     15  N   UNL     1      -1.015   1.958  24.739  0.00  0.00    -0.196 NA
BRANCH  15  16
ATOM     16  C   UNL     1      -1.258   2.744  24.681  0.00  0.00    +0.179 C 
BRANCH  16  27
ATOM     27  C   UNL     1      -0.724   3.353  24.837  0.00  0.00    +0.281 C 
ATOM     28  N   UNL     1      -0.278   3.341  25.532  0.00  0.00    -0.086 NA
ATOM     29  O   UNL     1      -0.634   3.972  24.300  0.00  0.00    -0.270 OA
ENDBRANCH  16  27
BRANCH  16  17
ATOM     17  C   UNL     1      -2.035   2.921  24.466  0.00  0.00    +0.059 C 
BRANCH  17  18
ATOM     18  C   UNL     1      -2.580   3.149  25.042  0.00  0.00    +0.001 A 
ATOM     19  C   UNL     1      -2.400   3.431  25.796  0.00  0.00    +0.095 A 
ATOM     20  N   UNL     1      -3.110   3.591  26.184  0.00  0.00    -0.244 NA
ATOM     21  C   UNL     1      -3.728   3.408  25.671  0.00  0.00    +0.081 A 
ATOM     22  C   UNL     1      -3.401   3.135  24.964  0.00  0.00    +0.015 A 
ATOM     23  C   UNL     1      -3.894   2.909  24.342  0.00  0.00    +0.001 A 
ATOM     24  C   UNL     1      -4.713   2.956  24.426  0.00  0.00    +0.000 A 
ATOM     25  C   UNL     1      -5.040   3.230  25.132  0.00  0.00    +0.002 A 
ATOM     26  C   UNL     1      -4.548   3.456  25.755  0.00  0.00    +0.019 A 
ENDBRANCH  17  18
ENDBRANCH  16  17
ENDBRANCH  15  16
ENDBRANCH  12  13
TORSDOF 8
ENDMDL
MODEL 10
REMARK VINA RESULT:      -9.8      1.516      2.428
REMARK  Name = 
REMARK  8 active torsions:
REMARK  status: ('A' for Active; 'I' for Inactive)
REMARK    1  A    between atoms: C_2  and  N_4
REMARK    2  A    between atoms: N_7  and  C_8
REMARK    3  A    between atoms: C_12  and  C_13
REMARK    4  A    between atoms: N_15  and  C_16
REMARK    5  A    between atoms: C_16  and  C_17
REMARK    6  A    between atoms: C_16  and  C_27
REMARK    7  A    between atoms: C_17  and  C_18
REMARK    8  A    between atoms: C_30  and  C_32
REMARK                            x       y       z     vdW  Elec       q    Type
REMARK                         _______ _______ _______ _____ _____    ______ ____
ROOT
ATOM      8  C   UNL     1      -0.045   1.225  24.104  0.00  0.00    +0.126 C 
ATOM      9  C   UNL     1       0.027   1.965  23.745  0.00  0.00    +0.045 C 
ATOM     10  C   UNL     1      -0.464   2.492  24.148  0.00  0.00    +0.096 C 
ATOM     11  N   UNL     1      -0.839   2.079  24.755  0.00  0.00    -0.267 N 
ATOM     12  C   UNL     1      -0.580   1.296  24.728  0.00  0.00    +0.174 C 
ATOM     30  C   UNL     1      -1.378   2.394  25.294  0.00  0.00    +0.265 C 
ATOM     31  O   UNL     1      -1.710   1.910  25.875  0.00  0.00    -0.268 OA
ENDROOT
BRANCH  30  32
ATOM     32  C   UNL     1      -1.585   3.191  25.253  0.00  0.00    +0.114 A 
ATOM     33  C   UNL     1      -1.066   3.830  25.300  0.00  0.00    +0.023 A 
ATOM     34  C   UNL     1      -1.508   4.524  25.233  0.00  0.00    +0.020 A 
ATOM     35  C   UNL     1      -2.301   4.312  25.145  0.00  0.00    +0.076 A 
ATOM     36  N   UNL     1      -2.349   3.490  25.157  0.00  0.00    -0.320 N 
ATOM     37  C   UNL     1      -3.039   3.043  25.086  0.00  0.00    +0.131 C 
ENDBRANCH  30  32
BRANCH   8   7
ATOM      4  N   UNL     1       1.375  -0.112  23.125  0.00  0.00    -0.189 NA
ATOM      5  C   UNL     1       0.981   0.577  23.350  0.00  0.00    +0.339 C 
ATOM      6  O   UNL     1       1.219   1.306  23.048  0.00  0.00    -0.249 OA
ATOM      7  N   UNL     1       0.349   0.536  23.879  0.00  0.00    -0.187 NA
BRANCH   4   2
ATOM      1  C   UNL     1       1.891  -0.247  21.799  0.00  0.00    +0.023 C 
ATOM      2  C   UNL     1       2.008  -0.071  22.597  0.00  0.00    +0.097 C 
ATOM      3  C   UNL     1       2.756   0.146  22.865  0.00  0.00    +0.023 C 
ENDBRANCH   4   2
ENDBRANCH   8   7
BRANCH  12  13
ATOM     13  C   UNL     1      -0.816   0.691  25.236  0.00  0.00    +0.262 C 
ATOM     14  O   UNL     1      -0.719   0.775  26.051  0.00  0.00    -0.271 OA
ATOM     15  N   UNL     1      -1.148   0.000  24.930  0.00  0.00    -0.196 NA
BRANCH  15  16
ATOM     16  C   UNL     1      -1.383  -0.605  25.438  0.00  0.00    +0.179 C 
BRANCH  16  27
ATOM     27  C   UNL     1      -0.815  -1.061  25.827  0.00  0.00    +0.281 C 
ATOM     28  N   UNL     1      -0.772  -1.050  26.651  0.00  0.00    -0.086 NA
ATOM     29  O   UNL     1      -0.291  -1.526  25.393  0.00  0.00    -0.270 OA
ENDBRANCH  16  27
BRANCH  16  17
ATOM     17  C   UNL     1      -2.185  -0.756  25.558  0.00  0.00    +0.059 C 
BRANCH  17  18
ATOM     18  C   UNL     1      -2.600  -1.230  25.026  0.00  0.00    +0.001 A 
ATOM     19  C   UNL     1      -2.326  -1.929  24.683  0.00  0.00    +0.095 A 
ATOM     20  N   UNL     1      -2.919  -2.219  24.188  0.00  0.00    -0.244 NA
ATOM     21  C   UNL     1      -3.559  -1.701  24.225  0.00  0.00    +0.081 A 
ATOM     22  C   UNL     1      -3.362  -1.089  24.743  0.00  0.00    +0.015 A 
ATOM     23  C   UNL     1      -3.903  -0.484  24.890  0.00  0.00    +0.001 A 
ATOM     24  C   UNL     1      -4.639  -0.489  24.519  0.00  0.00    +0.000 A 
ATOM     25  C   UNL     1      -4.836  -1.101  24.002  0.00  0.00    +0.002 A 
ATOM     26  C   UNL     1      -4.296  -1.707  23.854  0.00  0.00    +0.019 A 
ENDBRANCH  17  18
ENDBRANCH  16  17
ENDBRANCH  15  16
ENDBRANCH  12  13
TORSDOF 8
ENDMDL
