REMARK  Name = 
REMARK  2 active torsions:
REMARK  status: ('A' for Active; 'I' for Inactive)
REMARK    1  A    between atoms: O_2  and  C_3
REMARK    2  A    between atoms: C_6  and  C_9
REMARK                            x       y       z     vdW  Elec       q    Type
REMARK                         _______ _______ _______ _____ _____    ______ ____
ROOT
ATOM      9  C   UNL     1       0.478  -0.123   0.000  0.00  0.00    +0.012 A 
ATOM     10  C   UNL     1       0.622  -0.936   0.000  0.00  0.00    +0.041 A 
ATOM     11  C   UNL     1       1.582  -0.925   0.000  0.00  0.00    +0.056 C 
ATOM     12  C   UNL     1       1.629  -1.912   0.000  0.00  0.00    +0.094 C 
ATOM     13  N   UNL     1       0.813  -2.091   0.000  0.00  0.00    -0.218 NA
ATOM     14  C   UNL     1       1.225  -1.510   0.000  0.00  0.00    +0.091 C 
ATOM     15  C   UNL     1       1.163  -0.557   0.000  0.00  0.00    +0.041 C 
ATOM     16  C   UNL     1       1.713  -0.121   0.000  0.00  0.00    +0.011 C 
ATOM     17  C   UNL     1       0.244  -0.558   0.000  0.00  0.00    +0.110 C 
ATOM     18  N   UNL     1      -0.009  -1.467   0.000  0.00  0.00    -0.299 N 
ATOM     19  C   UNL     1      -0.785  -1.185   0.000  0.00  0.00    +0.261 A 
ATOM     20  O   UNL     1      -1.416  -1.716   0.000  0.00  0.00    -0.267 OA
ATOM     21  C   UNL     1      -0.929  -0.373   0.000  0.00  0.00    +0.061 A 
ATOM     22  C   UNL     1      -0.298   0.158   0.000  0.00  0.00    +0.006 A 
ENDROOT
BRANCH   9   6
ATOM      3  C   UNL     1       2.372   1.470   0.000  0.00  0.00    +0.139 A 
ATOM      4  C   UNL     1       2.516   0.657   0.000  0.00  0.00    +0.037 A 
ATOM      5  C   UNL     1       1.885   0.126   0.000  0.00  0.00    +0.003 A 
ATOM      6  C   UNL     1       1.109   0.408   0.000  0.00  0.00    +0.001 A 
ATOM      7  C   UNL     1       0.965   1.220   0.000  0.00  0.00    +0.003 A 
ATOM      8  C   UNL     1       1.596   1.751   0.000  0.00  0.00    +0.037 A 
BRANCH   3   2
ATOM      1  C   UNL     1       2.859   2.813   0.000  0.00  0.00    +0.252 C 
ATOM      2  O   UNL     1       3.003   2.001   0.000  0.00  0.00    -0.471 OA
ENDBRANCH   3   2
ENDBRANCH   9   6
TORSDOF 2
