MODEL 1
REMARK VINA RESULT:     -10.2      0.000      0.000
REMARK  Name = 
REMARK  7 active torsions:
REMARK  status: ('A' for Active; 'I' for Inactive)
REMARK    1  A    between atoms: N_3  and  C_4
REMARK    2  A    between atoms: C_8  and  O_12
REMARK    3  A    between atoms: O_12  and  C_13
REMARK    4  A    between atoms: N_15  and  C_16
REMARK    5  A    between atoms: N_26  and  C_27
REMARK    6  A    between atoms: C_30  and  O_31
REMARK    7  A    between atoms: O_31  and  C_32
REMARK                            x       y       z     vdW  Elec       q    Type
REMARK                         _______ _______ _______ _____ _____    ______ ____
ROOT
ATOM      4  C   UNL     1      -0.434   1.031  24.079  0.00  0.00    +0.156 C 
ATOM      5  C   UNL     1      -0.369   0.816  24.872  0.00  0.00    +0.166 C 
ATOM      6  O   UNL     1      -0.834   1.334  25.315  0.00  0.00    -0.348 OA
ATOM      7  C   UNL     1      -1.186   1.868  24.796  0.00  0.00    +0.186 C 
ATOM      8  C   UNL     1      -1.692   2.519  24.749  0.00  0.00    +0.229 C 
ATOM      9  C   UNL     1      -1.757   2.735  23.955  0.00  0.00    +0.188 C 
ATOM     10  O   UNL     1      -1.292   2.218  23.511  0.00  0.00    -0.348 OA
ATOM     11  C   UNL     1      -0.939   1.682  24.031  0.00  0.00    +0.168 C 
ENDROOT
BRANCH   4   3
ATOM      1  O   UNL     1       1.214   1.022  23.986  0.00  0.00    -0.249 OA
ATOM      2  C   UNL     1       0.764   0.657  23.397  0.00  0.00    +0.344 C 
ATOM      3  N   UNL     1      -0.059   0.662  23.443  0.00  0.00    -0.184 NA
ATOM     26  N   UNL     1       1.140   0.288  22.762  0.00  0.00    -0.161 NA
BRANCH  26  27
ATOM     27  C   UNL     1       1.963   0.283  22.715  0.00  0.00    +0.075 A 
ATOM     28  C   UNL     1       2.366  -0.430  22.608  0.00  0.00    +0.020 A 
ATOM     29  C   UNL     1       3.190  -0.435  22.562  0.00  0.00    +0.039 A 
ATOM     30  C   UNL     1       3.610   0.273  22.622  0.00  0.00    +0.145 A 
ATOM     38  C   UNL     1       3.208   0.984  22.729  0.00  0.00    +0.039 A 
ATOM     39  C   UNL     1       2.384   0.989  22.775  0.00  0.00    +0.020 A 
BRANCH  30  31
ATOM     31  O   UNL     1       4.434   0.268  22.575  0.00  0.00    -0.453 OA
BRANCH  31  32
ATOM     32  C   UNL     1       4.884   0.084  23.243  0.00  0.00    +0.145 A 
ATOM     33  C   UNL     1       4.981  -0.703  23.470  0.00  0.00    +0.037 A 
ATOM     34  C   UNL     1       5.432  -0.886  24.137  0.00  0.00    +0.003 A 
ATOM     35  C   UNL     1       5.784  -0.283  24.576  0.00  0.00    +0.000 A 
ATOM     36  C   UNL     1       5.686   0.504  24.348  0.00  0.00    +0.003 A 
ATOM     37  C   UNL     1       5.236   0.688  23.682  0.00  0.00    +0.037 A 
ENDBRANCH  31  32
ENDBRANCH  30  31
ENDBRANCH  26  27
ENDBRANCH   4   3
BRANCH   8  12
ATOM     12  O   UNL     1      -2.067   2.890  25.384  0.00  0.00    -0.432 OA
BRANCH  12  13
ATOM     13  C   UNL     1      -2.847   3.145  25.310  0.00  0.00    +0.425 C 
ATOM     14  O   UNL     1      -3.014   3.856  24.925  0.00  0.00    -0.224 OA
ATOM     15  N   UNL     1      -3.461   2.691  25.622  0.00  0.00    -0.142 NA
BRANCH  15  16
ATOM     16  C   UNL     1      -4.242   2.946  25.548  0.00  0.00    +0.077 A 
ATOM     17  C   UNL     1      -4.424   3.745  25.635  0.00  0.00    +0.017 A 
ATOM     18  C   UNL     1      -5.206   4.001  25.561  0.00  0.00    +0.001 A 
ATOM     19  C   UNL     1      -5.804   3.457  25.400  0.00  0.00    +0.000 A 
ATOM     20  C   UNL     1      -5.622   2.658  25.314  0.00  0.00    +0.001 A 
ATOM     21  C   UNL     1      -6.221   2.113  25.153  0.00  0.00    +0.000 A 
ATOM     22  C   UNL     1      -6.039   1.313  25.067  0.00  0.00    +0.000 A 
ATOM     23  C   UNL     1      -5.257   1.057  25.141  0.00  0.00    +0.000 A 
ATOM     24  C   UNL     1      -4.659   1.602  25.301  0.00  0.00    +0.001 A 
ATOM     25  C   UNL     1      -4.840   2.402  25.388  0.00  0.00    +0.015 A 
ENDBRANCH  15  16
ENDBRANCH  12  13
ENDBRANCH   8  12
TORSDOF 7
ENDMDL
MODEL 2
REMARK VINA RESULT:      -9.5      0.983      1.549
REMARK  Name = 
REMARK  7 active torsions:
REMARK  status: ('A' for Active; 'I' for Inactive)
REMARK    1  A    between atoms: N_3  and  C_4
REMARK    2  A    between atoms: C_8  and  O_12
REMARK    3  A    between atoms: O_12  and  C_13
REMARK    4  A    between atoms: N_15  and  C_16
REMARK    5  A    between atoms: N_26  and  C_27
REMARK    6  A    between atoms: C_30  and  O_31
REMARK    7  A    between atoms: O_31  and  C_32
REMARK                            x       y       z     vdW  Elec       q    Type
REMARK                         _______ _______ _______ _____ _____    ______ ____
ROOT
ATOM      4  C   UNL     1      -0.390   0.037  23.550  0.00  0.00    +0.156 C 
ATOM      5  C   UNL     1      -0.282  -0.398  24.242  0.00  0.00    +0.166 C 
ATOM      6  O   UNL     1      -0.903  -0.221  24.755  0.00  0.00    -0.348 OA
ATOM      7  C   UNL     1      -1.396   0.323  24.380  0.00  0.00    +0.186 C 
ATOM      8  C   UNL     1      -2.085   0.770  24.465  0.00  0.00    +0.229 C 
ATOM      9  C   UNL     1      -2.194   1.206  23.773  0.00  0.00    +0.188 C 
ATOM     10  O   UNL     1      -1.572   1.029  23.260  0.00  0.00    -0.348 OA
ATOM     11  C   UNL     1      -1.079   0.483  23.635  0.00  0.00    +0.168 C 
ENDROOT
BRANCH   4   3
ATOM      1  O   UNL     1       1.235   0.260  23.731  0.00  0.00    -0.249 OA
ATOM      2  C   UNL     1       0.915   0.140  22.979  0.00  0.00    +0.344 C 
ATOM      3  N   UNL     1       0.103   0.028  22.889  0.00  0.00    -0.184 NA
ATOM     26  N   UNL     1       1.409   0.131  22.319  0.00  0.00    -0.161 NA
BRANCH  26  27
ATOM     27  C   UNL     1       2.221   0.242  22.409  0.00  0.00    +0.075 A 
ATOM     28  C   UNL     1       2.749  -0.328  22.130  0.00  0.00    +0.020 A 
ATOM     29  C   UNL     1       3.562  -0.216  22.220  0.00  0.00    +0.039 A 
ATOM     30  C   UNL     1       3.846   0.465  22.589  0.00  0.00    +0.145 A 
ATOM     38  C   UNL     1       3.318   1.034  22.868  0.00  0.00    +0.039 A 
ATOM     39  C   UNL     1       2.506   0.923  22.777  0.00  0.00    +0.020 A 
BRANCH  30  31
ATOM     31  O   UNL     1       4.658   0.577  22.680  0.00  0.00    -0.453 OA
BRANCH  31  32
ATOM     32  C   UNL     1       5.051   0.247  23.327  0.00  0.00    +0.145 A 
ATOM     33  C   UNL     1       5.317   0.734  23.938  0.00  0.00    +0.037 A 
ATOM     34  C   UNL     1       5.710   0.404  24.585  0.00  0.00    +0.003 A 
ATOM     35  C   UNL     1       5.835  -0.410  24.621  0.00  0.00    +0.000 A 
ATOM     36  C   UNL     1       5.568  -0.896  24.010  0.00  0.00    +0.003 A 
ATOM     37  C   UNL     1       5.176  -0.567  23.363  0.00  0.00    +0.037 A 
ENDBRANCH  31  32
ENDBRANCH  30  31
ENDBRANCH  26  27
ENDBRANCH   4   3
BRANCH   8  12
ATOM     12  O   UNL     1      -2.579   0.779  25.127  0.00  0.00    -0.432 OA
BRANCH  12  13
ATOM     13  C   UNL     1      -3.380   0.950  25.040  0.00  0.00    +0.425 C 
ATOM     14  O   UNL     1      -3.862   0.454  24.588  0.00  0.00    -0.224 OA
ATOM     15  N   UNL     1      -3.702   1.616  25.405  0.00  0.00    -0.142 NA
BRANCH  15  16
ATOM     16  C   UNL     1      -4.505   1.787  25.319  0.00  0.00    +0.077 A 
ATOM     17  C   UNL     1      -5.037   1.184  25.138  0.00  0.00    +0.017 A 
ATOM     18  C   UNL     1      -5.841   1.355  25.051  0.00  0.00    +0.001 A 
ATOM     19  C   UNL     1      -6.110   2.128  25.146  0.00  0.00    +0.000 A 
ATOM     20  C   UNL     1      -5.577   2.731  25.327  0.00  0.00    +0.001 A 
ATOM     21  C   UNL     1      -5.846   3.505  25.422  0.00  0.00    +0.000 A 
ATOM     22  C   UNL     1      -5.314   4.108  25.603  0.00  0.00    +0.000 A 
ATOM     23  C   UNL     1      -4.510   3.937  25.690  0.00  0.00    +0.000 A 
ATOM     24  C   UNL     1      -4.241   3.164  25.595  0.00  0.00    +0.001 A 
ATOM     25  C   UNL     1      -4.774   2.560  25.414  0.00  0.00    +0.015 A 
ENDBRANCH  15  16
ENDBRANCH  12  13
ENDBRANCH   8  12
TORSDOF 7
ENDMDL
MODEL 3
REMARK VINA RESULT:      -8.8      1.571      8.193
REMARK  Name = 
REMARK  7 active torsions:
REMARK  status: ('A' for Active; 'I' for Inactive)
REMARK    1  A    between atoms: N_3  and  C_4
REMARK    2  A    between atoms: C_8  and  O_12
REMARK    3  A    between atoms: O_12  and  C_13
REMARK    4  A    between atoms: N_15  and  C_16
REMARK    5  A    between atoms: N_26  and  C_27
REMARK    6  A    between atoms: C_30  and  O_31
REMARK    7  A    between atoms: O_31  and  C_32
REMARK                            x       y       z     vdW  Elec       q    Type
REMARK                         _______ _______ _______ _____ _____    ______ ____
ROOT
ATOM      4  C   UNL     1      -0.586  -0.702  24.320  0.00  0.00    +0.156 C 
ATOM      5  C   UNL     1      -0.490  -1.336  23.802  0.00  0.00    +0.166 C 
ATOM      6  O   UNL     1       0.151  -1.169  23.311  0.00  0.00    -0.348 OA
ATOM      7  C   UNL     1       0.451  -0.431  23.524  0.00  0.00    +0.186 C 
ATOM      8  C   UNL     1       1.032   0.129  23.353  0.00  0.00    +0.229 C 
ATOM      9  C   UNL     1       0.936   0.764  23.871  0.00  0.00    +0.188 C 
ATOM     10  O   UNL     1       0.296   0.597  24.363  0.00  0.00    -0.348 OA
ATOM     11  C   UNL     1      -0.004  -0.142  24.148  0.00  0.00    +0.168 C 
ENDROOT
BRANCH   4   3
ATOM      1  O   UNL     1      -2.026   0.029  23.984  0.00  0.00    -0.249 OA
ATOM      2  C   UNL     1      -1.882  -0.272  24.739  0.00  0.00    +0.344 C 
ATOM      3  N   UNL     1      -1.162  -0.638  24.907  0.00  0.00    -0.184 NA
ATOM     26  N   UNL     1      -2.459  -0.207  25.325  0.00  0.00    -0.161 NA
BRANCH  26  27
ATOM     27  C   UNL     1      -3.178   0.159  25.157  0.00  0.00    +0.075 A 
ATOM     28  C   UNL     1      -3.884  -0.264  25.234  0.00  0.00    +0.020 A 
ATOM     29  C   UNL     1      -4.604   0.102  25.066  0.00  0.00    +0.039 A 
ATOM     30  C   UNL     1      -4.619   0.890  24.821  0.00  0.00    +0.145 A 
ATOM     38  C   UNL     1      -3.915   1.312  24.744  0.00  0.00    +0.039 A 
ATOM     39  C   UNL     1      -3.194   0.946  24.912  0.00  0.00    +0.020 A 
BRANCH  30  31
ATOM     31  O   UNL     1      -5.339   1.256  24.653  0.00  0.00    -0.453 OA
BRANCH  31  32
ATOM     32  C   UNL     1      -5.568   1.929  25.072  0.00  0.00    +0.145 A 
ATOM     33  C   UNL     1      -6.048   1.855  25.739  0.00  0.00    +0.037 A 
ATOM     34  C   UNL     1      -6.277   2.529  26.158  0.00  0.00    +0.003 A 
ATOM     35  C   UNL     1      -6.026   3.275  25.910  0.00  0.00    +0.000 A 
ATOM     36  C   UNL     1      -5.546   3.347  25.243  0.00  0.00    +0.003 A 
ATOM     37  C   UNL     1      -5.317   2.675  24.824  0.00  0.00    +0.037 A 
ENDBRANCH  31  32
ENDBRANCH  30  31
ENDBRANCH  26  27
ENDBRANCH   4   3
BRANCH   8  12
ATOM     12  O   UNL     1       1.609   0.065  22.765  0.00  0.00    -0.432 OA
BRANCH  12  13
ATOM     13  C   UNL     1       2.369   0.353  22.901  0.00  0.00    +0.425 C 
ATOM     14  O   UNL     1       2.479   1.144  23.111  0.00  0.00    -0.224 OA
ATOM     15  N   UNL     1       3.020  -0.147  22.827  0.00  0.00    -0.142 NA
BRANCH  15  16
ATOM     16  C   UNL     1       3.781   0.141  22.963  0.00  0.00    +0.077 A 
ATOM     17  C   UNL     1       3.988   0.896  22.704  0.00  0.00    +0.017 A 
ATOM     18  C   UNL     1       4.749   1.185  22.840  0.00  0.00    +0.001 A 
ATOM     19  C   UNL     1       5.303   0.719  23.235  0.00  0.00    +0.000 A 
ATOM     20  C   UNL     1       5.096  -0.036  23.493  0.00  0.00    +0.001 A 
ATOM     21  C   UNL     1       5.650  -0.504  23.888  0.00  0.00    +0.000 A 
ATOM     22  C   UNL     1       5.444  -1.259  24.147  0.00  0.00    +0.000 A 
ATOM     23  C   UNL     1       4.682  -1.548  24.011  0.00  0.00    +0.000 A 
ATOM     24  C   UNL     1       4.128  -1.081  23.616  0.00  0.00    +0.001 A 
ATOM     25  C   UNL     1       4.335  -0.325  23.357  0.00  0.00    +0.015 A 
ENDBRANCH  15  16
ENDBRANCH  12  13
ENDBRANCH   8  12
TORSDOF 7
ENDMDL
MODEL 4
REMARK VINA RESULT:      -8.5      3.010      4.302
REMARK  Name = 
REMARK  7 active torsions:
REMARK  status: ('A' for Active; 'I' for Inactive)
REMARK    1  A    between atoms: N_3  and  C_4
REMARK    2  A    between atoms: C_8  and  O_12
REMARK    3  A    between atoms: O_12  and  C_13
REMARK    4  A    between atoms: N_15  and  C_16
REMARK    5  A    between atoms: N_26  and  C_27
REMARK    6  A    between atoms: C_30  and  O_31
REMARK    7  A    between atoms: O_31  and  C_32
REMARK                            x       y       z     vdW  Elec       q    Type
REMARK                         _______ _______ _______ _____ _____    ______ ____
ROOT
ATOM      4  C   UNL     1      -0.497   2.220  24.518  0.00  0.00    +0.156 C 
ATOM      5  C   UNL     1      -0.646   2.637  23.824  0.00  0.00    +0.166 C 
ATOM      6  O   UNL     1      -1.115   3.289  24.013  0.00  0.00    -0.348 OA
ATOM      7  C   UNL     1      -1.254   3.274  24.826  0.00  0.00    +0.186 C 
ATOM      8  C   UNL     1      -1.630   3.669  25.446  0.00  0.00    +0.229 C 
ATOM      9  C   UNL     1      -1.480   3.251  26.142  0.00  0.00    +0.188 C 
ATOM     10  O   UNL     1      -1.012   2.599  25.953  0.00  0.00    -0.348 OA
ATOM     11  C   UNL     1      -0.872   2.614  25.139  0.00  0.00    +0.168 C 
ENDROOT
BRANCH   4   3
ATOM      1  O   UNL     1      -1.245   0.749  24.502  0.00  0.00    -0.249 OA
ATOM      2  C   UNL     1      -0.424   0.794  24.576  0.00  0.00    +0.344 C 
ATOM      3  N   UNL     1      -0.049   1.529  24.584  0.00  0.00    -0.184 NA
ATOM     26  N   UNL     1       0.022   0.103  24.641  0.00  0.00    -0.161 NA
BRANCH  26  27
ATOM     27  C   UNL     1      -0.351  -0.632  24.633  0.00  0.00    +0.075 A 
ATOM     28  C   UNL     1      -0.495  -1.014  23.915  0.00  0.00    +0.020 A 
ATOM     29  C   UNL     1      -0.869  -1.750  23.907  0.00  0.00    +0.039 A 
ATOM     30  C   UNL     1      -1.100  -2.102  24.617  0.00  0.00    +0.145 A 
ATOM     38  C   UNL     1      -0.957  -1.720  25.333  0.00  0.00    +0.039 A 
ATOM     39  C   UNL     1      -0.583  -0.985  25.341  0.00  0.00    +0.020 A 
BRANCH  30  31
ATOM     31  O   UNL     1      -1.474  -2.837  24.609  0.00  0.00    -0.453 OA
BRANCH  31  32
ATOM     32  C   UNL     1      -2.296  -2.882  24.543  0.00  0.00    +0.145 A 
ATOM     33  C   UNL     1      -2.770  -2.733  25.202  0.00  0.00    +0.037 A 
ATOM     34  C   UNL     1      -3.591  -2.777  25.136  0.00  0.00    +0.003 A 
ATOM     35  C   UNL     1      -3.938  -2.971  24.413  0.00  0.00    +0.000 A 
ATOM     36  C   UNL     1      -3.463  -3.120  23.755  0.00  0.00    +0.003 A 
ATOM     37  C   UNL     1      -2.642  -3.076  23.820  0.00  0.00    +0.037 A 
ENDBRANCH  31  32
ENDBRANCH  30  31
ENDBRANCH  26  27
ENDBRANCH   4   3
BRANCH   8  12
ATOM     12  O   UNL     1      -2.078   4.359  25.382  0.00  0.00    -0.432 OA
BRANCH  12  13
ATOM     13  C   UNL     1      -2.880   4.350  25.572  0.00  0.00    +0.425 C 
ATOM     14  O   UNL     1      -3.149   4.746  26.244  0.00  0.00    -0.224 OA
ATOM     15  N   UNL     1      -3.413   3.946  25.090  0.00  0.00    -0.142 NA
BRANCH  15  16
ATOM     16  C   UNL     1      -4.216   3.937  25.281  0.00  0.00    +0.077 A 
ATOM     17  C   UNL     1      -4.573   4.610  25.594  0.00  0.00    +0.017 A 
ATOM     18  C   UNL     1      -5.377   4.601  25.785  0.00  0.00    +0.001 A 
ATOM     19  C   UNL     1      -5.822   3.919  25.661  0.00  0.00    +0.000 A 
ATOM     20  C   UNL     1      -5.465   3.245  25.347  0.00  0.00    +0.001 A 
ATOM     21  C   UNL     1      -5.910   2.561  25.223  0.00  0.00    +0.000 A 
ATOM     22  C   UNL     1      -5.553   1.887  24.909  0.00  0.00    +0.000 A 
ATOM     23  C   UNL     1      -4.750   1.897  24.719  0.00  0.00    +0.000 A 
ATOM     24  C   UNL     1      -4.305   2.579  24.843  0.00  0.00    +0.001 A 
ATOM     25  C   UNL     1      -4.661   3.254  25.157  0.00  0.00    +0.015 A 
ENDBRANCH  15  16
ENDBRANCH  12  13
ENDBRANCH   8  12
TORSDOF 7
ENDMDL
MODEL 5
REMARK VINA RESULT:      -8.4      2.051      2.821
REMARK  Name = 
REMARK  7 active torsions:
REMARK  status: ('A' for Active; 'I' for Inactive)
REMARK    1  A    between atoms: N_3  and  C_4
REMARK    2  A    between atoms: C_8  and  O_12
REMARK    3  A    between atoms: O_12  and  C_13
REMARK    4  A    between atoms: N_15  and  C_16
REMARK    5  A    between atoms: N_26  and  C_27
REMARK    6  A    between atoms: C_30  and  O_31
REMARK    7  A    between atoms: O_31  and  C_32
REMARK                            x       y       z     vdW  Elec       q    Type
REMARK                         _______ _______ _______ _____ _____    ______ ____
ROOT
ATOM      4  C   UNL     1      -0.268   1.812  24.388  0.00  0.00    +0.156 C 
ATOM      5  C   UNL     1      -0.233   1.447  25.126  0.00  0.00    +0.166 C 
ATOM      6  O   UNL     1      -1.000   1.235  25.343  0.00  0.00    -0.348 OA
ATOM      7  C   UNL     1      -1.509   1.469  24.738  0.00  0.00    +0.186 C 
ATOM      8  C   UNL     1      -2.299   1.483  24.498  0.00  0.00    +0.229 C 
ATOM      9  C   UNL     1      -2.335   1.849  23.759  0.00  0.00    +0.188 C 
ATOM     10  O   UNL     1      -1.567   2.061  23.542  0.00  0.00    -0.348 OA
ATOM     11  C   UNL     1      -1.057   1.826  24.148  0.00  0.00    +0.168 C 
ENDROOT
BRANCH   4   3
ATOM      1  O   UNL     1       0.992   0.824  23.992  0.00  0.00    -0.249 OA
ATOM      2  C   UNL     1       1.003   1.618  23.765  0.00  0.00    +0.344 C 
ATOM      3  N   UNL     1       0.373   2.112  23.963  0.00  0.00    -0.184 NA
ATOM     26  N   UNL     1       1.644   1.916  23.340  0.00  0.00    -0.161 NA
BRANCH  26  27
ATOM     27  C   UNL     1       2.274   1.422  23.142  0.00  0.00    +0.075 A 
ATOM     28  C   UNL     1       2.134   0.631  22.951  0.00  0.00    +0.020 A 
ATOM     29  C   UNL     1       2.764   0.137  22.753  0.00  0.00    +0.039 A 
ATOM     30  C   UNL     1       3.534   0.433  22.746  0.00  0.00    +0.145 A 
ATOM     38  C   UNL     1       3.674   1.223  22.937  0.00  0.00    +0.039 A 
ATOM     39  C   UNL     1       3.044   1.717  23.135  0.00  0.00    +0.020 A 
BRANCH  30  31
ATOM     31  O   UNL     1       4.164  -0.061  22.548  0.00  0.00    -0.453 OA
BRANCH  31  32
ATOM     32  C   UNL     1       4.692  -0.310  23.132  0.00  0.00    +0.145 A 
ATOM     33  C   UNL     1       5.367   0.136  23.294  0.00  0.00    +0.037 A 
ATOM     34  C   UNL     1       5.896  -0.114  23.877  0.00  0.00    +0.003 A 
ATOM     35  C   UNL     1       5.749  -0.808  24.297  0.00  0.00    +0.000 A 
ATOM     36  C   UNL     1       5.074  -1.253  24.134  0.00  0.00    +0.003 A 
ATOM     37  C   UNL     1       4.546  -1.005  23.552  0.00  0.00    +0.037 A 
ENDBRANCH  31  32
ENDBRANCH  30  31
ENDBRANCH  26  27
ENDBRANCH   4   3
BRANCH   8  12
ATOM     12  O   UNL     1      -2.941   1.184  24.923  0.00  0.00    -0.432 OA
BRANCH  12  13
ATOM     13  C   UNL     1      -3.378   0.555  24.619  0.00  0.00    +0.425 C 
ATOM     14  O   UNL     1      -3.965   0.694  24.056  0.00  0.00    -0.224 OA
ATOM     15  N   UNL     1      -3.230  -0.214  24.878  0.00  0.00    -0.142 NA
BRANCH  15  16
ATOM     16  C   UNL     1      -3.668  -0.844  24.575  0.00  0.00    +0.077 A 
ATOM     17  C   UNL     1      -4.414  -0.709  24.251  0.00  0.00    +0.017 A 
ATOM     18  C   UNL     1      -4.852  -1.339  23.946  0.00  0.00    +0.001 A 
ATOM     19  C   UNL     1      -4.544  -2.103  23.967  0.00  0.00    +0.000 A 
ATOM     20  C   UNL     1      -3.798  -2.239  24.291  0.00  0.00    +0.001 A 
ATOM     21  C   UNL     1      -3.489  -3.004  24.312  0.00  0.00    +0.000 A 
ATOM     22  C   UNL     1      -2.743  -3.139  24.636  0.00  0.00    +0.000 A 
ATOM     23  C   UNL     1      -2.305  -2.508  24.940  0.00  0.00    +0.000 A 
ATOM     24  C   UNL     1      -2.613  -1.744  24.919  0.00  0.00    +0.001 A 
ATOM     25  C   UNL     1      -3.360  -1.608  24.595  0.00  0.00    +0.015 A 
ENDBRANCH  15  16
ENDBRANCH  12  13
ENDBRANCH   8  12
TORSDOF 7
ENDMDL
MODEL 6
REMARK VINA RESULT:      -8.2      3.820      5.448
REMARK  Name = 
REMARK  7 active torsions:
REMARK  status: ('A' for Active; 'I' for Inactive)
REMARK    1  A    between atoms: N_3  and  C_4
REMARK    2  A    between atoms: C_8  and  O_12
REMARK    3  A    between atoms: O_12  and  C_13
REMARK    4  A    between atoms: N_15  and  C_16
REMARK    5  A    between atoms: N_26  and  C_27
REMARK    6  A    between atoms: C_30  and  O_31
REMARK    7  A    between atoms: O_31  and  C_32
REMARK                            x       y       z     vdW  Elec       q    Type
REMARK                         _______ _______ _______ _____ _____    ______ ____
ROOT
ATOM      4  C   UNL     1      -5.216   1.616  25.099  0.00  0.00    +0.156 C 
ATOM      5  C   UNL     1      -5.346   1.935  25.848  0.00  0.00    +0.166 C 
ATOM      6  O   UNL     1      -5.080   2.716  25.841  0.00  0.00    -0.348 OA
ATOM      7  C   UNL     1      -4.786   2.879  25.089  0.00  0.00    +0.186 C 
ATOM      8  C   UNL     1      -4.439   3.462  24.619  0.00  0.00    +0.229 C 
ATOM      9  C   UNL     1      -4.308   3.142  23.869  0.00  0.00    +0.188 C 
ATOM     10  O   UNL     1      -4.574   2.362  23.876  0.00  0.00    -0.348 OA
ATOM     11  C   UNL     1      -4.869   2.199  24.630  0.00  0.00    +0.168 C 
ENDROOT
BRANCH   4   3
ATOM      1  O   UNL     1      -4.040   0.459  25.067  0.00  0.00    -0.249 OA
ATOM      2  C   UNL     1      -4.812   0.269  24.844  0.00  0.00    +0.344 C 
ATOM      3  N   UNL     1      -5.400   0.847  24.861  0.00  0.00    -0.184 NA
ATOM     26  N   UNL     1      -4.995  -0.499  24.606  0.00  0.00    -0.161 NA
BRANCH  26  27
ATOM     27  C   UNL     1      -4.407  -1.076  24.590  0.00  0.00    +0.075 A 
ATOM     28  C   UNL     1      -4.062  -1.335  25.294  0.00  0.00    +0.020 A 
ATOM     29  C   UNL     1      -3.474  -1.913  25.278  0.00  0.00    +0.039 A 
ATOM     30  C   UNL     1      -3.231  -2.233  24.557  0.00  0.00    +0.145 A 
ATOM     38  C   UNL     1      -3.575  -1.975  23.854  0.00  0.00    +0.039 A 
ATOM     39  C   UNL     1      -4.163  -1.397  23.870  0.00  0.00    +0.020 A 
BRANCH  30  31
ATOM     31  O   UNL     1      -2.642  -2.811  24.541  0.00  0.00    -0.453 OA
BRANCH  31  32
ATOM     32  C   UNL     1      -1.849  -2.595  24.615  0.00  0.00    +0.145 A 
ATOM     33  C   UNL     1      -1.482  -2.622  25.353  0.00  0.00    +0.037 A 
ATOM     34  C   UNL     1      -0.688  -2.406  25.427  0.00  0.00    +0.003 A 
ATOM     35  C   UNL     1      -0.263  -2.164  24.763  0.00  0.00    +0.000 A 
ATOM     36  C   UNL     1      -0.631  -2.137  24.025  0.00  0.00    +0.003 A 
ATOM     37  C   UNL     1      -1.423  -2.352  23.951  0.00  0.00    +0.037 A 
ENDBRANCH  31  32
ENDBRANCH  30  31
ENDBRANCH  26  27
ENDBRANCH   4   3
BRANCH   8  12
ATOM     12  O   UNL     1      -4.254   4.231  24.857  0.00  0.00    -0.432 OA
BRANCH  12  13
ATOM     13  C   UNL     1      -3.489   4.521  24.759  0.00  0.00    +0.425 C 
ATOM     14  O   UNL     1      -3.319   5.038  24.139  0.00  0.00    -0.224 OA
ATOM     15  N   UNL     1      -2.892   4.294  25.282  0.00  0.00    -0.142 NA
BRANCH  15  16
ATOM     16  C   UNL     1      -2.126   4.584  25.184  0.00  0.00    +0.077 A 
ATOM     17  C   UNL     1      -2.008   5.364  24.945  0.00  0.00    +0.017 A 
ATOM     18  C   UNL     1      -1.240   5.654  24.847  0.00  0.00    +0.001 A 
ATOM     19  C   UNL     1      -0.593   5.163  24.988  0.00  0.00    +0.000 A 
ATOM     20  C   UNL     1      -0.711   4.383  25.227  0.00  0.00    +0.001 A 
ATOM     21  C   UNL     1      -0.064   3.891  25.369  0.00  0.00    +0.000 A 
ATOM     22  C   UNL     1      -0.182   3.111  25.608  0.00  0.00    +0.000 A 
ATOM     23  C   UNL     1      -0.949   2.821  25.706  0.00  0.00    +0.000 A 
ATOM     24  C   UNL     1      -1.596   3.312  25.565  0.00  0.00    +0.001 A 
ATOM     25  C   UNL     1      -1.479   4.093  25.325  0.00  0.00    +0.015 A 
ENDBRANCH  15  16
ENDBRANCH  12  13
ENDBRANCH   8  12
TORSDOF 7
ENDMDL
MODEL 7
REMARK VINA RESULT:      -7.3     15.845     16.983
REMARK  Name = 
REMARK  7 active torsions:
REMARK  status: ('A' for Active; 'I' for Inactive)
REMARK    1  A    between atoms: N_3  and  C_4
REMARK    2  A    between atoms: C_8  and  O_12
REMARK    3  A    between atoms: O_12  and  C_13
REMARK    4  A    between atoms: N_15  and  C_16
REMARK    5  A    between atoms: N_26  and  C_27
REMARK    6  A    between atoms: C_30  and  O_31
REMARK    7  A    between atoms: O_31  and  C_32
REMARK                            x       y       z     vdW  Elec       q    Type
REMARK                         _______ _______ _______ _____ _____    ______ ____
ROOT
ATOM      4  C   UNL     1      -7.695  -9.701  12.332  0.00  0.00    +0.156 C 
ATOM      5  C   UNL     1      -7.254 -10.060  12.929  0.00  0.00    +0.166 C 
ATOM      6  O   UNL     1      -7.757 -10.201  13.568  0.00  0.00    -0.348 OA
ATOM      7  C   UNL     1      -8.509  -9.930  13.365  0.00  0.00    +0.186 C 
ATOM      8  C   UNL     1      -9.285  -9.849  13.635  0.00  0.00    +0.229 C 
ATOM      9  C   UNL     1      -9.727  -9.490  13.037  0.00  0.00    +0.188 C 
ATOM     10  O   UNL     1      -9.224  -9.348  12.399  0.00  0.00    -0.348 OA
ATOM     11  C   UNL     1      -8.471  -9.620  12.602  0.00  0.00    +0.168 C 
ENDROOT
BRANCH   4   3
ATOM      1  O   UNL     1      -6.080  -9.785  12.005  0.00  0.00    -0.249 OA
ATOM      2  C   UNL     1      -6.604  -9.506  11.431  0.00  0.00    +0.344 C 
ATOM      3  N   UNL     1      -7.412  -9.463  11.595  0.00  0.00    -0.184 NA
ATOM     26  N   UNL     1      -6.319  -9.269  10.694  0.00  0.00    -0.161 NA
BRANCH  26  27
ATOM     27  C   UNL     1      -5.513  -9.311  10.530  0.00  0.00    +0.075 A 
ATOM     28  C   UNL     1      -5.196  -9.994  10.191  0.00  0.00    +0.020 A 
ATOM     29  C   UNL     1      -4.388 -10.036  10.027  0.00  0.00    +0.039 A 
ATOM     30  C   UNL     1      -3.898  -9.396  10.202  0.00  0.00    +0.145 A 
ATOM     38  C   UNL     1      -4.214  -8.714  10.541  0.00  0.00    +0.039 A 
ATOM     39  C   UNL     1      -5.022  -8.672  10.705  0.00  0.00    +0.020 A 
BRANCH  30  31
ATOM     31  O   UNL     1      -3.091  -9.438  10.038  0.00  0.00    -0.453 OA
BRANCH  31  32
ATOM     32  C   UNL     1      -2.554  -9.601  10.644  0.00  0.00    +0.145 A 
ATOM     33  C   UNL     1      -1.962  -9.057  10.828  0.00  0.00    +0.037 A 
ATOM     34  C   UNL     1      -1.426  -9.220  11.434  0.00  0.00    +0.003 A 
ATOM     35  C   UNL     1      -1.482  -9.927  11.856  0.00  0.00    +0.000 A 
ATOM     36  C   UNL     1      -2.074 -10.471  11.671  0.00  0.00    +0.003 A 
ATOM     37  C   UNL     1      -2.610 -10.308  11.066  0.00  0.00    +0.037 A 
ENDBRANCH  31  32
ENDBRANCH  30  31
ENDBRANCH  26  27
ENDBRANCH   4   3
BRANCH   8  12
ATOM     12  O   UNL     1      -9.569 -10.087  14.373  0.00  0.00    -0.432 OA
BRANCH  12  13
ATOM     13  C   UNL     1      -9.911  -9.534  14.880  0.00  0.00    +0.425 C 
ATOM     14  O   UNL     1     -10.481  -9.009  14.595  0.00  0.00    -0.224 OA
ATOM     15  N   UNL     1      -9.684  -9.506  15.672  0.00  0.00    -0.142 NA
BRANCH  15  16
ATOM     16  C   UNL     1     -10.026  -8.952  16.180  0.00  0.00    +0.077 A 
ATOM     17  C   UNL     1     -10.194  -8.192  15.908  0.00  0.00    +0.017 A 
ATOM     18  C   UNL     1     -10.537  -7.639  16.417  0.00  0.00    +0.001 A 
ATOM     19  C   UNL     1     -10.710  -7.846  17.195  0.00  0.00    +0.000 A 
ATOM     20  C   UNL     1     -10.542  -8.606  17.467  0.00  0.00    +0.001 A 
ATOM     21  C   UNL     1     -10.716  -8.814  18.246  0.00  0.00    +0.000 A 
ATOM     22  C   UNL     1     -10.548  -9.574  18.518  0.00  0.00    +0.000 A 
ATOM     23  C   UNL     1     -10.205 -10.128  18.010  0.00  0.00    +0.000 A 
ATOM     24  C   UNL     1     -10.032  -9.921  17.231  0.00  0.00    +0.001 A 
ATOM     25  C   UNL     1     -10.200  -9.160  16.959  0.00  0.00    +0.015 A 
ENDBRANCH  15  16
ENDBRANCH  12  13
ENDBRANCH   8  12
TORSDOF 7
ENDMDL
