MODEL 1
REMARK VINA RESULT:     -10.7      0.000      0.000
REMARK  Name = 
REMARK  4 active torsions:
REMARK  status: ('A' for Active; 'I' for Inactive)
REMARK    1  A    between atoms: C_4  and  C_5
REMARK    2  A    between atoms: C_12  and  O_14
REMARK    3  A    between atoms: O_14  and  C_15
REMARK    4  A    between atoms: C_21  and  C_23
REMARK                            x       y       z     vdW  Elec       q    Type
REMARK                         _______ _______ _______ _____ _____    ______ ____
ROOT
ATOM      5  C   UNL     1      -3.099   0.091  24.363  0.00  0.00    +0.252 C 
ATOM      6  O   UNL     1      -2.344   0.328  24.128  0.00  0.00    -0.270 OA
ATOM      7  N   UNL     1      -3.686   0.655  24.494  0.00  0.00    -0.270 N 
ATOM      8  C   UNL     1      -4.421   0.360  24.727  0.00  0.00    +0.126 C 
ATOM      9  C   UNL     1      -5.112   0.775  24.898  0.00  0.00    +0.164 C 
ATOM     10  O   UNL     1      -5.240   1.591  24.878  0.00  0.00    -0.348 OA
ATOM     11  C   UNL     1      -4.708   2.190  24.682  0.00  0.00    +0.187 C 
ATOM     12  C   UNL     1      -3.917   2.123  24.458  0.00  0.00    +0.217 C 
ATOM     13  C   UNL     1      -3.462   1.439  24.374  0.00  0.00    +0.140 C 
ENDROOT
BRANCH   5   4
ATOM      1  C   UNL     1      -4.259  -2.553  24.047  0.00  0.00    +0.072 C 
ATOM      2  C   UNL     1      -3.799  -1.926  24.322  0.00  0.00    +0.123 A 
ATOM      3  C   UNL     1      -3.812  -1.152  24.034  0.00  0.00    +0.040 A 
ATOM      4  C   UNL     1      -3.265  -0.710  24.467  0.00  0.00    +0.095 A 
ATOM     21  C   UNL     1      -2.915  -1.211  25.022  0.00  0.00    +0.220 A 
ATOM     22  O   UNL     1      -3.245  -1.962  24.932  0.00  0.00    -0.454 OA
BRANCH  21  23
ATOM     23  C   UNL     1      -2.337  -0.998  25.570  0.00  0.00    +0.451 C 
ATOM     24  F   UNL     1      -1.759  -0.785  26.118  0.00  0.00    -0.163 F 
ATOM     25  F   UNL     1      -1.757  -1.076  24.989  0.00  0.00    -0.163 F 
ATOM     26  F   UNL     1      -2.917  -0.920  26.151  0.00  0.00    -0.163 F 
ENDBRANCH  21  23
ENDBRANCH   5   4
BRANCH  12  14
ATOM     14  O   UNL     1      -3.529   2.833  24.297  0.00  0.00    -0.459 OA
BRANCH  14  15
ATOM     15  C   UNL     1      -3.200   3.272  24.913  0.00  0.00    +0.245 A 
ATOM     16  C   UNL     1      -3.686   3.728  25.400  0.00  0.00    +0.156 A 
ATOM     17  N   UNL     1      -3.357   4.167  26.016  0.00  0.00    -0.236 NA
ATOM     18  C   UNL     1      -2.541   4.151  26.145  0.00  0.00    +0.120 A 
ATOM     19  C   UNL     1      -2.056   3.695  25.658  0.00  0.00    +0.123 A 
ATOM     20  N   UNL     1      -2.385   3.256  25.042  0.00  0.00    -0.207 NA
ENDBRANCH  14  15
ENDBRANCH  12  14
TORSDOF 4
ENDMDL
MODEL 2
REMARK VINA RESULT:     -10.6      1.581      2.348
REMARK  Name = 
REMARK  4 active torsions:
REMARK  status: ('A' for Active; 'I' for Inactive)
REMARK    1  A    between atoms: C_4  and  C_5
REMARK    2  A    between atoms: C_12  and  O_14
REMARK    3  A    between atoms: O_14  and  C_15
REMARK    4  A    between atoms: C_21  and  C_23
REMARK                            x       y       z     vdW  Elec       q    Type
REMARK                         _______ _______ _______ _____ _____    ______ ____
ROOT
ATOM      5  C   UNL     1      -2.980   0.262  24.227  0.00  0.00    +0.252 C 
ATOM      6  O   UNL     1      -3.374   0.694  23.645  0.00  0.00    -0.270 OA
ATOM      7  N   UNL     1      -2.282   0.554  24.555  0.00  0.00    -0.270 N 
ATOM      8  C   UNL     1      -1.931   0.079  25.132  0.00  0.00    +0.126 C 
ATOM      9  C   UNL     1      -1.239   0.214  25.560  0.00  0.00    +0.164 C 
ATOM     10  O   UNL     1      -0.725   0.859  25.516  0.00  0.00    -0.348 OA
ATOM     11  C   UNL     1      -0.778   1.527  25.034  0.00  0.00    +0.187 C 
ATOM     12  C   UNL     1      -1.356   1.715  24.476  0.00  0.00    +0.217 C 
ATOM     13  C   UNL     1      -2.025   1.281  24.264  0.00  0.00    +0.140 C 
ENDROOT
BRANCH   5   4
ATOM      1  C   UNL     1      -3.248  -2.573  24.799  0.00  0.00    +0.072 C 
ATOM      2  C   UNL     1      -3.407  -1.765  24.743  0.00  0.00    +0.123 A 
ATOM      3  C   UNL     1      -2.905  -1.193  24.424  0.00  0.00    +0.040 A 
ATOM      4  C   UNL     1      -3.284  -0.462  24.480  0.00  0.00    +0.095 A 
ATOM     21  C   UNL     1      -4.020  -0.582  24.832  0.00  0.00    +0.220 A 
ATOM     22  O   UNL     1      -4.096  -1.387  24.995  0.00  0.00    -0.454 OA
BRANCH  21  23
ATOM     23  C   UNL     1      -4.581   0.000  24.994  0.00  0.00    +0.451 C 
ATOM     24  F   UNL     1      -5.142   0.583  25.156  0.00  0.00    -0.163 F 
ATOM     25  F   UNL     1      -4.320   0.035  25.776  0.00  0.00    -0.163 F 
ATOM     26  F   UNL     1      -4.842  -0.034  24.213  0.00  0.00    -0.163 F 
ENDBRANCH  21  23
ENDBRANCH   5   4
BRANCH  12  14
ATOM     14  O   UNL     1      -1.251   2.431  24.079  0.00  0.00    -0.459 OA
BRANCH  14  15
ATOM     15  C   UNL     1      -1.352   3.143  24.482  0.00  0.00    +0.245 A 
ATOM     16  C   UNL     1      -0.692   3.583  24.712  0.00  0.00    +0.156 A 
ATOM     17  N   UNL     1      -0.793   4.296  25.115  0.00  0.00    -0.236 NA
ATOM     18  C   UNL     1      -1.552   4.570  25.288  0.00  0.00    +0.120 A 
ATOM     19  C   UNL     1      -2.211   4.130  25.057  0.00  0.00    +0.123 A 
ATOM     20  N   UNL     1      -2.110   3.417  24.655  0.00  0.00    -0.207 NA
ENDBRANCH  14  15
ENDBRANCH  12  14
TORSDOF 4
ENDMDL
MODEL 3
REMARK VINA RESULT:     -10.5      1.464      2.210
REMARK  Name = 
REMARK  4 active torsions:
REMARK  status: ('A' for Active; 'I' for Inactive)
REMARK    1  A    between atoms: C_4  and  C_5
REMARK    2  A    between atoms: C_12  and  O_14
REMARK    3  A    between atoms: O_14  and  C_15
REMARK    4  A    between atoms: C_21  and  C_23
REMARK                            x       y       z     vdW  Elec       q    Type
REMARK                         _______ _______ _______ _____ _____    ______ ____
ROOT
ATOM      5  C   UNL     1      -3.397  -0.526  25.072  0.00  0.00    +0.252 C 
ATOM      6  O   UNL     1      -4.077  -0.721  25.497  0.00  0.00    -0.270 OA
ATOM      7  N   UNL     1      -3.370   0.172  24.633  0.00  0.00    -0.270 N 
ATOM      8  C   UNL     1      -2.664   0.314  24.229  0.00  0.00    +0.126 C 
ATOM      9  C   UNL     1      -2.466   0.955  23.749  0.00  0.00    +0.164 C 
ATOM     10  O   UNL     1      -2.925   1.612  23.553  0.00  0.00    -0.348 OA
ATOM     11  C   UNL     1      -3.696   1.791  23.790  0.00  0.00    +0.187 C 
ATOM     12  C   UNL     1      -4.197   1.356  24.281  0.00  0.00    +0.217 C 
ATOM     13  C   UNL     1      -4.051   0.636  24.656  0.00  0.00    +0.140 C 
ENDROOT
BRANCH   5   4
ATOM      1  C   UNL     1      -0.691  -1.531  25.392  0.00  0.00    +0.072 C 
ATOM      2  C   UNL     1      -1.500  -1.492  25.234  0.00  0.00    +0.123 A 
ATOM      3  C   UNL     1      -1.974  -0.819  25.297  0.00  0.00    +0.040 A 
ATOM      4  C   UNL     1      -2.744  -1.029  25.087  0.00  0.00    +0.095 A 
ATOM     21  C   UNL     1      -2.745  -1.832  24.894  0.00  0.00    +0.220 A 
ATOM     22  O   UNL     1      -1.976  -2.117  24.985  0.00  0.00    -0.454 OA
BRANCH  21  23
ATOM     23  C   UNL     1      -3.400  -2.271  24.653  0.00  0.00    +0.451 C 
ATOM     24  F   UNL     1      -4.055  -2.711  24.411  0.00  0.00    -0.163 F 
ATOM     25  F   UNL     1      -3.599  -2.407  25.441  0.00  0.00    -0.163 F 
ATOM     26  F   UNL     1      -3.200  -2.135  23.864  0.00  0.00    -0.163 F 
ENDBRANCH  21  23
ENDBRANCH   5   4
BRANCH  12  14
ATOM     14  O   UNL     1      -4.942   1.685  24.414  0.00  0.00    -0.459 OA
BRANCH  14  15
ATOM     15  C   UNL     1      -5.024   2.322  24.931  0.00  0.00    +0.245 A 
ATOM     16  C   UNL     1      -5.437   2.227  25.639  0.00  0.00    +0.156 A 
ATOM     17  N   UNL     1      -5.520   2.864  26.157  0.00  0.00    -0.236 NA
ATOM     18  C   UNL     1      -5.189   3.596  25.968  0.00  0.00    +0.120 A 
ATOM     19  C   UNL     1      -4.776   3.690  25.260  0.00  0.00    +0.123 A 
ATOM     20  N   UNL     1      -4.693   3.054  24.742  0.00  0.00    -0.207 NA
ENDBRANCH  14  15
ENDBRANCH  12  14
TORSDOF 4
ENDMDL
MODEL 4
REMARK VINA RESULT:     -10.5      2.049      4.727
REMARK  Name = 
REMARK  4 active torsions:
REMARK  status: ('A' for Active; 'I' for Inactive)
REMARK    1  A    between atoms: C_4  and  C_5
REMARK    2  A    between atoms: C_12  and  O_14
REMARK    3  A    between atoms: O_14  and  C_15
REMARK    4  A    between atoms: C_21  and  C_23
REMARK                            x       y       z     vdW  Elec       q    Type
REMARK                         _______ _______ _______ _____ _____    ______ ____
ROOT
ATOM      5  C   UNL     1      -3.348   1.990  25.094  0.00  0.00    +0.252 C 
ATOM      6  O   UNL     1      -4.161   1.949  25.231  0.00  0.00    -0.270 OA
ATOM      7  N   UNL     1      -2.890   1.305  25.121  0.00  0.00    -0.270 N 
ATOM      8  C   UNL     1      -2.083   1.408  24.976  0.00  0.00    +0.126 C 
ATOM      9  C   UNL     1      -1.486   0.839  24.963  0.00  0.00    +0.164 C 
ATOM     10  O   UNL     1      -1.547   0.026  25.092  0.00  0.00    -0.348 OA
ATOM     11  C   UNL     1      -2.221  -0.418  25.266  0.00  0.00    +0.187 C 
ATOM     12  C   UNL     1      -2.999  -0.159  25.354  0.00  0.00    +0.217 C 
ATOM     13  C   UNL     1      -3.296   0.608  25.289  0.00  0.00    +0.140 C 
ENDROOT
BRANCH   5   4
ATOM      1  C   UNL     1      -1.619   4.319  25.250  0.00  0.00    +0.072 C 
ATOM      2  C   UNL     1      -2.200   3.788  25.002  0.00  0.00    +0.123 A 
ATOM      3  C   UNL     1      -2.381   3.066  25.358  0.00  0.00    +0.040 A 
ATOM      4  C   UNL     1      -2.995   2.717  24.930  0.00  0.00    +0.095 A 
ATOM     21  C   UNL     1      -3.193   3.224  24.310  0.00  0.00    +0.220 A 
ATOM     22  O   UNL     1      -2.701   3.886  24.355  0.00  0.00    -0.454 OA
BRANCH  21  23
ATOM     23  C   UNL     1      -3.779   3.093  23.745  0.00  0.00    +0.451 C 
ATOM     24  F   UNL     1      -4.365   2.962  23.179  0.00  0.00    -0.163 F 
ATOM     25  F   UNL     1      -3.213   2.784  23.230  0.00  0.00    -0.163 F 
ATOM     26  F   UNL     1      -4.344   3.402  24.259  0.00  0.00    -0.163 F 
ENDBRANCH  21  23
ENDBRANCH   5   4
BRANCH  12  14
ATOM     14  O   UNL     1      -3.554  -0.744  25.529  0.00  0.00    -0.459 OA
BRANCH  14  15
ATOM     15  C   UNL     1      -3.690  -1.356  24.993  0.00  0.00    +0.245 A 
ATOM     16  C   UNL     1      -3.369  -2.104  25.131  0.00  0.00    +0.156 A 
ATOM     17  N   UNL     1      -3.505  -2.716  24.595  0.00  0.00    -0.236 NA
ATOM     18  C   UNL     1      -3.963  -2.581  23.921  0.00  0.00    +0.120 A 
ATOM     19  C   UNL     1      -4.284  -1.834  23.784  0.00  0.00    +0.123 A 
ATOM     20  N   UNL     1      -4.147  -1.222  24.320  0.00  0.00    -0.207 NA
ENDBRANCH  14  15
ENDBRANCH  12  14
TORSDOF 4
ENDMDL
MODEL 5
REMARK VINA RESULT:     -10.5      2.438      4.017
REMARK  Name = 
REMARK  4 active torsions:
REMARK  status: ('A' for Active; 'I' for Inactive)
REMARK    1  A    between atoms: C_4  and  C_5
REMARK    2  A    between atoms: C_12  and  O_14
REMARK    3  A    between atoms: O_14  and  C_15
REMARK    4  A    between atoms: C_21  and  C_23
REMARK                            x       y       z     vdW  Elec       q    Type
REMARK                         _______ _______ _______ _____ _____    ______ ____
ROOT
ATOM      5  C   UNL     1      -3.445   1.698  25.000  0.00  0.00    +0.252 C 
ATOM      6  O   UNL     1      -2.901   2.255  25.274  0.00  0.00    -0.270 OA
ATOM      7  N   UNL     1      -3.205   0.923  24.858  0.00  0.00    -0.270 N 
ATOM      8  C   UNL     1      -3.792   0.410  24.586  0.00  0.00    +0.126 C 
ATOM      9  C   UNL     1      -3.729  -0.390  24.395  0.00  0.00    +0.164 C 
ATOM     10  O   UNL     1      -3.063  -0.876  24.429  0.00  0.00    -0.348 OA
ATOM     11  C   UNL     1      -2.296  -0.681  24.662  0.00  0.00    +0.187 C 
ATOM     12  C   UNL     1      -2.005   0.047  24.919  0.00  0.00    +0.217 C 
ATOM     13  C   UNL     1      -2.410   0.760  25.006  0.00  0.00    +0.140 C 
ENDROOT
BRANCH   5   4
ATOM      1  C   UNL     1      -6.345   1.792  25.125  0.00  0.00    +0.072 C 
ATOM      2  C   UNL     1      -5.563   1.961  24.927  0.00  0.00    +0.123 A 
ATOM      3  C   UNL     1      -4.894   1.569  25.211  0.00  0.00    +0.040 A 
ATOM      4  C   UNL     1      -4.229   1.918  24.869  0.00  0.00    +0.095 A 
ATOM     21  C   UNL     1      -4.486   2.526  24.374  0.00  0.00    +0.220 A 
ATOM     22  O   UNL     1      -5.310   2.552  24.410  0.00  0.00    -0.454 OA
BRANCH  21  23
ATOM     23  C   UNL     1      -4.005   3.021  23.923  0.00  0.00    +0.451 C 
ATOM     24  F   UNL     1      -3.523   3.515  23.471  0.00  0.00    -0.163 F 
ATOM     25  F   UNL     1      -3.911   3.521  24.571  0.00  0.00    -0.163 F 
ATOM     26  F   UNL     1      -4.099   2.520  23.274  0.00  0.00    -0.163 F 
ENDBRANCH  21  23
ENDBRANCH   5   4
BRANCH  12  14
ATOM     14  O   UNL     1      -1.203   0.064  25.115  0.00  0.00    -0.459 OA
BRANCH  14  15
ATOM     15  C   UNL     1      -0.633   0.019  24.521  0.00  0.00    +0.245 A 
ATOM     16  C   UNL     1      -0.312  -0.712  24.312  0.00  0.00    +0.156 A 
ATOM     17  N   UNL     1       0.259  -0.757  23.718  0.00  0.00    -0.236 NA
ATOM     18  C   UNL     1       0.508  -0.071  23.332  0.00  0.00    +0.120 A 
ATOM     19  C   UNL     1       0.186   0.659  23.541  0.00  0.00    +0.123 A 
ATOM     20  N   UNL     1      -0.384   0.704  24.135  0.00  0.00    -0.207 NA
ENDBRANCH  14  15
ENDBRANCH  12  14
TORSDOF 4
ENDMDL
MODEL 6
REMARK VINA RESULT:     -10.2      1.839      4.350
REMARK  Name = 
REMARK  4 active torsions:
REMARK  status: ('A' for Active; 'I' for Inactive)
REMARK    1  A    between atoms: C_4  and  C_5
REMARK    2  A    between atoms: C_12  and  O_14
REMARK    3  A    between atoms: O_14  and  C_15
REMARK    4  A    between atoms: C_21  and  C_23
REMARK                            x       y       z     vdW  Elec       q    Type
REMARK                         _______ _______ _______ _____ _____    ______ ____
ROOT
ATOM      5  C   UNL     1      -1.549   2.399  24.566  0.00  0.00    +0.252 C 
ATOM      6  O   UNL     1      -0.971   1.927  24.212  0.00  0.00    -0.270 OA
ATOM      7  N   UNL     1      -2.331   2.141  24.594  0.00  0.00    -0.270 N 
ATOM      8  C   UNL     1      -2.865   2.654  24.960  0.00  0.00    +0.126 C 
ATOM      9  C   UNL     1      -3.676   2.557  25.075  0.00  0.00    +0.164 C 
ATOM     10  O   UNL     1      -4.155   1.923  24.853  0.00  0.00    -0.348 OA
ATOM     11  C   UNL     1      -3.940   1.229  24.461  0.00  0.00    +0.187 C 
ATOM     12  C   UNL     1      -3.194   0.998  24.194  0.00  0.00    +0.217 C 
ATOM     13  C   UNL     1      -2.479   1.405  24.254  0.00  0.00    +0.140 C 
ENDROOT
BRANCH   5   4
ATOM      1  C   UNL     1      -1.444   5.250  25.110  0.00  0.00    +0.072 C 
ATOM      2  C   UNL     1      -1.294   4.439  25.141  0.00  0.00    +0.123 A 
ATOM      3  C   UNL     1      -1.657   3.861  24.677  0.00  0.00    +0.040 A 
ATOM      4  C   UNL     1      -1.343   3.128  24.891  0.00  0.00    +0.095 A 
ATOM     21  C   UNL     1      -0.786   3.254  25.486  0.00  0.00    +0.220 A 
ATOM     22  O   UNL     1      -0.756   4.064  25.641  0.00  0.00    -0.454 OA
BRANCH  21  23
ATOM     23  C   UNL     1      -0.337   2.673  25.862  0.00  0.00    +0.451 C 
ATOM     24  F   UNL     1       0.111   2.091  26.237  0.00  0.00    -0.163 F 
ATOM     25  F   UNL     1       0.201   2.684  25.237  0.00  0.00    -0.163 F 
ATOM     26  F   UNL     1      -0.875   2.661  26.487  0.00  0.00    -0.163 F 
ENDBRANCH  21  23
ENDBRANCH   5   4
BRANCH  12  14
ATOM     14  O   UNL     1      -3.160   0.264  23.818  0.00  0.00    -0.459 OA
BRANCH  14  15
ATOM     15  C   UNL     1      -3.287  -0.426  24.251  0.00  0.00    +0.245 A 
ATOM     16  C   UNL     1      -4.009  -0.822  24.192  0.00  0.00    +0.156 A 
ATOM     17  N   UNL     1      -4.137  -1.513  24.624  0.00  0.00    -0.236 NA
ATOM     18  C   UNL     1      -3.544  -1.809  25.116  0.00  0.00    +0.120 A 
ATOM     19  C   UNL     1      -2.822  -1.413  25.174  0.00  0.00    +0.123 A 
ATOM     20  N   UNL     1      -2.694  -0.722  24.741  0.00  0.00    -0.207 NA
ENDBRANCH  14  15
ENDBRANCH  12  14
TORSDOF 4
ENDMDL
