MODEL 1
REMARK VINA RESULT:     -11.5      0.000      0.000
REMARK  Name = 
REMARK  4 active torsions:
REMARK  status: ('A' for Active; 'I' for Inactive)
REMARK    1  A    between atoms: C_6  and  C_7
REMARK    2  A    between atoms: C_9  and  C_12
REMARK    3  A    between atoms: C_15  and  O_16
REMARK    4  A    between atoms: O_16  and  C_17
REMARK                            x       y       z     vdW  Elec       q    Type
REMARK                         _______ _______ _______ _____ _____    ______ ____
ROOT
ATOM     12  C   UNL     1      -3.169   1.249  24.761  0.00  0.00    +0.058 A 
ATOM     13  C   UNL     1      -3.978   1.087  24.728  0.00  0.00    +0.010 A 
ATOM     14  C   UNL     1      -4.261   0.347  24.956  0.00  0.00    +0.058 A 
ATOM     15  C   UNL     1      -3.736  -0.232  25.217  0.00  0.00    +0.225 A 
ATOM     23  N   UNL     1      -2.927  -0.072  25.250  0.00  0.00    -0.210 NA
ATOM     24  C   UNL     1      -2.644   0.669  25.022  0.00  0.00    +0.105 A 
ENDROOT
BRANCH  12   9
ATOM      7  C   UNL     1      -2.279   3.178  24.550  0.00  0.00    +0.251 A 
ATOM      8  N   UNL     1      -2.439   2.503  24.996  0.00  0.00    -0.190 NA
ATOM      9  C   UNL     1      -2.887   1.989  24.532  0.00  0.00    +0.205 A 
ATOM     10  N   UNL     1      -3.004   2.347  23.798  0.00  0.00    -0.056 NA
ATOM     11  O   UNL     1      -2.628   3.081  23.809  0.00  0.00    -0.336 OA
BRANCH   7   6
ATOM      1  C   UNL     1      -0.513   3.419  24.342  0.00  0.00    +0.090 C 
ATOM      2  N   UNL     1      -1.034   3.944  24.704  0.00  0.00    -0.265 NA
ATOM      3  C   UNL     1      -0.836   4.674  25.034  0.00  0.00    +0.073 C 
ATOM      4  C   UNL     1      -1.525   5.014  25.334  0.00  0.00    +0.019 C 
ATOM      5  C   UNL     1      -2.150   4.495  25.189  0.00  0.00    +0.027 C 
ATOM      6  C   UNL     1      -1.846   3.833  24.800  0.00  0.00    +0.138 C 
ENDBRANCH   7   6
ENDBRANCH  12   9
BRANCH  15  16
ATOM     16  O   UNL     1      -4.019  -0.973  25.445  0.00  0.00    -0.464 OA
BRANCH  16  17
ATOM     17  C   UNL     1      -3.891  -1.630  24.963  0.00  0.00    +0.168 C 
ATOM     18  C   UNL     1      -3.359  -2.216  25.195  0.00  0.00    +0.044 C 
ATOM     19  C   UNL     1      -3.232  -2.873  24.713  0.00  0.00    +0.004 C 
ATOM     20  C   UNL     1      -3.637  -2.944  23.997  0.00  0.00    +0.000 C 
ATOM     21  C   UNL     1      -4.169  -2.358  23.765  0.00  0.00    +0.004 C 
ATOM     22  C   UNL     1      -4.297  -1.701  24.247  0.00  0.00    +0.044 C 
ENDBRANCH  16  17
ENDBRANCH  15  16
TORSDOF 4
ENDMDL
MODEL 2
REMARK VINA RESULT:     -10.6      0.972      5.357
REMARK  Name = 
REMARK  4 active torsions:
REMARK  status: ('A' for Active; 'I' for Inactive)
REMARK    1  A    between atoms: C_6  and  C_7
REMARK    2  A    between atoms: C_9  and  C_12
REMARK    3  A    between atoms: C_15  and  O_16
REMARK    4  A    between atoms: O_16  and  C_17
REMARK                            x       y       z     vdW  Elec       q    Type
REMARK                         _______ _______ _______ _____ _____    ______ ____
ROOT
ATOM     12  C   UNL     1      -3.776   1.409  24.396  0.00  0.00    +0.058 A 
ATOM     13  C   UNL     1      -3.354   1.611  23.716  0.00  0.00    +0.010 A 
ATOM     14  C   UNL     1      -3.068   2.379  23.621  0.00  0.00    +0.058 A 
ATOM     15  C   UNL     1      -3.203   2.945  24.206  0.00  0.00    +0.225 A 
ATOM     23  N   UNL     1      -3.625   2.743  24.886  0.00  0.00    -0.210 NA
ATOM     24  C   UNL     1      -3.911   1.975  24.981  0.00  0.00    +0.105 A 
ENDROOT
BRANCH  12   9
ATOM      7  C   UNL     1      -4.129  -0.691  24.548  0.00  0.00    +0.251 A 
ATOM      8  N   UNL     1      -3.626  -0.053  24.405  0.00  0.00    -0.190 NA
ATOM      9  C   UNL     1      -4.062   0.641  24.490  0.00  0.00    +0.205 A 
ATOM     10  N   UNL     1      -4.836   0.433  24.686  0.00  0.00    -0.056 NA
ATOM     11  O   UNL     1      -4.877  -0.390  24.722  0.00  0.00    -0.336 OA
BRANCH   7   6
ATOM      1  C   UNL     1      -3.307  -1.611  25.851  0.00  0.00    +0.090 C 
ATOM      2  N   UNL     1      -3.544  -1.912  25.122  0.00  0.00    -0.265 NA
ATOM      3  C   UNL     1      -3.445  -2.688  24.862  0.00  0.00    +0.073 C 
ATOM      4  C   UNL     1      -3.762  -2.745  24.102  0.00  0.00    +0.019 C 
ATOM      5  C   UNL     1      -4.057  -2.004  23.892  0.00  0.00    +0.027 C 
ATOM      6  C   UNL     1      -3.922  -1.488  24.522  0.00  0.00    +0.138 C 
ENDBRANCH   7   6
ENDBRANCH  12   9
BRANCH  15  16
ATOM     16  O   UNL     1      -2.917   3.713  24.111  0.00  0.00    -0.464 OA
BRANCH  16  17
ATOM     17  C   UNL     1      -2.236   3.952  24.511  0.00  0.00    +0.168 C 
ATOM     18  C   UNL     1      -1.499   3.658  24.282  0.00  0.00    +0.044 C 
ATOM     19  C   UNL     1      -0.818   3.897  24.682  0.00  0.00    +0.004 C 
ATOM     20  C   UNL     1      -0.874   4.429  25.310  0.00  0.00    +0.000 C 
ATOM     21  C   UNL     1      -1.611   4.722  25.539  0.00  0.00    +0.004 C 
ATOM     22  C   UNL     1      -2.292   4.483  25.139  0.00  0.00    +0.044 C 
ENDBRANCH  16  17
ENDBRANCH  15  16
TORSDOF 4
ENDMDL
MODEL 3
REMARK VINA RESULT:     -10.2      1.584      5.534
REMARK  Name = 
REMARK  4 active torsions:
REMARK  status: ('A' for Active; 'I' for Inactive)
REMARK    1  A    between atoms: C_6  and  C_7
REMARK    2  A    between atoms: C_9  and  C_12
REMARK    3  A    between atoms: C_15  and  O_16
REMARK    4  A    between atoms: O_16  and  C_17
REMARK                            x       y       z     vdW  Elec       q    Type
REMARK                         _______ _______ _______ _____ _____    ______ ____
ROOT
ATOM     12  C   UNL     1      -1.118   0.795  24.852  0.00  0.00    +0.058 A 
ATOM     13  C   UNL     1      -1.000   1.004  25.642  0.00  0.00    +0.010 A 
ATOM     14  C   UNL     1      -0.734   1.760  25.834  0.00  0.00    +0.058 A 
ATOM     15  C   UNL     1      -0.583   2.308  25.236  0.00  0.00    +0.225 A 
ATOM     23  N   UNL     1      -0.700   2.100  24.446  0.00  0.00    -0.210 NA
ATOM     24  C   UNL     1      -0.967   1.343  24.254  0.00  0.00    +0.105 A 
ENDROOT
BRANCH  12   9
ATOM      7  C   UNL     1      -2.183  -1.008  24.436  0.00  0.00    +0.251 A 
ATOM      8  N   UNL     1      -2.169  -0.214  24.659  0.00  0.00    -0.190 NA
ATOM      9  C   UNL     1      -1.385   0.038  24.662  0.00  0.00    +0.205 A 
ATOM     10  N   UNL     1      -0.912  -0.601  24.439  0.00  0.00    -0.056 NA
ATOM     11  O   UNL     1      -1.405  -1.247  24.300  0.00  0.00    -0.336 OA
BRANCH   7   6
ATOM      1  C   UNL     1      -2.255  -2.786  24.671  0.00  0.00    +0.090 C 
ATOM      2  N   UNL     1      -2.888  -2.298  24.470  0.00  0.00    -0.265 NA
ATOM      3  C   UNL     1      -3.666  -2.540  24.340  0.00  0.00    +0.073 C 
ATOM      4  C   UNL     1      -4.113  -1.873  24.152  0.00  0.00    +0.019 C 
ATOM      5  C   UNL     1      -3.612  -1.218  24.165  0.00  0.00    +0.027 C 
ATOM      6  C   UNL     1      -2.855  -1.480  24.361  0.00  0.00    +0.138 C 
ENDBRANCH   7   6
ENDBRANCH  12   9
BRANCH  15  16
ATOM     16  O   UNL     1      -0.316   3.065  25.427  0.00  0.00    -0.464 OA
BRANCH  16  17
ATOM     17  C   UNL     1      -0.825   3.711  25.361  0.00  0.00    +0.168 C 
ATOM     18  C   UNL     1      -1.527   3.730  25.793  0.00  0.00    +0.044 C 
ATOM     19  C   UNL     1      -2.036   4.376  25.727  0.00  0.00    +0.004 C 
ATOM     20  C   UNL     1      -1.842   5.003  25.227  0.00  0.00    +0.000 C 
ATOM     21  C   UNL     1      -1.139   4.985  24.794  0.00  0.00    +0.004 C 
ATOM     22  C   UNL     1      -0.631   4.338  24.861  0.00  0.00    +0.044 C 
ENDBRANCH  16  17
ENDBRANCH  15  16
TORSDOF 4
ENDMDL
