REMARK  Name = 
REMARK  4 active torsions:
REMARK  status: ('A' for Active; 'I' for Inactive)
REMARK    1  A    between atoms: C_9  and  C_10
REMARK    2  A    between atoms: C_12  and  C_15
REMARK    3  A    between atoms: C_18  and  O_19
REMARK    4  A    between atoms: O_19  and  C_20
REMARK                            x       y       z     vdW  Elec       q    Type
REMARK                         _______ _______ _______ _____ _____    ______ ____
ROOT
ATOM     10  C   UNL     1       0.715  -1.238   0.000  0.00  0.00    +0.160 A 
ATOM     11  N   UNL     1       1.382  -1.722   0.000  0.00  0.00    -0.227 NA
ATOM     12  C   UNL     1       1.127  -2.507   0.000  0.00  0.00    +0.102 A 
ATOM     13  C   UNL     1       0.302  -2.507   0.000  0.00  0.00    +0.119 A 
ATOM     14  N   UNL     1       0.047  -1.722   0.000  0.00  0.00    -0.226 NA
ENDROOT
BRANCH  10   9
ATOM      1  C   UNL     1      -1.429   0.000   0.000  0.00  0.00    +0.095 C 
ATOM      2  C   UNL     1      -0.715  -0.412   0.000  0.00  0.00    +0.227 C 
ATOM      3  O   UNL     1      -0.715  -1.238   0.000  0.00  0.00    -0.275 OA
ATOM      4  N   UNL     1       0.000   0.000   0.000  0.00  0.00    -0.270 N 
ATOM      5  C   UNL     1       0.000   0.825   0.000  0.00  0.00    +0.126 C 
ATOM      6  C   UNL     1       0.715   1.238   0.000  0.00  0.00    +0.164 C 
ATOM      7  O   UNL     1       1.429   0.825   0.000  0.00  0.00    -0.350 OA
ATOM      8  C   UNL     1       1.429   0.000   0.000  0.00  0.00    +0.170 C 
ATOM      9  C   UNL     1       0.715  -0.412   0.000  0.00  0.00    +0.164 C 
ENDBRANCH  10   9
BRANCH  12  15
ATOM     15  C   UNL     1       1.612  -3.175   0.000  0.00  0.00    +0.019 A 
ATOM     16  C   UNL     1       2.432  -3.088   0.000  0.00  0.00    +0.005 A 
ATOM     17  C   UNL     1       2.917  -3.756   0.000  0.00  0.00    +0.037 A 
ATOM     18  C   UNL     1       2.582  -4.509   0.000  0.00  0.00    +0.147 A 
ATOM     24  C   UNL     1       1.761  -4.596   0.000  0.00  0.00    +0.037 A 
ATOM     25  C   UNL     1       1.276  -3.928   0.000  0.00  0.00    +0.005 A 
BRANCH  18  19
ATOM     19  O   UNL     1       3.067  -5.177   0.000  0.00  0.00    -0.404 OA
BRANCH  19  20
ATOM     20  C   UNL     1       3.887  -5.091   0.000  0.00  0.00    +0.575 C 
ATOM     21  F   UNL     1       4.708  -5.004   0.000  0.00  0.00    -0.133 F 
ATOM     22  F   UNL     1       3.973  -5.911   0.000  0.00  0.00    -0.133 F 
ATOM     23  F   UNL     1       3.801  -4.270   0.000  0.00  0.00    -0.133 F 
ENDBRANCH  19  20
ENDBRANCH  18  19
ENDBRANCH  12  15
TORSDOF 4
