REMARK  Name = 
REMARK  6 active torsions:
REMARK  status: ('A' for Active; 'I' for Inactive)
REMARK    1  A    between atoms: C_2  and  C_3
REMARK    2  A    between atoms: C_3  and  O_4
REMARK    3  A    between atoms: O_4  and  C_5
REMARK    4  A    between atoms: N_18  and  C_22
REMARK    5  A    between atoms: C_25  and  O_26
REMARK    6  A    between atoms: O_26  and  C_27
REMARK                            x       y       z     vdW  Elec       q    Type
REMARK                         _______ _______ _______ _____ _____    ______ ____
ROOT
ATOM      1  O   UNL     1       1.436  -2.763   0.000  0.00  0.00    -0.271 OA
ATOM      2  C   UNL     1       0.884  -2.150   0.000  0.00  0.00    +0.271 C 
ATOM     11  N   UNL     1       1.139  -1.365   0.000  0.00  0.00    -0.269 N 
ATOM     12  C   UNL     1       0.654  -0.698   0.000  0.00  0.00    +0.096 C 
ATOM     13  C   UNL     1       1.139  -0.030   0.000  0.00  0.00    +0.045 C 
ATOM     14  C   UNL     1       1.923  -0.285   0.000  0.00  0.00    +0.126 C 
ATOM     15  N   UNL     1       2.638   0.127   0.000  0.00  0.00    -0.187 NA
ATOM     16  C   UNL     1       3.352  -0.285   0.000  0.00  0.00    +0.333 C 
ATOM     17  O   UNL     1       4.067   0.127   0.000  0.00  0.00    -0.250 OA
ATOM     18  N   UNL     1       3.352  -1.110   0.000  0.00  0.00    -0.190 N 
ATOM     19  C   UNL     1       2.638  -1.523   0.000  0.00  0.00    +0.256 C 
ATOM     20  O   UNL     1       2.638  -2.348   0.000  0.00  0.00    -0.272 OA
ATOM     21  C   UNL     1       1.923  -1.110   0.000  0.00  0.00    +0.173 C 
ENDROOT
BRANCH  18  22
ATOM     22  C   UNL     1       4.067  -1.523   0.000  0.00  0.00    +0.062 A 
ATOM     23  C   UNL     1       4.781  -1.110   0.000  0.00  0.00    +0.018 A 
ATOM     24  C   UNL     1       5.496  -1.523   0.000  0.00  0.00    +0.039 A 
ATOM     25  C   UNL     1       5.496  -2.348   0.000  0.00  0.00    +0.145 A 
ATOM     33  C   UNL     1       4.781  -2.760   0.000  0.00  0.00    +0.039 A 
ATOM     34  C   UNL     1       4.067  -2.348   0.000  0.00  0.00    +0.018 A 
BRANCH  25  26
ATOM     26  O   UNL     1       6.210  -2.760   0.000  0.00  0.00    -0.453 OA
BRANCH  26  27
ATOM     27  C   UNL     1       6.210  -3.585   0.000  0.00  0.00    +0.145 A 
ATOM     28  C   UNL     1       6.925  -3.998   0.000  0.00  0.00    +0.037 A 
ATOM     29  C   UNL     1       6.925  -4.823   0.000  0.00  0.00    +0.003 A 
ATOM     30  C   UNL     1       6.210  -5.235   0.000  0.00  0.00    +0.000 A 
ATOM     31  C   UNL     1       5.496  -4.823   0.000  0.00  0.00    +0.003 A 
ATOM     32  C   UNL     1       5.496  -3.998   0.000  0.00  0.00    +0.037 A 
ENDBRANCH  26  27
ENDBRANCH  25  26
ENDBRANCH  18  22
BRANCH   2   3
ATOM      3  C   UNL     1       0.077  -2.321   0.000  0.00  0.00    +0.290 C 
BRANCH   3   4
ATOM      4  O   UNL     1      -0.178  -3.106   0.000  0.00  0.00    -0.466 OA
BRANCH   4   5
ATOM      5  C   UNL     1      -0.985  -3.278   0.000  0.00  0.00    +0.139 A 
ATOM      6  C   UNL     1      -1.240  -4.062   0.000  0.00  0.00    +0.037 A 
ATOM      7  C   UNL     1      -2.047  -4.234   0.000  0.00  0.00    +0.003 A 
ATOM      8  C   UNL     1      -2.599  -3.621   0.000  0.00  0.00    +0.000 A 
ATOM      9  C   UNL     1      -2.344  -2.836   0.000  0.00  0.00    +0.003 A 
ATOM     10  C   UNL     1      -1.537  -2.665   0.000  0.00  0.00    +0.037 A 
ENDBRANCH   4   5
ENDBRANCH   3   4
ENDBRANCH   2   3
TORSDOF 6
