REMARK  Name = 
REMARK  9 active torsions:
REMARK  status: ('A' for Active; 'I' for Inactive)
REMARK    1  A    between atoms: C_2  and  C_20
REMARK    2  A    between atoms: C_9  and  N_10
REMARK    3  A    between atoms: C_20  and  C_22
REMARK    4  A    between atoms: N_24  and  C_25
REMARK    5  A    between atoms: N_24  and  C_29
REMARK    6  A    between atoms: C_25  and  C_26
REMARK    7  A    between atoms: C_26  and  O_27
REMARK    8  A    between atoms: C_29  and  C_30
REMARK    9  A    between atoms: C_30  and  O_31
REMARK                            x       y       z     vdW  Elec       q    Type
REMARK                         _______ _______ _______ _____ _____    ______ ____
ROOT
ATOM      1  C   UNL     1       6.430  -1.238   0.000  0.00  0.00    +0.052 C 
ATOM      2  C   UNL     1       5.716  -0.825   0.000  0.00  0.00    -0.001 C 
ATOM      3  C   UNL     1       5.716   0.000   0.000  0.00  0.00    -0.000 C 
ATOM      4  C   UNL     1       6.430   0.412   0.000  0.00  0.00    -0.001 C 
ATOM      5  C   UNL     1       5.716   0.825   0.000  0.00  0.00    -0.000 C 
ATOM      6  C   UNL     1       6.430   1.238   0.000  0.00  0.00    +0.002 C 
ATOM      7  C   UNL     1       7.145   1.650   0.000  0.00  0.00    +0.022 C 
ATOM      8  C   UNL     1       7.859   1.238   0.000  0.00  0.00    +0.095 C 
ATOM     13  C   UNL     1       7.859   0.412   0.000  0.00  0.00    +0.019 C 
ATOM     14  C   UNL     1       8.574   0.000   0.000  0.00  0.00    +0.002 C 
ATOM     15  C   UNL     1       7.145   0.000   0.000  0.00  0.00    +0.045 C 
ATOM     16  C   UNL     1       7.145  -0.825   0.000  0.00  0.00    +0.145 C 
ATOM     17  O   UNL     1       7.859  -1.238   0.000  0.00  0.00    -0.224 OA
ENDROOT
BRANCH   8   9
ATOM      9  N   UNL     1       8.574   1.650   0.000  0.00  0.00    -0.207 NA
ATOM     10  C   UNL     1       8.574   2.475   0.000  0.00  0.00    +0.242 C 
ATOM     11  C   UNL     1       9.288   2.888   0.000  0.00  0.00    +0.096 C 
ATOM     12  O   UNL     1       7.859   2.888   0.000  0.00  0.00    -0.273 OA
ENDBRANCH   8   9
BRANCH   1  18
ATOM     18  C   UNL     1       6.430  -2.062   0.000  0.00  0.00    +0.075 C 
ATOM     19  C   UNL     1       7.145  -2.475   0.000  0.00  0.00    +0.009 C 
BRANCH  18  20
ATOM     20  C   UNL     1       5.716  -2.475   0.000  0.00  0.00    +0.225 C 
ATOM     21  O   UNL     1       5.001  -2.062   0.000  0.00  0.00    -0.275 OA
ATOM     22  N   UNL     1       5.716  -3.300   0.000  0.00  0.00    -0.274 N 
BRANCH  22  23
ATOM     23  C   UNL     1       5.001  -3.712   0.000  0.00  0.00    +0.125 C 
BRANCH  23  24
ATOM     24  C   UNL     1       5.001  -4.537   0.000  0.00  0.00    +0.164 C 
BRANCH  24  25
ATOM     25  O   UNL     1       4.287  -4.950   0.000  0.00  0.00    -0.349 OA
ATOM     26  C   UNL     1       4.287  -5.775   0.000  0.00  0.00    +0.174 C 
ENDBRANCH  24  25
ENDBRANCH  23  24
ENDBRANCH  22  23
BRANCH  22  27
ATOM     27  C   UNL     1       6.430  -3.712   0.000  0.00  0.00    +0.125 C 
BRANCH  27  28
ATOM     28  C   UNL     1       6.430  -4.537   0.000  0.00  0.00    +0.164 C 
BRANCH  28  29
ATOM     29  O   UNL     1       7.145  -4.950   0.000  0.00  0.00    -0.349 OA
ATOM     30  C   UNL     1       7.145  -5.775   0.000  0.00  0.00    +0.174 C 
ENDBRANCH  28  29
ENDBRANCH  27  28
ENDBRANCH  22  27
ENDBRANCH  18  20
ENDBRANCH   1  18
TORSDOF 9
