REMARK  Name = 
REMARK  2 active torsions:
REMARK  status: ('A' for Active; 'I' for Inactive)
REMARK    1  A    between atoms: C_7  and  N_10
REMARK    2  A    between atoms: C_13  and  C_15
REMARK                            x       y       z     vdW  Elec       q    Type
REMARK                         _______ _______ _______ _____ _____    ______ ____
ROOT
ATOM     10  N   UNL     1       0.715   3.466   0.000  0.00  0.00    -0.273 NA
ATOM     11  C   UNL     1       1.382   2.981   0.000  0.00  0.00    +0.073 C 
ATOM     12  C   UNL     1       1.127   2.196   0.000  0.00  0.00    +0.028 C 
ATOM     13  C   UNL     1       0.302   2.196   0.000  0.00  0.00    +0.095 C 
ATOM     14  C   UNL     1       0.047   2.981   0.000  0.00  0.00    +0.081 C 
ENDROOT
BRANCH  10   7
ATOM      1  C   UNL     1       0.000   7.179   0.000  0.00  0.00    +0.095 C 
ATOM      2  C   UNL     1       0.715   6.766   0.000  0.00  0.00    +0.226 C 
ATOM      3  O   UNL     1       1.429   7.179   0.000  0.00  0.00    -0.275 OA
ATOM      4  N   UNL     1       0.715   5.941   0.000  0.00  0.00    -0.279 N 
ATOM      5  C   UNL     1       1.429   5.529   0.000  0.00  0.00    +0.095 C 
ATOM      6  C   UNL     1       1.429   4.704   0.000  0.00  0.00    +0.038 C 
ATOM      7  C   UNL     1       0.715   4.291   0.000  0.00  0.00    +0.061 C 
ATOM      8  C   UNL     1       0.000   4.704   0.000  0.00  0.00    +0.038 C 
ATOM      9  C   UNL     1       0.000   5.529   0.000  0.00  0.00    +0.095 C 
ENDBRANCH  10   7
BRANCH  13  15
ATOM     15  C   UNL     1      -0.183   1.529   0.000  0.00  0.00    +0.227 A 
ATOM     16  N   UNL     1       0.072   0.745   0.000  0.00  0.00    -0.112 NA
ATOM     17  N   UNL     1      -0.596   0.260   0.000  0.00  0.00    -0.112 NA
ATOM     18  C   UNL     1      -1.263   0.745   0.000  0.00  0.00    +0.227 A 
ATOM     19  C   UNL     1      -2.047   0.489   0.000  0.00  0.00    +0.097 C 
ATOM     20  O   UNL     1      -1.008   1.529   0.000  0.00  0.00    -0.423 OA
ENDBRANCH  13  15
TORSDOF 2
