REMARK  Name = 
REMARK  7 active torsions:
REMARK  status: ('A' for Active; 'I' for Inactive)
REMARK    1  A    between atoms: S_2  and  C_3
REMARK    2  A    between atoms: C_7  and  N_8
REMARK    3  A    between atoms: N_11  and  C_12
REMARK    4  A    between atoms: C_12  and  C_13
REMARK    5  A    between atoms: C_20  and  C_21
REMARK    6  A    between atoms: C_21  and  N_22
REMARK    7  A    between atoms: N_25  and  C_28
REMARK                            x       y       z     vdW  Elec       q    Type
REMARK                         _______ _______ _______ _____ _____    ______ ____
ROOT
ATOM     13  C   UNL     1       1.814  -2.106   0.000  0.00  0.00    +0.079 C 
ATOM     14  C   UNL     1       1.661  -1.343   0.000  0.00  0.00    +0.018 C 
ATOM     15  C   UNL     1       0.923  -1.010   0.000  0.00  0.00    +0.005 C 
ATOM     16  C   UNL     1       0.961  -0.114   0.000  0.00  0.00    +0.017 C 
ATOM     17  C   UNL     1       1.205  -0.720   0.000  0.00  0.00    +0.072 C 
ATOM     18  N   UNL     1       1.065  -1.759   0.000  0.00  0.00    -0.272 NA
ATOM     19  C   UNL     1       0.226  -2.118   0.000  0.00  0.00    +0.073 C 
ATOM     20  C   UNL     1       0.119  -1.362   0.000  0.00  0.00    +0.032 C 
ENDROOT
BRANCH  13  12
ATOM     12  C   UNL     1       2.324  -2.754   0.000  0.00  0.00    +0.133 C 
BRANCH  12  11
ATOM      8  N   UNL     1       2.223  -4.934   0.000  0.00  0.00    -0.161 NA
ATOM      9  C   UNL     1       2.529  -4.168   0.000  0.00  0.00    +0.344 C 
ATOM     10  O   UNL     1       3.345  -4.050   0.000  0.00  0.00    -0.249 OA
ATOM     11  N   UNL     1       2.018  -3.520   0.000  0.00  0.00    -0.185 NA
BRANCH   8   7
ATOM      3  C   UNL     1       4.060  -6.112   0.000  0.00  0.00    +0.027 A 
ATOM      4  C   UNL     1       3.754  -6.878   0.000  0.00  0.00    +0.006 A 
ATOM      5  C   UNL     1       2.938  -6.996   0.000  0.00  0.00    +0.002 A 
ATOM      6  C   UNL     1       2.427  -6.348   0.000  0.00  0.00    +0.017 A 
ATOM      7  C   UNL     1       2.733  -5.582   0.000  0.00  0.00    +0.075 A 
ATOM     34  C   UNL     1       3.550  -5.464   0.000  0.00  0.00    +0.023 A 
BRANCH   3   2
ATOM      1  C   UNL     1       5.387  -6.642   0.000  0.00  0.00    +0.074 C 
ATOM      2  S   UNL     1       4.877  -5.994   0.000  0.00  0.00    -0.113 S 
ENDBRANCH   3   2
ENDBRANCH   8   7
ENDBRANCH  12  11
ENDBRANCH  13  12
BRANCH  20  21
ATOM     21  C   UNL     1      -0.602  -0.960   0.000  0.00  0.00    +0.074 C 
BRANCH  21  22
ATOM     22  N   UNL     1      -0.614  -0.136   0.000  0.00  0.00    -0.270 NA
ATOM     23  C   UNL     1      -1.335   0.266   0.000  0.00  0.00    +0.094 C 
ATOM     24  C   UNL     1      -1.347   1.091   0.000  0.00  0.00    +0.108 C 
ATOM     25  N   UNL     1      -0.639   1.514   0.000  0.00  0.00    -0.305 N 
ATOM     26  C   UNL     1       0.082   1.113   0.000  0.00  0.00    +0.108 C 
ATOM     27  C   UNL     1       0.094   0.288   0.000  0.00  0.00    +0.094 C 
BRANCH  25  28
ATOM     28  C   UNL     1      -0.651   2.339   0.000  0.00  0.00    +0.048 A 
ATOM     29  C   UNL     1      -1.372   2.741   0.000  0.00  0.00    +0.015 A 
ATOM     30  C   UNL     1      -1.384   3.566   0.000  0.00  0.00    +0.001 A 
ATOM     31  C   UNL     1      -0.676   3.989   0.000  0.00  0.00    +0.000 A 
ATOM     32  C   UNL     1       0.045   3.587   0.000  0.00  0.00    +0.001 A 
ATOM     33  C   UNL     1       0.057   2.762   0.000  0.00  0.00    +0.015 A 
ENDBRANCH  25  28
ENDBRANCH  21  22
ENDBRANCH  20  21
TORSDOF 7
