MODEL 1
REMARK VINA RESULT:     -11.8      0.000      0.000
REMARK  Name = 
REMARK  6 active torsions:
REMARK  status: ('A' for Active; 'I' for Inactive)
REMARK    1  A    between atoms: C_4  and  C_18
REMARK    2  A    between atoms: C_6  and  C_8
REMARK    3  A    between atoms: C_11  and  C_14
REMARK    4  A    between atoms: C_25  and  C_26
REMARK    5  A    between atoms: C_26  and  N_27
REMARK    6  A    between atoms: C_28  and  C_30
REMARK                            x       y       z     vdW  Elec       q    Type
REMARK                         _______ _______ _______ _____ _____    ______ ____
ROOT
ATOM      1  C   UNL     1      -5.774   3.504  25.814  0.00  0.00    +0.074 C 
ATOM      2  C   UNL     1      -5.049   3.168  25.606  0.00  0.00    +0.139 A 
ATOM      3  N   UNL     1      -4.993   2.356  25.477  0.00  0.00    -0.235 NA
ATOM      4  C   UNL     1      -4.268   2.021  25.269  0.00  0.00    +0.063 A 
ATOM      5  C   UNL     1      -3.600   2.497  25.190  0.00  0.00    +0.034 A 
ATOM      6  C   UNL     1      -3.657   3.310  25.319  0.00  0.00    +0.084 A 
ATOM      7  N   UNL     1      -4.381   3.646  25.527  0.00  0.00    -0.231 NA
ENDROOT
BRANCH   4  18
ATOM     18  C   UNL     1      -4.211   1.207  25.140  0.00  0.00    +0.056 C 
ATOM     19  C   UNL     1      -3.859   0.783  25.689  0.00  0.00    +0.078 C 
ATOM     20  N   UNL     1      -4.184   0.497  24.986  0.00  0.00    -0.272 NA
ATOM     21  C   UNL     1      -4.579   1.320  24.471  0.00  0.00    +0.072 C 
ATOM     22  C   UNL     1      -4.889   1.570  23.953  0.00  0.00    +0.018 C 
ATOM     23  C   UNL     1      -4.528   0.919  24.452  0.00  0.00    +0.010 C 
ATOM     24  C   UNL     1      -4.577   0.107  24.122  0.00  0.00    +0.018 C 
ATOM     25  C   UNL     1      -4.239  -0.345  24.637  0.00  0.00    +0.079 C 
BRANCH  25  26
ATOM     26  C   UNL     1      -4.040  -1.130  24.787  0.00  0.00    +0.131 C 
BRANCH  26  27
ATOM     27  N   UNL     1      -3.297  -1.417  24.573  0.00  0.00    -0.204 NA
ATOM     28  C   UNL     1      -3.073  -2.182  24.786  0.00  0.00    +0.241 C 
ATOM     29  O   UNL     1      -3.592  -2.660  25.214  0.00  0.00    -0.273 OA
BRANCH  28  30
ATOM     30  C   UNL     1      -2.330  -2.468  24.572  0.00  0.00    +0.078 C 
ATOM     31  C   UNL     1      -1.552  -2.287  24.779  0.00  0.00    +0.009 C 
ATOM     32  C   UNL     1      -1.278  -2.874  24.268  0.00  0.00    +0.001 C 
ATOM     33  C   UNL     1      -2.056  -3.056  24.061  0.00  0.00    +0.009 C 
ENDBRANCH  28  30
ENDBRANCH  26  27
ENDBRANCH  25  26
ENDBRANCH   4  18
BRANCH   6   8
ATOM      8  C   UNL     1      -2.989   3.788  25.240  0.00  0.00    +0.018 A 
ATOM      9  C   UNL     1      -2.465   3.873  25.872  0.00  0.00    +0.001 A 
ATOM     10  C   UNL     1      -1.797   4.351  25.794  0.00  0.00    +0.004 A 
ATOM     11  C   UNL     1      -1.653   4.745  25.083  0.00  0.00    +0.071 A 
ATOM     12  C   UNL     1      -2.177   4.660  24.452  0.00  0.00    +0.004 A 
ATOM     13  C   UNL     1      -2.845   4.182  24.530  0.00  0.00    +0.001 A 
BRANCH  11  14
ATOM     14  C   UNL     1      -0.985   5.223  25.005  0.00  0.00    +0.419 C 
ATOM     15  F   UNL     1      -0.318   5.701  24.927  0.00  0.00    -0.166 F 
ATOM     16  F   UNL     1      -0.551   4.573  24.739  0.00  0.00    -0.166 F 
ATOM     17  F   UNL     1      -1.420   5.872  25.270  0.00  0.00    -0.166 F 
ENDBRANCH  11  14
ENDBRANCH   6   8
TORSDOF 6
ENDMDL
MODEL 2
REMARK VINA RESULT:     -11.3      3.786      4.676
REMARK  Name = 
REMARK  6 active torsions:
REMARK  status: ('A' for Active; 'I' for Inactive)
REMARK    1  A    between atoms: C_4  and  C_18
REMARK    2  A    between atoms: C_6  and  C_8
REMARK    3  A    between atoms: C_11  and  C_14
REMARK    4  A    between atoms: C_25  and  C_26
REMARK    5  A    between atoms: C_26  and  N_27
REMARK    6  A    between atoms: C_28  and  C_30
REMARK                            x       y       z     vdW  Elec       q    Type
REMARK                         _______ _______ _______ _____ _____    ______ ____
ROOT
ATOM      1  C   UNL     1      -1.613   4.833  25.209  0.00  0.00    +0.074 C 
ATOM      2  C   UNL     1      -1.842   4.068  24.999  0.00  0.00    +0.139 A 
ATOM      3  N   UNL     1      -1.277   3.527  24.738  0.00  0.00    -0.235 NA
ATOM      4  C   UNL     1      -1.506   2.762  24.529  0.00  0.00    +0.063 A 
ATOM      5  C   UNL     1      -2.298   2.539  24.580  0.00  0.00    +0.034 A 
ATOM      6  C   UNL     1      -2.862   3.081  24.842  0.00  0.00    +0.084 A 
ATOM      7  N   UNL     1      -2.634   3.845  25.051  0.00  0.00    -0.231 NA
ENDROOT
BRANCH   4  18
ATOM     18  C   UNL     1      -0.941   2.219  24.267  0.00  0.00    +0.056 C 
ATOM     19  C   UNL     1      -0.899   2.090  23.501  0.00  0.00    +0.078 C 
ATOM     20  N   UNL     1      -0.431   1.736  24.081  0.00  0.00    -0.272 NA
ATOM     21  C   UNL     1      -0.737   2.124  25.006  0.00  0.00    +0.072 C 
ATOM     22  C   UNL     1      -0.682   2.152  25.656  0.00  0.00    +0.018 C 
ATOM     23  C   UNL     1      -0.477   1.868  24.830  0.00  0.00    +0.010 C 
ATOM     24  C   UNL     1       0.169   1.277  24.775  0.00  0.00    +0.018 C 
ATOM     25  C   UNL     1       0.242   1.121  24.031  0.00  0.00    +0.079 C 
BRANCH  25  26
ATOM     26  C   UNL     1       0.675   0.666  23.497  0.00  0.00    +0.131 C 
BRANCH  26  27
ATOM     27  N   UNL     1       1.491   0.769  23.433  0.00  0.00    -0.204 NA
ATOM     28  C   UNL     1       1.917   0.342  22.870  0.00  0.00    +0.241 C 
ATOM     29  O   UNL     1       1.527  -0.187  22.371  0.00  0.00    -0.273 OA
BRANCH  28  30
ATOM     30  C   UNL     1       2.733   0.445  22.806  0.00  0.00    +0.078 C 
ATOM     31  C   UNL     1       3.383  -0.061  22.772  0.00  0.00    +0.009 C 
ATOM     32  C   UNL     1       3.887   0.591  22.715  0.00  0.00    +0.001 C 
ATOM     33  C   UNL     1       3.236   1.096  22.749  0.00  0.00    +0.009 C 
ENDBRANCH  28  30
ENDBRANCH  26  27
ENDBRANCH  25  26
ENDBRANCH   4  18
BRANCH   6   8
ATOM      8  C   UNL     1      -3.655   2.859  24.894  0.00  0.00    +0.018 A 
ATOM      9  C   UNL     1      -4.048   2.573  24.227  0.00  0.00    +0.001 A 
ATOM     10  C   UNL     1      -4.841   2.351  24.278  0.00  0.00    +0.004 A 
ATOM     11  C   UNL     1      -5.241   2.414  24.997  0.00  0.00    +0.071 A 
ATOM     12  C   UNL     1      -4.848   2.699  25.664  0.00  0.00    +0.004 A 
ATOM     13  C   UNL     1      -4.055   2.922  25.612  0.00  0.00    +0.001 A 
BRANCH  11  14
ATOM     14  C   UNL     1      -6.034   2.192  25.049  0.00  0.00    +0.419 C 
ATOM     15  F   UNL     1      -6.827   1.969  25.099  0.00  0.00    -0.166 F 
ATOM     16  F   UNL     1      -6.219   2.928  25.373  0.00  0.00    -0.166 F 
ATOM     17  F   UNL     1      -5.848   1.456  24.724  0.00  0.00    -0.166 F 
ENDBRANCH  11  14
ENDBRANCH   6   8
TORSDOF 6
ENDMDL
MODEL 3
REMARK VINA RESULT:     -11.0      2.276      3.186
REMARK  Name = 
REMARK  6 active torsions:
REMARK  status: ('A' for Active; 'I' for Inactive)
REMARK    1  A    between atoms: C_4  and  C_18
REMARK    2  A    between atoms: C_6  and  C_8
REMARK    3  A    between atoms: C_11  and  C_14
REMARK    4  A    between atoms: C_25  and  C_26
REMARK    5  A    between atoms: C_26  and  N_27
REMARK    6  A    between atoms: C_28  and  C_30
REMARK                            x       y       z     vdW  Elec       q    Type
REMARK                         _______ _______ _______ _____ _____    ______ ____
ROOT
ATOM      1  C   UNL     1      -0.600   3.924  24.504  0.00  0.00    +0.074 C 
ATOM      2  C   UNL     1      -1.217   3.396  24.650  0.00  0.00    +0.139 A 
ATOM      3  N   UNL     1      -1.074   2.583  24.647  0.00  0.00    -0.235 NA
ATOM      4  C   UNL     1      -1.692   2.056  24.794  0.00  0.00    +0.063 A 
ATOM      5  C   UNL     1      -2.451   2.339  24.943  0.00  0.00    +0.034 A 
ATOM      6  C   UNL     1      -2.594   3.152  24.946  0.00  0.00    +0.084 A 
ATOM      7  N   UNL     1      -1.977   3.680  24.800  0.00  0.00    -0.231 NA
ENDROOT
BRANCH   4  18
ATOM     18  C   UNL     1      -1.548   1.242  24.791  0.00  0.00    +0.056 C 
ATOM     19  C   UNL     1      -1.885   0.823  24.228  0.00  0.00    +0.078 C 
ATOM     20  N   UNL     1      -1.396   0.532  24.825  0.00  0.00    -0.272 NA
ATOM     21  C   UNL     1      -1.110   1.349  25.417  0.00  0.00    +0.072 C 
ATOM     22  C   UNL     1      -0.782   1.595  25.926  0.00  0.00    +0.018 C 
ATOM     23  C   UNL     1      -1.069   0.949  25.374  0.00  0.00    +0.010 C 
ATOM     24  C   UNL     1      -0.792   0.136  25.554  0.00  0.00    +0.018 C 
ATOM     25  C   UNL     1      -1.104  -0.311  25.019  0.00  0.00    +0.079 C 
BRANCH  25  26
ATOM     26  C   UNL     1      -1.149  -1.094  24.765  0.00  0.00    +0.131 C 
BRANCH  26  27
ATOM     27  N   UNL     1      -1.874  -1.487  24.766  0.00  0.00    -0.204 NA
ATOM     28  C   UNL     1      -1.922  -2.264  24.494  0.00  0.00    +0.241 C 
ATOM     29  O   UNL     1      -1.245  -2.648  24.221  0.00  0.00    -0.273 OA
BRANCH  28  30
ATOM     30  C   UNL     1      -2.647  -2.657  24.494  0.00  0.00    +0.078 C 
ATOM     31  C   UNL     1      -3.340  -2.602  24.937  0.00  0.00    +0.009 C 
ATOM     32  C   UNL     1      -3.673  -3.214  24.495  0.00  0.00    +0.001 C 
ATOM     33  C   UNL     1      -2.979  -3.269  24.052  0.00  0.00    +0.009 C 
ENDBRANCH  28  30
ENDBRANCH  26  27
ENDBRANCH  25  26
ENDBRANCH   4  18
BRANCH   6   8
ATOM      8  C   UNL     1      -3.353   3.437  25.095  0.00  0.00    +0.018 A 
ATOM      9  C   UNL     1      -3.554   3.699  25.852  0.00  0.00    +0.001 A 
ATOM     10  C   UNL     1      -4.314   3.985  26.002  0.00  0.00    +0.004 A 
ATOM     11  C   UNL     1      -4.873   4.008  25.395  0.00  0.00    +0.071 A 
ATOM     12  C   UNL     1      -4.672   3.746  24.640  0.00  0.00    +0.004 A 
ATOM     13  C   UNL     1      -3.912   3.460  24.489  0.00  0.00    +0.001 A 
BRANCH  11  14
ATOM     14  C   UNL     1      -5.632   4.293  25.545  0.00  0.00    +0.419 C 
ATOM     15  F   UNL     1      -6.391   4.580  25.695  0.00  0.00    -0.166 F 
ATOM     16  F   UNL     1      -5.874   3.535  25.762  0.00  0.00    -0.166 F 
ATOM     17  F   UNL     1      -5.389   5.051  25.328  0.00  0.00    -0.166 F 
ENDBRANCH  11  14
ENDBRANCH   6   8
TORSDOF 6
ENDMDL
MODEL 4
REMARK VINA RESULT:     -10.8      3.427      4.464
REMARK  Name = 
REMARK  6 active torsions:
REMARK  status: ('A' for Active; 'I' for Inactive)
REMARK    1  A    between atoms: C_4  and  C_18
REMARK    2  A    between atoms: C_6  and  C_8
REMARK    3  A    between atoms: C_11  and  C_14
REMARK    4  A    between atoms: C_25  and  C_26
REMARK    5  A    between atoms: C_26  and  N_27
REMARK    6  A    between atoms: C_28  and  C_30
REMARK                            x       y       z     vdW  Elec       q    Type
REMARK                         _______ _______ _______ _____ _____    ______ ____
ROOT
ATOM      1  C   UNL     1      -3.461  -1.245  25.487  0.00  0.00    +0.074 C 
ATOM      2  C   UNL     1      -3.141  -0.557  25.164  0.00  0.00    +0.139 A 
ATOM      3  N   UNL     1      -2.405  -0.579  24.793  0.00  0.00    -0.235 NA
ATOM      4  C   UNL     1      -2.085   0.110  24.470  0.00  0.00    +0.063 A 
ATOM      5  C   UNL     1      -2.499   0.820  24.519  0.00  0.00    +0.034 A 
ATOM      6  C   UNL     1      -3.235   0.843  24.891  0.00  0.00    +0.084 A 
ATOM      7  N   UNL     1      -3.556   0.155  25.214  0.00  0.00    -0.231 NA
ENDROOT
BRANCH   4  18
ATOM     18  C   UNL     1      -1.347   0.087  24.098  0.00  0.00    +0.056 C 
ATOM     19  C   UNL     1      -1.340   0.108  23.320  0.00  0.00    +0.078 C 
ATOM     20  N   UNL     1      -0.679   0.065  23.813  0.00  0.00    -0.272 NA
ATOM     21  C   UNL     1      -1.029   0.053  24.801  0.00  0.00    +0.072 C 
ATOM     22  C   UNL     1      -0.915   0.031  25.444  0.00  0.00    +0.018 C 
ATOM     23  C   UNL     1      -0.694   0.044  24.575  0.00  0.00    +0.010 C 
ATOM     24  C   UNL     1       0.164   0.011  24.394  0.00  0.00    +0.018 C 
ATOM     25  C   UNL     1       0.215   0.030  23.632  0.00  0.00    +0.079 C 
BRANCH  25  26
ATOM     26  C   UNL     1       0.758   0.022  23.012  0.00  0.00    +0.131 C 
BRANCH  26  27
ATOM     27  N   UNL     1       1.543   0.236  23.148  0.00  0.00    -0.204 NA
ATOM     28  C   UNL     1       2.103   0.149  22.550  0.00  0.00    +0.241 C 
ATOM     29  O   UNL     1       1.879  -0.152  21.815  0.00  0.00    -0.273 OA
BRANCH  28  30
ATOM     30  C   UNL     1       2.888   0.363  22.685  0.00  0.00    +0.078 C 
ATOM     31  C   UNL     1       3.290   1.077  22.780  0.00  0.00    +0.009 C 
ATOM     32  C   UNL     1       3.999   0.666  22.878  0.00  0.00    +0.001 C 
ATOM     33  C   UNL     1       3.597  -0.048  22.783  0.00  0.00    +0.009 C 
ENDBRANCH  28  30
ENDBRANCH  26  27
ENDBRANCH  25  26
ENDBRANCH   4  18
BRANCH   6   8
ATOM      8  C   UNL     1      -3.651   1.553  24.941  0.00  0.00    +0.018 A 
ATOM      9  C   UNL     1      -3.354   2.174  25.396  0.00  0.00    +0.001 A 
ATOM     10  C   UNL     1      -3.769   2.886  25.446  0.00  0.00    +0.004 A 
ATOM     11  C   UNL     1      -4.483   2.975  25.041  0.00  0.00    +0.071 A 
ATOM     12  C   UNL     1      -4.780   2.355  24.586  0.00  0.00    +0.004 A 
ATOM     13  C   UNL     1      -4.364   1.644  24.536  0.00  0.00    +0.001 A 
BRANCH  11  14
ATOM     14  C   UNL     1      -4.898   3.687  25.091  0.00  0.00    +0.419 C 
ATOM     15  F   UNL     1      -5.314   4.397  25.142  0.00  0.00    -0.166 F 
ATOM     16  F   UNL     1      -4.389   4.023  24.535  0.00  0.00    -0.166 F 
ATOM     17  F   UNL     1      -5.407   3.349  25.646  0.00  0.00    -0.166 F 
ENDBRANCH  11  14
ENDBRANCH   6   8
TORSDOF 6
ENDMDL
MODEL 5
REMARK VINA RESULT:     -10.7      3.572      6.429
REMARK  Name = 
REMARK  6 active torsions:
REMARK  status: ('A' for Active; 'I' for Inactive)
REMARK    1  A    between atoms: C_4  and  C_18
REMARK    2  A    between atoms: C_6  and  C_8
REMARK    3  A    between atoms: C_11  and  C_14
REMARK    4  A    between atoms: C_25  and  C_26
REMARK    5  A    between atoms: C_26  and  N_27
REMARK    6  A    between atoms: C_28  and  C_30
REMARK                            x       y       z     vdW  Elec       q    Type
REMARK                         _______ _______ _______ _____ _____    ______ ____
ROOT
ATOM      1  C   UNL     1       0.136  -2.212  25.556  0.00  0.00    +0.074 C 
ATOM      2  C   UNL     1      -0.429  -1.676  25.282  0.00  0.00    +0.139 A 
ATOM      3  N   UNL     1      -0.248  -0.872  25.242  0.00  0.00    -0.235 NA
ATOM      4  C   UNL     1      -0.813  -0.336  24.968  0.00  0.00    +0.063 A 
ATOM      5  C   UNL     1      -1.556  -0.604  24.734  0.00  0.00    +0.034 A 
ATOM      6  C   UNL     1      -1.737  -1.407  24.773  0.00  0.00    +0.084 A 
ATOM      7  N   UNL     1      -1.173  -1.944  25.047  0.00  0.00    -0.231 NA
ENDROOT
BRANCH   4  18
ATOM     18  C   UNL     1      -0.632   0.469  24.928  0.00  0.00    +0.056 C 
ATOM     19  C   UNL     1      -0.835   0.910  25.536  0.00  0.00    +0.078 C 
ATOM     20  N   UNL     1      -0.455   1.170  24.851  0.00  0.00    -0.272 NA
ATOM     21  C   UNL     1      -0.326   0.333  24.232  0.00  0.00    +0.072 C 
ATOM     22  C   UNL     1      -0.113   0.066  23.675  0.00  0.00    +0.018 C 
ATOM     23  C   UNL     1      -0.259   0.731  24.259  0.00  0.00    +0.010 C 
ATOM     24  C   UNL     1       0.018   1.527  24.014  0.00  0.00    +0.018 C 
ATOM     25  C   UNL     1      -0.165   1.994  24.590  0.00  0.00    +0.079 C 
BRANCH  25  26
ATOM     26  C   UNL     1      -0.123   2.781  24.832  0.00  0.00    +0.131 C 
BRANCH  26  27
ATOM     27  N   UNL     1      -0.815   3.205  24.982  0.00  0.00    -0.204 NA
ATOM     28  C   UNL     1      -0.780   4.019  25.109  0.00  0.00    +0.241 C 
ATOM     29  O   UNL     1      -0.054   4.410  25.088  0.00  0.00    -0.273 OA
BRANCH  28  30
ATOM     30  C   UNL     1      -1.472   4.442  25.259  0.00  0.00    +0.078 C 
ATOM     31  C   UNL     1      -2.195   4.272  25.617  0.00  0.00    +0.009 C 
ATOM     32  C   UNL     1      -2.451   5.042  25.470  0.00  0.00    +0.001 C 
ATOM     33  C   UNL     1      -1.728   5.213  25.111  0.00  0.00    +0.009 C 
ENDBRANCH  28  30
ENDBRANCH  26  27
ENDBRANCH  25  26
ENDBRANCH   4  18
BRANCH   6   8
ATOM      8  C   UNL     1      -2.481  -1.676  24.539  0.00  0.00    +0.018 A 
ATOM      9  C   UNL     1      -3.141  -1.189  24.626  0.00  0.00    +0.001 A 
ATOM     10  C   UNL     1      -3.886  -1.457  24.392  0.00  0.00    +0.004 A 
ATOM     11  C   UNL     1      -3.969  -2.213  24.071  0.00  0.00    +0.071 A 
ATOM     12  C   UNL     1      -3.309  -2.699  23.984  0.00  0.00    +0.004 A 
ATOM     13  C   UNL     1      -2.565  -2.431  24.218  0.00  0.00    +0.001 A 
BRANCH  11  14
ATOM     14  C   UNL     1      -4.714  -2.481  23.837  0.00  0.00    +0.419 C 
ATOM     15  F   UNL     1      -5.458  -2.750  23.603  0.00  0.00    -0.166 F 
ATOM     16  F   UNL     1      -4.994  -1.705  23.838  0.00  0.00    -0.166 F 
ATOM     17  F   UNL     1      -4.433  -3.257  23.837  0.00  0.00    -0.166 F 
ENDBRANCH  11  14
ENDBRANCH   6   8
TORSDOF 6
ENDMDL
MODEL 6
REMARK VINA RESULT:     -10.3      2.946      5.483
REMARK  Name = 
REMARK  6 active torsions:
REMARK  status: ('A' for Active; 'I' for Inactive)
REMARK    1  A    between atoms: C_4  and  C_18
REMARK    2  A    between atoms: C_6  and  C_8
REMARK    3  A    between atoms: C_11  and  C_14
REMARK    4  A    between atoms: C_25  and  C_26
REMARK    5  A    between atoms: C_26  and  N_27
REMARK    6  A    between atoms: C_28  and  C_30
REMARK                            x       y       z     vdW  Elec       q    Type
REMARK                         _______ _______ _______ _____ _____    ______ ____
ROOT
ATOM      1  C   UNL     1      -6.778   1.347  24.624  0.00  0.00    +0.074 C 
ATOM      2  C   UNL     1      -5.959   1.304  24.717  0.00  0.00    +0.139 A 
ATOM      3  N   UNL     1      -5.521   1.993  24.830  0.00  0.00    -0.235 NA
ATOM      4  C   UNL     1      -4.702   1.950  24.923  0.00  0.00    +0.063 A 
ATOM      5  C   UNL     1      -4.322   1.219  24.903  0.00  0.00    +0.034 A 
ATOM      6  C   UNL     1      -4.761   0.530  24.790  0.00  0.00    +0.084 A 
ATOM      7  N   UNL     1      -5.579   0.572  24.697  0.00  0.00    -0.231 NA
ENDROOT
BRANCH   4  18
ATOM     18  C   UNL     1      -4.262   2.641  25.036  0.00  0.00    +0.056 C 
ATOM     19  C   UNL     1      -3.702   2.795  24.518  0.00  0.00    +0.078 C 
ATOM     20  N   UNL     1      -3.901   3.256  25.173  0.00  0.00    -0.272 NA
ATOM     21  C   UNL     1      -4.693   2.774  25.663  0.00  0.00    +0.072 C 
ATOM     22  C   UNL     1      -5.127   2.747  26.150  0.00  0.00    +0.018 C 
ATOM     23  C   UNL     1      -4.452   3.098  25.676  0.00  0.00    +0.010 C 
ATOM     24  C   UNL     1      -4.122   3.854  25.977  0.00  0.00    +0.018 C 
ATOM     25  C   UNL     1      -3.563   4.042  25.492  0.00  0.00    +0.079 C 
BRANCH  25  26
ATOM     26  C   UNL     1      -2.991   4.617  25.344  0.00  0.00    +0.131 C 
BRANCH  26  27
ATOM     27  N   UNL     1      -2.231   4.393  25.114  0.00  0.00    -0.204 NA
ATOM     28  C   UNL     1      -1.625   4.953  25.097  0.00  0.00    +0.241 C 
ATOM     29  O   UNL     1      -1.779   5.735  25.308  0.00  0.00    -0.273 OA
BRANCH  28  30
ATOM     30  C   UNL     1      -0.865   4.729  24.867  0.00  0.00    +0.078 C 
ATOM     31  C   UNL     1      -0.326   4.990  24.300  0.00  0.00    +0.009 C 
ATOM     32  C   UNL     1       0.211   4.413  24.543  0.00  0.00    +0.001 C 
ATOM     33  C   UNL     1      -0.328   4.152  25.110  0.00  0.00    +0.009 C 
ENDBRANCH  28  30
ENDBRANCH  26  27
ENDBRANCH  25  26
ENDBRANCH   4  18
BRANCH   6   8
ATOM      8  C   UNL     1      -4.381  -0.203  24.770  0.00  0.00    +0.018 A 
ATOM      9  C   UNL     1      -4.358  -0.636  24.068  0.00  0.00    +0.001 A 
ATOM     10  C   UNL     1      -3.979  -1.369  24.047  0.00  0.00    +0.004 A 
ATOM     11  C   UNL     1      -3.623  -1.668  24.730  0.00  0.00    +0.071 A 
ATOM     12  C   UNL     1      -3.647  -1.235  25.431  0.00  0.00    +0.004 A 
ATOM     13  C   UNL     1      -4.026  -0.502  25.451  0.00  0.00    +0.001 A 
BRANCH  11  14
ATOM     14  C   UNL     1      -3.244  -2.401  24.709  0.00  0.00    +0.419 C 
ATOM     15  F   UNL     1      -2.866  -3.134  24.688  0.00  0.00    -0.166 F 
ATOM     16  F   UNL     1      -2.584  -2.049  24.361  0.00  0.00    -0.166 F 
ATOM     17  F   UNL     1      -3.905  -2.751  25.056  0.00  0.00    -0.166 F 
ENDBRANCH  11  14
ENDBRANCH   6   8
TORSDOF 6
ENDMDL
MODEL 7
REMARK VINA RESULT:     -10.0      4.089      5.995
REMARK  Name = 
REMARK  6 active torsions:
REMARK  status: ('A' for Active; 'I' for Inactive)
REMARK    1  A    between atoms: C_4  and  C_18
REMARK    2  A    between atoms: C_6  and  C_8
REMARK    3  A    between atoms: C_11  and  C_14
REMARK    4  A    between atoms: C_25  and  C_26
REMARK    5  A    between atoms: C_26  and  N_27
REMARK    6  A    between atoms: C_28  and  C_30
REMARK                            x       y       z     vdW  Elec       q    Type
REMARK                         _______ _______ _______ _____ _____    ______ ____
ROOT
ATOM      1  C   UNL     1      -2.235   1.986  22.879  0.00  0.00    +0.074 C 
ATOM      2  C   UNL     1      -2.049   1.563  23.562  0.00  0.00    +0.139 A 
ATOM      3  N   UNL     1      -1.522   1.880  24.112  0.00  0.00    -0.235 NA
ATOM      4  C   UNL     1      -1.335   1.457  24.796  0.00  0.00    +0.063 A 
ATOM      5  C   UNL     1      -1.675   0.718  24.930  0.00  0.00    +0.034 A 
ATOM      6  C   UNL     1      -2.202   0.401  24.380  0.00  0.00    +0.084 A 
ATOM      7  N   UNL     1      -2.389   0.823  23.696  0.00  0.00    -0.231 NA
ENDROOT
BRANCH   4  18
ATOM     18  C   UNL     1      -0.807   1.774  25.346  0.00  0.00    +0.056 C 
ATOM     19  C   UNL     1      -0.094   1.464  25.375  0.00  0.00    +0.078 C 
ATOM     20  N   UNL     1      -0.376   2.083  25.843  0.00  0.00    -0.272 NA
ATOM     21  C   UNL     1      -1.369   2.260  25.557  0.00  0.00    +0.072 C 
ATOM     22  C   UNL     1      -1.928   2.593  25.620  0.00  0.00    +0.018 C 
ATOM     23  C   UNL     1      -1.077   2.382  25.809  0.00  0.00    +0.010 C 
ATOM     24  C   UNL     1      -0.694   2.853  26.442  0.00  0.00    +0.018 C 
ATOM     25  C   UNL     1       0.016   2.578  26.503  0.00  0.00    +0.079 C 
BRANCH  25  26
ATOM     26  C   UNL     1       0.721   2.672  26.919  0.00  0.00    +0.131 C 
BRANCH  26  27
ATOM     27  N   UNL     1       0.749   2.506  27.727  0.00  0.00    -0.204 NA
ATOM     28  C   UNL     1       1.428   2.682  28.160  0.00  0.00    +0.241 C 
ATOM     29  O   UNL     1       2.079   3.025  27.786  0.00  0.00    -0.273 OA
BRANCH  28  30
ATOM     30  C   UNL     1       1.457   2.516  28.968  0.00  0.00    +0.078 C 
ATOM     31  C   UNL     1       0.910   2.527  29.585  0.00  0.00    +0.009 C 
ATOM     32  C   UNL     1       1.497   2.281  30.110  0.00  0.00    +0.001 C 
ATOM     33  C   UNL     1       2.044   2.271  29.493  0.00  0.00    +0.009 C 
ENDBRANCH  28  30
ENDBRANCH  26  27
ENDBRANCH  25  26
ENDBRANCH   4  18
BRANCH   6   8
ATOM      8  C   UNL     1      -2.543  -0.338  24.513  0.00  0.00    +0.018 A 
ATOM      9  C   UNL     1      -2.083  -1.021  24.453  0.00  0.00    +0.001 A 
ATOM     10  C   UNL     1      -2.423  -1.761  24.586  0.00  0.00    +0.004 A 
ATOM     11  C   UNL     1      -3.223  -1.818  24.779  0.00  0.00    +0.071 A 
ATOM     12  C   UNL     1      -3.682  -1.136  24.839  0.00  0.00    +0.004 A 
ATOM     13  C   UNL     1      -3.342  -0.396  24.706  0.00  0.00    +0.001 A 
BRANCH  11  14
ATOM     14  C   UNL     1      -3.563  -2.558  24.912  0.00  0.00    +0.419 C 
ATOM     15  F   UNL     1      -3.903  -3.298  25.046  0.00  0.00    -0.166 F 
ATOM     16  F   UNL     1      -3.556  -2.707  24.100  0.00  0.00    -0.166 F 
ATOM     17  F   UNL     1      -3.570  -2.408  25.723  0.00  0.00    -0.166 F 
ENDBRANCH  11  14
ENDBRANCH   6   8
TORSDOF 6
ENDMDL
MODEL 8
REMARK VINA RESULT:      -9.8      4.696      6.053
REMARK  Name = 
REMARK  6 active torsions:
REMARK  status: ('A' for Active; 'I' for Inactive)
REMARK    1  A    between atoms: C_4  and  C_18
REMARK    2  A    between atoms: C_6  and  C_8
REMARK    3  A    between atoms: C_11  and  C_14
REMARK    4  A    between atoms: C_25  and  C_26
REMARK    5  A    between atoms: C_26  and  N_27
REMARK    6  A    between atoms: C_28  and  C_30
REMARK                            x       y       z     vdW  Elec       q    Type
REMARK                         _______ _______ _______ _____ _____    ______ ____
ROOT
ATOM      1  C   UNL     1      -2.681   2.237  24.866  0.00  0.00    +0.074 C 
ATOM      2  C   UNL     1      -2.295   1.542  24.644  0.00  0.00    +0.139 A 
ATOM      3  N   UNL     1      -1.522   1.573  24.358  0.00  0.00    -0.235 NA
ATOM      4  C   UNL     1      -1.136   0.878  24.136  0.00  0.00    +0.063 A 
ATOM      5  C   UNL     1      -1.523   0.153  24.201  0.00  0.00    +0.034 A 
ATOM      6  C   UNL     1      -2.296   0.122  24.488  0.00  0.00    +0.084 A 
ATOM      7  N   UNL     1      -2.682   0.816  24.709  0.00  0.00    -0.231 NA
ENDROOT
BRANCH   4  18
ATOM     18  C   UNL     1      -0.362   0.909  23.849  0.00  0.00    +0.056 C 
ATOM     19  C   UNL     1      -0.237   0.630  23.134  0.00  0.00    +0.078 C 
ATOM     20  N   UNL     1       0.331   0.956  23.637  0.00  0.00    -0.272 NA
ATOM     21  C   UNL     1      -0.161   1.234  24.520  0.00  0.00    +0.072 C 
ATOM     22  C   UNL     1      -0.148   1.491  25.121  0.00  0.00    +0.018 C 
ATOM     23  C   UNL     1       0.200   1.227  24.337  0.00  0.00    +0.010 C 
ATOM     24  C   UNL     1       1.062   1.354  24.236  0.00  0.00    +0.018 C 
ATOM     25  C   UNL     1       1.228   1.091  23.539  0.00  0.00    +0.079 C 
BRANCH  25  26
ATOM     26  C   UNL     1       1.852   0.989  23.009  0.00  0.00    +0.131 C 
BRANCH  26  27
ATOM     27  N   UNL     1       2.615   0.856  23.291  0.00  0.00    -0.204 NA
ATOM     28  C   UNL     1       3.211   0.620  22.771  0.00  0.00    +0.241 C 
ATOM     29  O   UNL     1       3.043   0.519  21.969  0.00  0.00    -0.273 OA
BRANCH  28  30
ATOM     30  C   UNL     1       3.975   0.487  23.052  0.00  0.00    +0.078 C 
ATOM     31  C   UNL     1       4.355  -0.138  23.433  0.00  0.00    +0.009 C 
ATOM     32  C   UNL     1       5.055   0.298  23.450  0.00  0.00    +0.001 C 
ATOM     33  C   UNL     1       4.675   0.923  23.070  0.00  0.00    +0.009 C 
ENDBRANCH  28  30
ENDBRANCH  26  27
ENDBRANCH  25  26
ENDBRANCH   4  18
BRANCH   6   8
ATOM      8  C   UNL     1      -2.683  -0.604  24.553  0.00  0.00    +0.018 A 
ATOM      9  C   UNL     1      -3.264  -0.811  24.005  0.00  0.00    +0.001 A 
ATOM     10  C   UNL     1      -3.652  -1.537  24.070  0.00  0.00    +0.004 A 
ATOM     11  C   UNL     1      -3.459  -2.054  24.683  0.00  0.00    +0.071 A 
ATOM     12  C   UNL     1      -2.879  -1.846  25.231  0.00  0.00    +0.004 A 
ATOM     13  C   UNL     1      -2.491  -1.121  25.166  0.00  0.00    +0.001 A 
BRANCH  11  14
ATOM     14  C   UNL     1      -3.847  -2.779  24.748  0.00  0.00    +0.419 C 
ATOM     15  F   UNL     1      -4.236  -3.505  24.812  0.00  0.00    -0.166 F 
ATOM     16  F   UNL     1      -3.478  -2.912  25.474  0.00  0.00    -0.166 F 
ATOM     17  F   UNL     1      -4.216  -2.646  24.022  0.00  0.00    -0.166 F 
ENDBRANCH  11  14
ENDBRANCH   6   8
TORSDOF 6
ENDMDL
