REMARK  Name = 
REMARK  6 active torsions:
REMARK  status: ('A' for Active; 'I' for Inactive)
REMARK    1  A    between atoms: C_2  and  C_10
REMARK    2  A    between atoms: N_3  and  C_4
REMARK    3  A    between atoms: C_17  and  C_18
REMARK    4  A    between atoms: C_18  and  N_19
REMARK    5  A    between atoms: C_21  and  C_24
REMARK    6  A    between atoms: C_27  and  C_30
REMARK                            x       y       z     vdW  Elec       q    Type
REMARK                         _______ _______ _______ _____ _____    ______ ____
ROOT
ATOM     18  C   UNL     1      -0.179  -2.836   0.000  0.00  0.00    +0.145 C 
ENDROOT
BRANCH  18  17
ATOM     10  C   UNL     1       1.661  -1.343   0.000  0.00  0.00    +0.095 C 
ATOM     11  C   UNL     1       1.814  -2.106   0.000  0.00  0.00    +0.081 C 
ATOM     12  N   UNL     1       1.065  -1.759   0.000  0.00  0.00    -0.272 NA
ATOM     13  C   UNL     1       1.205  -0.720   0.000  0.00  0.00    +0.072 C 
ATOM     14  C   UNL     1       0.961  -0.114   0.000  0.00  0.00    +0.018 C 
ATOM     15  C   UNL     1       0.923  -1.010   0.000  0.00  0.00    +0.013 C 
ATOM     16  C   UNL     1       0.119  -1.362   0.000  0.00  0.00    +0.019 C 
ATOM     17  C   UNL     1       0.226  -2.118   0.000  0.00  0.00    +0.082 C 
BRANCH  10   2
ATOM      1  O   UNL     1       3.075  -1.130   0.000  0.00  0.00    -0.273 OA
ATOM      2  C   UNL     1       2.307  -0.828   0.000  0.00  0.00    +0.246 C 
ATOM      3  N   UNL     1       2.184  -0.013   0.000  0.00  0.00    -0.179 NA
BRANCH   3   4
ATOM      4  C   UNL     1       2.829   0.501   0.000  0.00  0.00    +0.073 A 
ATOM      5  C   UNL     1       2.707   1.317   0.000  0.00  0.00    +0.017 A 
ATOM      6  C   UNL     1       3.352   1.831   0.000  0.00  0.00    +0.001 A 
ATOM      7  C   UNL     1       4.120   1.530   0.000  0.00  0.00    +0.000 A 
ATOM      8  C   UNL     1       4.242   0.714   0.000  0.00  0.00    +0.001 A 
ATOM      9  C   UNL     1       3.597   0.200   0.000  0.00  0.00    +0.017 A 
ENDBRANCH   3   4
ENDBRANCH  10   2
ENDBRANCH  18  17
BRANCH  18  19
ATOM     19  N   UNL     1      -1.004  -2.845   0.000  0.00  0.00    -0.229 N 
ATOM     20  C   UNL     1      -1.481  -3.518   0.000  0.00  0.00    +0.118 A 
ATOM     21  C   UNL     1      -2.269  -3.271   0.000  0.00  0.00    +0.123 A 
ATOM     22  N   UNL     1      -2.277  -2.446   0.000  0.00  0.00    -0.129 NA
ATOM     23  N   UNL     1      -1.496  -2.183   0.000  0.00  0.00    -0.064 NA
BRANCH  21  24
ATOM     24  C   UNL     1      -2.931  -3.763   0.000  0.00  0.00    +0.021 A 
ATOM     25  C   UNL     1      -2.836  -4.583   0.000  0.00  0.00    +0.002 A 
ATOM     26  C   UNL     1      -3.498  -5.075   0.000  0.00  0.00    +0.000 A 
ATOM     27  C   UNL     1      -4.255  -4.747   0.000  0.00  0.00    +0.000 A 
ATOM     28  C   UNL     1      -4.350  -3.928   0.000  0.00  0.00    +0.000 A 
ATOM     29  C   UNL     1      -3.688  -3.436   0.000  0.00  0.00    +0.002 A 
BRANCH  27  30
ATOM     30  C   UNL     1      -4.917  -5.239   0.000  0.00  0.00    +0.000 A 
ATOM     31  C   UNL     1      -4.822  -6.059   0.000  0.00  0.00    +0.000 A 
ATOM     32  C   UNL     1      -5.485  -6.551   0.000  0.00  0.00    +0.000 A 
ATOM     33  C   UNL     1      -6.242  -6.224   0.000  0.00  0.00    +0.000 A 
ATOM     34  C   UNL     1      -6.337  -5.404   0.000  0.00  0.00    +0.000 A 
ATOM     35  C   UNL     1      -5.675  -4.912   0.000  0.00  0.00    +0.000 A 
ENDBRANCH  27  30
ENDBRANCH  21  24
ENDBRANCH  18  19
TORSDOF 6
