REMARK  Name = 
REMARK  8 active torsions:
REMARK  status: ('A' for Active; 'I' for Inactive)
REMARK    1  A    between atoms: C_2  and  C_4
REMARK    2  A    between atoms: C_4  and  N_5
REMARK    3  A    between atoms: C_6  and  C_7
REMARK    4  A    between atoms: C_9  and  C_14
REMARK    5  A    between atoms: C_17  and  N_18
REMARK    6  A    between atoms: N_18  and  S_19
REMARK    7  A    between atoms: S_19  and  C_22
REMARK    8  A    between atoms: C_22  and  C_23
REMARK                            x       y       z     vdW  Elec       q    Type
REMARK                         _______ _______ _______ _____ _____    ______ ____
ROOT
ATOM     14  C   UNL     1       2.143  -2.888   0.000  0.00  0.00    +0.006 A 
ATOM     15  C   UNL     1       2.858  -2.475   0.000  0.00  0.00    -0.001 A 
ATOM     16  C   UNL     1       3.572  -2.888   0.000  0.00  0.00    +0.018 A 
ATOM     17  C   UNL     1       3.572  -3.712   0.000  0.00  0.00    +0.091 A 
ATOM     26  C   UNL     1       2.858  -4.125   0.000  0.00  0.00    +0.018 A 
ATOM     27  C   UNL     1       2.143  -3.712   0.000  0.00  0.00    -0.001 A 
ENDROOT
BRANCH  14   9
ATOM      5  N   UNL     1       0.715  -1.238   0.000  0.00  0.00    -0.274 N 
ATOM      6  C   UNL     1       1.429  -1.650   0.000  0.00  0.00    +0.140 C 
ATOM      9  C   UNL     1       1.429  -2.475   0.000  0.00  0.00    +0.159 C 
ATOM     10  O   UNL     1       0.715  -2.888   0.000  0.00  0.00    -0.341 OA
ATOM     11  C   UNL     1       0.000  -2.475   0.000  0.00  0.00    +0.227 C 
ATOM     12  C   UNL     1       0.000  -1.650   0.000  0.00  0.00    +0.256 C 
ATOM     13  O   UNL     1      -0.715  -1.238   0.000  0.00  0.00    -0.272 OA
BRANCH   6   7
ATOM      7  C   UNL     1       2.143  -1.238   0.000  0.00  0.00    +0.205 C 
ATOM      8  O   UNL     1       2.858  -1.650   0.000  0.00  0.00    -0.218 OA
ENDBRANCH   6   7
BRANCH   5   4
ATOM      4  C   UNL     1       0.715  -0.412   0.000  0.00  0.00    +0.094 C 
BRANCH   4   2
ATOM      1  C   UNL     1       0.000   0.825   0.000  0.00  0.00    +0.002 C 
ATOM      2  C   UNL     1       0.000   0.000   0.000  0.00  0.00    +0.020 C 
ATOM      3  C   UNL     1      -0.715  -0.412   0.000  0.00  0.00    +0.002 C 
ENDBRANCH   4   2
ENDBRANCH   5   4
ENDBRANCH  14   9
BRANCH  17  18
ATOM     18  N   UNL     1       4.287  -4.125   0.000  0.00  0.00    -0.101 NA
BRANCH  18  19
ATOM     19  S   UNL     1       5.001  -3.712   0.000  0.00  0.00    +0.073 S 
ATOM     20  O   UNL     1       5.414  -4.427   0.000  0.00  0.00    -0.153 OA
ATOM     21  O   UNL     1       4.589  -2.998   0.000  0.00  0.00    -0.153 OA
BRANCH  19  22
ATOM     22  C   UNL     1       5.716  -3.300   0.000  0.00  0.00    +0.174 C 
BRANCH  22  23
ATOM     23  C   UNL     1       6.430  -3.712   0.000  0.00  0.00    +0.026 C 
ATOM     24  C   UNL     1       7.145  -3.300   0.000  0.00  0.00    +0.002 C 
ATOM     25  C   UNL     1       6.430  -4.537   0.000  0.00  0.00    +0.002 C 
ENDBRANCH  22  23
ENDBRANCH  19  22
ENDBRANCH  18  19
ENDBRANCH  17  18
TORSDOF 8
