MODEL 1
REMARK VINA RESULT:     -13.5      0.000      0.000
REMARK  Name = 
REMARK  4 active torsions:
REMARK  status: ('A' for Active; 'I' for Inactive)
REMARK    1  A    between atoms: C_5  and  C_8
REMARK    2  A    between atoms: C_11  and  C_13
REMARK    3  A    between atoms: N_16  and  C_17
REMARK    4  A    between atoms: C_17  and  C_18
REMARK                            x       y       z     vdW  Elec       q    Type
REMARK                         _______ _______ _______ _____ _____    ______ ____
ROOT
ATOM     13  C   UNL     1      -4.569   2.254  25.200  0.00  0.00    +0.096 C 
ATOM     14  C   UNL     1      -5.009   2.901  24.936  0.00  0.00    +0.028 C 
ATOM     15  C   UNL     1      -4.666   3.584  25.247  0.00  0.00    +0.073 C 
ATOM     16  N   UNL     1      -4.016   3.361  25.702  0.00  0.00    -0.266 NA
ATOM     27  C   UNL     1      -3.956   2.538  25.673  0.00  0.00    +0.082 C 
ENDROOT
BRANCH  13  11
ATOM      8  C   UNL     1      -4.551   0.153  24.821  0.00  0.00    +0.250 A 
ATOM      9  N   UNL     1      -5.342   0.336  24.672  0.00  0.00    -0.107 NA
ATOM     10  N   UNL     1      -5.445   1.144  24.795  0.00  0.00    -0.111 NA
ATOM     11  C   UNL     1      -4.718   1.462  25.021  0.00  0.00    +0.227 A 
ATOM     12  O   UNL     1      -4.166   0.850  25.037  0.00  0.00    -0.419 OA
BRANCH   8   5
ATOM      1  C   UNL     1      -3.172  -2.836  24.595  0.00  0.00    +0.031 C 
ATOM      2  C   UNL     1      -3.517  -2.088  24.652  0.00  0.00    -0.022 A 
ATOM      3  C   UNL     1      -3.932  -1.777  24.011  0.00  0.00    -0.004 A 
ATOM      4  C   UNL     1      -4.277  -1.029  24.067  0.00  0.00    +0.004 A 
ATOM      5  C   UNL     1      -4.206  -0.594  24.765  0.00  0.00    +0.055 A 
ATOM      6  C   UNL     1      -3.791  -0.906  25.405  0.00  0.00    +0.004 A 
ATOM      7  C   UNL     1      -3.446  -1.654  25.349  0.00  0.00    -0.004 A 
ENDBRANCH   8   5
ENDBRANCH  13  11
BRANCH  16  17
ATOM     17  C   UNL     1      -3.513   3.869  26.114  0.00  0.00    +0.138 C 
BRANCH  17  18
ATOM     18  C   UNL     1      -2.775   4.062  25.801  0.00  0.00    +0.139 A 
ATOM     19  C   UNL     1      -2.548   4.801  25.513  0.00  0.00    +0.037 A 
ATOM     20  C   UNL     1      -1.767   4.745  25.256  0.00  0.00    +0.037 A 
ATOM     21  C   UNL     1      -1.510   3.972  25.385  0.00  0.00    +0.145 A 
ATOM     22  O   UNL     1      -2.132   3.549  25.722  0.00  0.00    -0.456 OA
ATOM     23  C   UNL     1      -0.741   3.753  25.178  0.00  0.00    +0.037 A 
ATOM     24  C   UNL     1      -0.230   4.307  24.844  0.00  0.00    +0.003 A 
ATOM     25  C   UNL     1      -0.487   5.080  24.715  0.00  0.00    +0.000 A 
ATOM     26  C   UNL     1      -1.255   5.300  24.921  0.00  0.00    +0.003 A 
ENDBRANCH  17  18
ENDBRANCH  16  17
TORSDOF 4
ENDMDL
MODEL 2
REMARK VINA RESULT:     -13.3      2.148      6.157
REMARK  Name = 
REMARK  4 active torsions:
REMARK  status: ('A' for Active; 'I' for Inactive)
REMARK    1  A    between atoms: C_5  and  C_8
REMARK    2  A    between atoms: C_11  and  C_13
REMARK    3  A    between atoms: N_16  and  C_17
REMARK    4  A    between atoms: C_17  and  C_18
REMARK                            x       y       z     vdW  Elec       q    Type
REMARK                         _______ _______ _______ _____ _____    ______ ____
ROOT
ATOM     13  C   UNL     1      -0.619   0.733  25.142  0.00  0.00    +0.096 C 
ATOM     14  C   UNL     1      -0.280   0.389  24.473  0.00  0.00    +0.028 C 
ATOM     15  C   UNL     1      -0.502  -0.406  24.457  0.00  0.00    +0.073 C 
ATOM     16  N   UNL     1      -0.977  -0.552  25.115  0.00  0.00    -0.266 NA
ATOM     27  C   UNL     1      -1.049   0.152  25.538  0.00  0.00    +0.082 C 
ENDROOT
BRANCH  13  11
ATOM      8  C   UNL     1      -0.730   2.839  25.477  0.00  0.00    +0.250 A 
ATOM      9  N   UNL     1      -0.108   2.630  25.979  0.00  0.00    -0.107 NA
ATOM     10  N   UNL     1       0.009   1.817  25.914  0.00  0.00    -0.111 NA
ATOM     11  C   UNL     1      -0.540   1.522  25.373  0.00  0.00    +0.227 A 
ATOM     12  O   UNL     1      -0.996   2.153  25.103  0.00  0.00    -0.419 OA
BRANCH   8   5
ATOM      1  C   UNL     1      -1.936   5.879  25.046  0.00  0.00    +0.031 C 
ATOM      2  C   UNL     1      -1.635   5.119  25.154  0.00  0.00    -0.022 A 
ATOM      3  C   UNL     1      -2.079   4.553  25.556  0.00  0.00    -0.004 A 
ATOM      4  C   UNL     1      -1.778   3.792  25.664  0.00  0.00    +0.004 A 
ATOM      5  C   UNL     1      -1.031   3.599  25.370  0.00  0.00    +0.055 A 
ATOM      6  C   UNL     1      -0.587   4.166  24.967  0.00  0.00    +0.004 A 
ATOM      7  C   UNL     1      -0.889   4.926  24.860  0.00  0.00    -0.004 A 
ENDBRANCH   8   5
ENDBRANCH  13  11
BRANCH  16  17
ATOM     17  C   UNL     1      -1.320  -1.275  25.315  0.00  0.00    +0.138 C 
BRANCH  17  18
ATOM     18  C   UNL     1      -2.038  -1.500  24.976  0.00  0.00    +0.139 A 
ATOM     19  C   UNL     1      -2.246  -2.262  24.741  0.00  0.00    +0.037 A 
ATOM     20  C   UNL     1      -3.010  -2.235  24.433  0.00  0.00    +0.037 A 
ATOM     21  C   UNL     1      -3.275  -1.454  24.478  0.00  0.00    +0.145 A 
ATOM     22  O   UNL     1      -2.674  -1.000  24.813  0.00  0.00    -0.456 OA
ATOM     23  C   UNL     1      -4.029  -1.259  24.206  0.00  0.00    +0.037 A 
ATOM     24  C   UNL     1      -4.518  -1.843  23.891  0.00  0.00    +0.003 A 
ATOM     25  C   UNL     1      -4.254  -2.623  23.846  0.00  0.00    +0.000 A 
ATOM     26  C   UNL     1      -3.500  -2.820  24.117  0.00  0.00    +0.003 A 
ENDBRANCH  17  18
ENDBRANCH  16  17
TORSDOF 4
ENDMDL
MODEL 3
REMARK VINA RESULT:     -13.1      2.144      2.984
REMARK  Name = 
REMARK  4 active torsions:
REMARK  status: ('A' for Active; 'I' for Inactive)
REMARK    1  A    between atoms: C_5  and  C_8
REMARK    2  A    between atoms: C_11  and  C_13
REMARK    3  A    between atoms: N_16  and  C_17
REMARK    4  A    between atoms: C_17  and  C_18
REMARK                            x       y       z     vdW  Elec       q    Type
REMARK                         _______ _______ _______ _____ _____    ______ ____
ROOT
ATOM     13  C   UNL     1      -0.662   0.442  24.916  0.00  0.00    +0.096 C 
ATOM     14  C   UNL     1      -0.167   0.739  24.326  0.00  0.00    +0.028 C 
ATOM     15  C   UNL     1       0.109   1.476  24.574  0.00  0.00    +0.073 C 
ATOM     16  N   UNL     1      -0.214   1.634  25.316  0.00  0.00    -0.266 NA
ATOM     27  C   UNL     1      -0.691   0.994  25.528  0.00  0.00    +0.082 C 
ENDROOT
BRANCH  13  11
ATOM      8  C   UNL     1      -1.991  -1.213  24.690  0.00  0.00    +0.250 A 
ATOM      9  N   UNL     1      -1.340  -1.578  25.043  0.00  0.00    -0.107 NA
ATOM     10  N   UNL     1      -0.764  -1.003  25.171  0.00  0.00    -0.111 NA
ATOM     11  C   UNL     1      -1.057  -0.283  24.897  0.00  0.00    +0.227 A 
ATOM     12  O   UNL     1      -1.815  -0.412  24.599  0.00  0.00    -0.419 OA
BRANCH   8   5
ATOM      1  C   UNL     1      -4.799  -2.697  23.795  0.00  0.00    +0.031 C 
ATOM      2  C   UNL     1      -4.097  -2.326  24.019  0.00  0.00    -0.022 A 
ATOM      3  C   UNL     1      -3.463  -2.776  24.294  0.00  0.00    -0.004 A 
ATOM      4  C   UNL     1      -2.761  -2.405  24.518  0.00  0.00    +0.004 A 
ATOM      5  C   UNL     1      -2.693  -1.584  24.466  0.00  0.00    +0.055 A 
ATOM      6  C   UNL     1      -3.328  -1.135  24.191  0.00  0.00    +0.004 A 
ATOM      7  C   UNL     1      -4.030  -1.506  23.967  0.00  0.00    -0.004 A 
ENDBRANCH   8   5
ENDBRANCH  13  11
BRANCH  16  17
ATOM     17  C   UNL     1      -0.085   2.312  25.769  0.00  0.00    +0.138 C 
BRANCH  17  18
ATOM     18  C   UNL     1      -0.545   2.985  25.644  0.00  0.00    +0.139 A 
ATOM     19  C   UNL     1      -0.309   3.667  25.244  0.00  0.00    +0.037 A 
ATOM     20  C   UNL     1      -0.939   4.198  25.251  0.00  0.00    +0.037 A 
ATOM     21  C   UNL     1      -1.566   3.845  25.655  0.00  0.00    +0.145 A 
ATOM     22  O   UNL     1      -1.323   3.095  25.898  0.00  0.00    -0.456 OA
ATOM     23  C   UNL     1      -2.277   4.252  25.748  0.00  0.00    +0.037 A 
ATOM     24  C   UNL     1      -2.362   5.011  25.439  0.00  0.00    +0.003 A 
ATOM     25  C   UNL     1      -1.736   5.365  25.035  0.00  0.00    +0.000 A 
ATOM     26  C   UNL     1      -1.024   4.958  24.941  0.00  0.00    +0.003 A 
ENDBRANCH  17  18
ENDBRANCH  16  17
TORSDOF 4
ENDMDL
MODEL 4
REMARK VINA RESULT:     -12.4      0.870      5.454
REMARK  Name = 
REMARK  4 active torsions:
REMARK  status: ('A' for Active; 'I' for Inactive)
REMARK    1  A    between atoms: C_5  and  C_8
REMARK    2  A    between atoms: C_11  and  C_13
REMARK    3  A    between atoms: N_16  and  C_17
REMARK    4  A    between atoms: C_17  and  C_18
REMARK                            x       y       z     vdW  Elec       q    Type
REMARK                         _______ _______ _______ _____ _____    ______ ____
ROOT
ATOM     13  C   UNL     1      -4.222   1.808  25.021  0.00  0.00    +0.096 C 
ATOM     14  C   UNL     1      -4.882   1.470  25.383  0.00  0.00    +0.028 C 
ATOM     15  C   UNL     1      -5.043   0.756  25.001  0.00  0.00    +0.073 C 
ATOM     16  N   UNL     1      -4.484   0.654  24.403  0.00  0.00    -0.266 NA
ATOM     27  C   UNL     1      -3.976   1.304  24.416  0.00  0.00    +0.082 C 
ENDROOT
BRANCH  13  11
ATOM      8  C   UNL     1      -3.003   3.536  25.312  0.00  0.00    +0.250 A 
ATOM      9  N   UNL     1      -3.655   3.720  25.783  0.00  0.00    -0.107 NA
ATOM     10  N   UNL     1      -4.191   3.096  25.731  0.00  0.00    -0.111 NA
ATOM     11  C   UNL     1      -3.870   2.525  25.229  0.00  0.00    +0.227 A 
ATOM     12  O   UNL     1      -3.136   2.797  24.970  0.00  0.00    -0.419 OA
BRANCH   8   5
ATOM      1  C   UNL     1      -0.330   5.422  24.878  0.00  0.00    +0.031 C 
ATOM      2  C   UNL     1      -0.998   4.951  24.986  0.00  0.00    -0.022 A 
ATOM      3  C   UNL     1      -1.741   5.301  25.068  0.00  0.00    -0.004 A 
ATOM      4  C   UNL     1      -2.409   4.829  25.177  0.00  0.00    +0.004 A 
ATOM      5  C   UNL     1      -2.335   4.008  25.204  0.00  0.00    +0.055 A 
ATOM      6  C   UNL     1      -1.592   3.659  25.122  0.00  0.00    +0.004 A 
ATOM      7  C   UNL     1      -0.924   4.130  25.013  0.00  0.00    -0.004 A 
ENDBRANCH   8   5
ENDBRANCH  13  11
BRANCH  16  17
ATOM     17  C   UNL     1      -4.439   0.014  23.884  0.00  0.00    +0.138 C 
BRANCH  17  18
ATOM     18  C   UNL     1      -3.995  -0.651  24.086  0.00  0.00    +0.139 A 
ATOM     19  C   UNL     1      -4.288  -1.414  24.199  0.00  0.00    +0.037 A 
ATOM     20  C   UNL     1      -3.654  -1.904  24.393  0.00  0.00    +0.037 A 
ATOM     21  C   UNL     1      -2.969  -1.444  24.400  0.00  0.00    +0.145 A 
ATOM     22  O   UNL     1      -3.179  -0.670  24.211  0.00  0.00    -0.456 OA
ATOM     23  C   UNL     1      -2.242  -1.792  24.579  0.00  0.00    +0.037 A 
ATOM     24  C   UNL     1      -2.200  -2.597  24.750  0.00  0.00    +0.003 A 
ATOM     25  C   UNL     1      -2.885  -3.057  24.742  0.00  0.00    +0.000 A 
ATOM     26  C   UNL     1      -3.612  -2.711  24.564  0.00  0.00    +0.003 A 
ENDBRANCH  17  18
ENDBRANCH  16  17
TORSDOF 4
ENDMDL
