REMARK  Name = 
REMARK  2 active torsions:
REMARK  status: ('A' for Active; 'I' for Inactive)
REMARK    1  A    between atoms: C_4  and  N_5
REMARK    2  A    between atoms: C_17  and  C_22
REMARK                            x       y       z     vdW  Elec       q    Type
REMARK                         _______ _______ _______ _____ _____    ______ ____
ROOT
ATOM      5  N   UNL     1      -0.408  -2.193   0.000  0.00  0.00    -0.162 NA
ATOM      6  C   UNL     1       0.291  -2.789   0.000  0.00  0.00    +0.327 C 
ATOM      7  O   UNL     1       0.563  -3.599   0.000  0.00  0.00    -0.250 OA
ATOM      8  N   UNL     1       0.813  -2.091   0.000  0.00  0.00    -0.262 N 
ATOM      9  C   UNL     1       1.629  -1.912   0.000  0.00  0.00    +0.097 C 
ATOM     10  C   UNL     1       1.582  -0.925   0.000  0.00  0.00    +0.043 C 
ATOM     11  C   UNL     1       1.713  -0.121   0.000  0.00  0.00    +0.011 C 
ATOM     12  C   UNL     1       1.163  -0.557   0.000  0.00  0.00    +0.058 C 
ATOM     13  C   UNL     1       1.225  -1.510   0.000  0.00  0.00    +0.101 C 
ATOM     14  C   UNL     1       0.244  -0.558   0.000  0.00  0.00    +0.041 A 
ATOM     15  C   UNL     1      -0.397  -0.039   0.000  0.00  0.00    +0.013 A 
ATOM     16  C   UNL     1      -1.167  -0.335   0.000  0.00  0.00    +0.006 A 
ATOM     17  C   UNL     1      -1.296  -1.150   0.000  0.00  0.00    +0.056 A 
ATOM     18  C   UNL     1      -0.655  -1.669   0.000  0.00  0.00    +0.261 A 
ATOM     19  O   UNL     1      -0.701  -2.647   0.000  0.00  0.00    -0.267 OA
ATOM     20  N   UNL     1       0.115  -1.373   0.000  0.00  0.00    -0.299 N 
ATOM     21  C   UNL     1       0.622  -0.936   0.000  0.00  0.00    +0.110 C 
ENDROOT
BRANCH  17  22
ATOM     22  C   UNL     1      -2.066  -1.445   0.000  0.00  0.00    +0.005 A 
ATOM     23  C   UNL     1      -2.360  -2.095   0.000  0.00  0.00    +0.000 A 
ATOM     24  C   UNL     1      -2.965  -2.556   0.000  0.00  0.00    +0.000 A 
ATOM     25  C   UNL     1      -3.606  -2.037   0.000  0.00  0.00    +0.000 A 
ATOM     26  C   UNL     1      -4.377  -2.333   0.000  0.00  0.00    +0.000 A 
ATOM     27  C   UNL     1      -5.018  -1.813   0.000  0.00  0.00    +0.000 A 
ATOM     28  C   UNL     1      -4.889  -0.999   0.000  0.00  0.00    +0.000 A 
ATOM     29  C   UNL     1      -4.119  -0.703   0.000  0.00  0.00    +0.000 A 
ATOM     30  C   UNL     1      -3.478  -1.222   0.000  0.00  0.00    +0.000 A 
ATOM     31  C   UNL     1      -2.707  -0.926   0.000  0.00  0.00    +0.000 A 
ENDBRANCH  17  22
BRANCH   5   4
ATOM      1  F   UNL     1      -1.888  -4.737   0.000  0.00  0.00    -0.204 F 
ATOM      2  C   UNL     1      -1.938  -3.914   0.000  0.00  0.00    +0.141 A 
ATOM      3  C   UNL     1      -1.251  -3.458   0.000  0.00  0.00    +0.046 A 
ATOM      4  C   UNL     1      -1.301  -2.635   0.000  0.00  0.00    +0.077 A 
ATOM     32  C   UNL     1      -2.040  -2.267   0.000  0.00  0.00    +0.017 A 
ATOM     33  C   UNL     1      -2.728  -2.723   0.000  0.00  0.00    +0.004 A 
ATOM     34  C   UNL     1      -2.677  -3.546   0.000  0.00  0.00    +0.030 A 
ENDBRANCH   5   4
TORSDOF 2
