MODEL 1
REMARK VINA RESULT:     -13.3      0.000      0.000
REMARK  Name = 
REMARK  4 active torsions:
REMARK  status: ('A' for Active; 'I' for Inactive)
REMARK    1  A    between atoms: C_4  and  N_22
REMARK    2  A    between atoms: C_6  and  C_7
REMARK    3  A    between atoms: C_9  and  C_12
REMARK    4  A    between atoms: C_23  and  C_25
REMARK                            x       y       z     vdW  Elec       q    Type
REMARK                         _______ _______ _______ _____ _____    ______ ____
ROOT
ATOM      1  C   UNL     1      -5.461   2.909  25.824  0.00  0.00    +0.090 C 
ATOM      2  N   UNL     1      -4.726   2.973  25.455  0.00  0.00    -0.264 NA
ATOM      3  C   UNL     1      -4.268   3.658  25.404  0.00  0.00    +0.094 C 
ATOM      4  C   UNL     1      -3.578   3.472  24.990  0.00  0.00    +0.113 C 
ATOM      5  C   UNL     1      -3.610   2.673  24.786  0.00  0.00    +0.049 C 
ATOM      6  C   UNL     1      -4.319   2.366  25.074  0.00  0.00    +0.139 C 
ENDROOT
BRANCH   6   7
ATOM      7  C   UNL     1      -4.577   1.586  24.993  0.00  0.00    +0.251 A 
ATOM      8  N   UNL     1      -4.104   0.935  24.810  0.00  0.00    -0.190 NA
ATOM      9  C   UNL     1      -4.588   0.267  24.786  0.00  0.00    +0.203 A 
ATOM     10  N   UNL     1      -5.360   0.505  24.954  0.00  0.00    -0.056 NA
ATOM     11  O   UNL     1      -5.353   1.320  25.083  0.00  0.00    -0.336 OA
BRANCH   9  12
ATOM     12  C   UNL     1      -4.342  -0.503  24.621  0.00  0.00    +0.039 A 
ATOM     13  C   UNL     1      -3.942  -0.940  25.195  0.00  0.00    +0.003 A 
ATOM     14  C   UNL     1      -3.696  -1.710  25.030  0.00  0.00    +0.000 A 
ATOM     15  C   UNL     1      -3.296  -2.147  25.604  0.00  0.00    +0.000 A 
ATOM     16  C   UNL     1      -3.050  -2.917  25.439  0.00  0.00    +0.000 A 
ATOM     17  C   UNL     1      -3.205  -3.250  24.700  0.00  0.00    +0.000 A 
ATOM     18  C   UNL     1      -3.605  -2.814  24.127  0.00  0.00    +0.000 A 
ATOM     19  C   UNL     1      -3.851  -2.043  24.291  0.00  0.00    +0.000 A 
ATOM     20  C   UNL     1      -4.251  -1.606  23.717  0.00  0.00    +0.000 A 
ATOM     21  C   UNL     1      -4.497  -0.837  23.882  0.00  0.00    +0.003 A 
ENDBRANCH   9  12
ENDBRANCH   6   7
BRANCH   4  22
ATOM     22  N   UNL     1      -2.965   3.994  24.812  0.00  0.00    -0.202 NA
ATOM     23  C   UNL     1      -2.287   4.010  25.281  0.00  0.00    +0.266 C 
ATOM     24  O   UNL     1      -2.221   3.503  25.928  0.00  0.00    -0.268 OA
BRANCH  23  25
ATOM     25  C   UNL     1      -1.674   4.532  25.102  0.00  0.00    +0.074 A 
ATOM     26  C   UNL     1      -1.802   5.346  25.139  0.00  0.00    +0.008 A 
ATOM     27  C   UNL     1      -1.190   5.870  24.960  0.00  0.00    +0.021 A 
ATOM     28  C   UNL     1      -0.449   5.578  24.744  0.00  0.00    +0.099 A 
ATOM     29  N   UNL     1      -0.320   4.764  24.707  0.00  0.00    -0.242 NA
ATOM     30  C   UNL     1      -0.933   4.242  24.886  0.00  0.00    +0.103 A 
ENDBRANCH  23  25
ENDBRANCH   4  22
TORSDOF 4
ENDMDL
MODEL 2
REMARK VINA RESULT:     -12.0      1.164      5.802
REMARK  Name = 
REMARK  4 active torsions:
REMARK  status: ('A' for Active; 'I' for Inactive)
REMARK    1  A    between atoms: C_4  and  N_22
REMARK    2  A    between atoms: C_6  and  C_7
REMARK    3  A    between atoms: C_9  and  C_12
REMARK    4  A    between atoms: C_23  and  C_25
REMARK                            x       y       z     vdW  Elec       q    Type
REMARK                         _______ _______ _______ _____ _____    ______ ____
ROOT
ATOM      1  C   UNL     1      -6.012   2.030  24.875  0.00  0.00    +0.090 C 
ATOM      2  N   UNL     1      -5.403   1.487  24.998  0.00  0.00    -0.264 NA
ATOM      3  C   UNL     1      -5.457   0.668  24.913  0.00  0.00    +0.094 C 
ATOM      4  C   UNL     1      -4.719   0.344  25.090  0.00  0.00    +0.113 C 
ATOM      5  C   UNL     1      -4.209   0.962  25.285  0.00  0.00    +0.049 C 
ATOM      6  C   UNL     1      -4.631   1.668  25.228  0.00  0.00    +0.139 C 
ENDROOT
BRANCH   6   7
ATOM      7  C   UNL     1      -4.334   2.424  25.375  0.00  0.00    +0.251 A 
ATOM      8  N   UNL     1      -3.589   2.703  25.156  0.00  0.00    -0.190 NA
ATOM      9  C   UNL     1      -3.525   3.485  25.413  0.00  0.00    +0.203 A 
ATOM     10  N   UNL     1      -4.229   3.689  25.791  0.00  0.00    -0.056 NA
ATOM     11  O   UNL     1      -4.729   3.032  25.768  0.00  0.00    -0.336 OA
BRANCH   9  12
ATOM     12  C   UNL     1      -2.870   3.976  25.309  0.00  0.00    +0.039 A 
ATOM     13  C   UNL     1      -2.162   3.666  25.022  0.00  0.00    +0.003 A 
ATOM     14  C   UNL     1      -1.508   4.157  24.919  0.00  0.00    +0.000 A 
ATOM     15  C   UNL     1      -0.800   3.847  24.631  0.00  0.00    +0.000 A 
ATOM     16  C   UNL     1      -0.146   4.338  24.528  0.00  0.00    +0.000 A 
ATOM     17  C   UNL     1      -0.199   5.142  24.712  0.00  0.00    +0.000 A 
ATOM     18  C   UNL     1      -0.907   5.452  25.000  0.00  0.00    +0.000 A 
ATOM     19  C   UNL     1      -1.562   4.961  25.103  0.00  0.00    +0.000 A 
ATOM     20  C   UNL     1      -2.269   5.271  25.391  0.00  0.00    +0.000 A 
ATOM     21  C   UNL     1      -2.923   4.780  25.494  0.00  0.00    +0.003 A 
ENDBRANCH   9  12
ENDBRANCH   6   7
BRANCH   4  22
ATOM     22  N   UNL     1      -4.527  -0.458  25.075  0.00  0.00    -0.202 NA
ATOM     23  C   UNL     1      -4.092  -0.766  24.446  0.00  0.00    +0.266 C 
ATOM     24  O   UNL     1      -3.850  -0.273  23.830  0.00  0.00    -0.268 OA
BRANCH  23  25
ATOM     25  C   UNL     1      -3.900  -1.569  24.432  0.00  0.00    +0.074 A 
ATOM     26  C   UNL     1      -4.228  -2.061  23.857  0.00  0.00    +0.008 A 
ATOM     27  C   UNL     1      -4.037  -2.863  23.843  0.00  0.00    +0.021 A 
ATOM     28  C   UNL     1      -3.516  -3.173  24.403  0.00  0.00    +0.099 A 
ATOM     29  N   UNL     1      -3.188  -2.681  24.977  0.00  0.00    -0.242 NA
ATOM     30  C   UNL     1      -3.380  -1.879  24.992  0.00  0.00    +0.103 A 
ENDBRANCH  23  25
ENDBRANCH   4  22
TORSDOF 4
ENDMDL
MODEL 3
REMARK VINA RESULT:     -11.9      2.231      3.169
REMARK  Name = 
REMARK  4 active torsions:
REMARK  status: ('A' for Active; 'I' for Inactive)
REMARK    1  A    between atoms: C_4  and  N_22
REMARK    2  A    between atoms: C_6  and  C_7
REMARK    3  A    between atoms: C_9  and  C_12
REMARK    4  A    between atoms: C_23  and  C_25
REMARK                            x       y       z     vdW  Elec       q    Type
REMARK                         _______ _______ _______ _____ _____    ______ ____
ROOT
ATOM      1  C   UNL     1       0.777   0.695  23.737  0.00  0.00    +0.090 C 
ATOM      2  N   UNL     1       0.264   1.158  24.187  0.00  0.00    -0.264 NA
ATOM      3  C   UNL     1       0.288   1.980  24.259  0.00  0.00    +0.094 C 
ATOM      4  C   UNL     1      -0.326   2.210  24.760  0.00  0.00    +0.113 C 
ATOM      5  C   UNL     1      -0.729   1.531  24.999  0.00  0.00    +0.049 C 
ATOM      6  C   UNL     1      -0.365   0.881  24.645  0.00  0.00    +0.139 C 
ENDROOT
BRANCH   6   7
ATOM      7  C   UNL     1      -0.590   0.092  24.733  0.00  0.00    +0.251 A 
ATOM      8  N   UNL     1      -1.317  -0.232  24.516  0.00  0.00    -0.190 NA
ATOM      9  C   UNL     1      -1.303  -1.036  24.703  0.00  0.00    +0.203 A 
ATOM     10  N   UNL     1      -0.568  -1.208  25.035  0.00  0.00    -0.056 NA
ATOM     11  O   UNL     1      -0.127  -0.511  25.053  0.00  0.00    -0.336 OA
BRANCH   9  12
ATOM     12  C   UNL     1      -1.918  -1.572  24.579  0.00  0.00    +0.039 A 
ATOM     13  C   UNL     1      -2.656  -1.304  24.327  0.00  0.00    +0.003 A 
ATOM     14  C   UNL     1      -3.270  -1.840  24.203  0.00  0.00    +0.000 A 
ATOM     15  C   UNL     1      -4.008  -1.572  23.951  0.00  0.00    +0.000 A 
ATOM     16  C   UNL     1      -4.622  -2.108  23.828  0.00  0.00    +0.000 A 
ATOM     17  C   UNL     1      -4.498  -2.914  23.956  0.00  0.00    +0.000 A 
ATOM     18  C   UNL     1      -3.760  -3.183  24.207  0.00  0.00    +0.000 A 
ATOM     19  C   UNL     1      -3.145  -2.646  24.331  0.00  0.00    +0.000 A 
ATOM     20  C   UNL     1      -2.408  -2.915  24.583  0.00  0.00    +0.000 A 
ATOM     21  C   UNL     1      -1.794  -2.378  24.707  0.00  0.00    +0.003 A 
ENDBRANCH   9  12
ENDBRANCH   6   7
BRANCH   4  22
ATOM     22  N   UNL     1      -0.504   2.984  24.984  0.00  0.00    -0.202 NA
ATOM     23  C   UNL     1      -1.126   3.386  24.621  0.00  0.00    +0.266 C 
ATOM     24  O   UNL     1      -1.571   3.014  24.034  0.00  0.00    -0.268 OA
BRANCH  23  25
ATOM     25  C   UNL     1      -1.303   4.160  24.845  0.00  0.00    +0.074 A 
ATOM     26  C   UNL     1      -0.794   4.775  24.640  0.00  0.00    +0.008 A 
ATOM     27  C   UNL     1      -0.970   5.549  24.863  0.00  0.00    +0.021 A 
ATOM     28  C   UNL     1      -1.657   5.708  25.293  0.00  0.00    +0.099 A 
ATOM     29  N   UNL     1      -2.166   5.093  25.498  0.00  0.00    -0.242 NA
ATOM     30  C   UNL     1      -1.989   4.319  25.274  0.00  0.00    +0.103 A 
ENDBRANCH  23  25
ENDBRANCH   4  22
TORSDOF 4
ENDMDL
MODEL 4
REMARK VINA RESULT:     -11.1      3.293      4.944
REMARK  Name = 
REMARK  4 active torsions:
REMARK  status: ('A' for Active; 'I' for Inactive)
REMARK    1  A    between atoms: C_4  and  N_22
REMARK    2  A    between atoms: C_6  and  C_7
REMARK    3  A    between atoms: C_9  and  C_12
REMARK    4  A    between atoms: C_23  and  C_25
REMARK                            x       y       z     vdW  Elec       q    Type
REMARK                         _______ _______ _______ _____ _____    ______ ____
ROOT
ATOM      1  C   UNL     1      -1.594  -0.975  25.899  0.00  0.00    +0.090 C 
ATOM      2  N   UNL     1      -1.283  -0.757  25.167  0.00  0.00    -0.264 NA
ATOM      3  C   UNL     1      -0.505  -0.874  24.916  0.00  0.00    +0.094 C 
ATOM      4  C   UNL     1      -0.436  -0.572  24.151  0.00  0.00    +0.113 C 
ATOM      5  C   UNL     1      -1.171  -0.269  23.929  0.00  0.00    +0.049 C 
ATOM      6  C   UNL     1      -1.693  -0.384  24.557  0.00  0.00    +0.139 C 
ENDROOT
BRANCH   6   7
ATOM      7  C   UNL     1      -2.489  -0.163  24.572  0.00  0.00    +0.251 A 
ATOM      8  N   UNL     1      -2.783   0.571  24.807  0.00  0.00    -0.190 NA
ATOM      9  C   UNL     1      -3.605   0.550  24.734  0.00  0.00    +0.203 A 
ATOM     10  N   UNL     1      -3.818  -0.197  24.454  0.00  0.00    -0.056 NA
ATOM     11  O   UNL     1      -3.127  -0.637  24.354  0.00  0.00    -0.336 OA
BRANCH   9  12
ATOM     12  C   UNL     1      -4.123   1.168  24.911  0.00  0.00    +0.039 A 
ATOM     13  C   UNL     1      -3.843   1.941  24.955  0.00  0.00    +0.003 A 
ATOM     14  C   UNL     1      -4.361   2.558  25.132  0.00  0.00    +0.000 A 
ATOM     15  C   UNL     1      -4.081   3.333  25.176  0.00  0.00    +0.000 A 
ATOM     16  C   UNL     1      -4.598   3.950  25.353  0.00  0.00    +0.000 A 
ATOM     17  C   UNL     1      -5.398   3.792  25.485  0.00  0.00    +0.000 A 
ATOM     18  C   UNL     1      -5.678   3.018  25.441  0.00  0.00    +0.000 A 
ATOM     19  C   UNL     1      -5.161   2.401  25.264  0.00  0.00    +0.000 A 
ATOM     20  C   UNL     1      -5.441   1.627  25.220  0.00  0.00    +0.000 A 
ATOM     21  C   UNL     1      -4.923   1.010  25.043  0.00  0.00    +0.003 A 
ENDBRANCH   9  12
ENDBRANCH   6   7
BRANCH   4  22
ATOM     22  N   UNL     1       0.248  -0.574  23.690  0.00  0.00    -0.202 NA
ATOM     23  C   UNL     1       0.626   0.136  23.511  0.00  0.00    +0.266 C 
ATOM     24  O   UNL     1       0.321   0.850  23.792  0.00  0.00    -0.268 OA
BRANCH  23  25
ATOM     25  C   UNL     1       1.310   0.134  23.049  0.00  0.00    +0.074 A 
ATOM     26  C   UNL     1       1.998   0.493  23.329  0.00  0.00    +0.008 A 
ATOM     27  C   UNL     1       2.682   0.491  22.869  0.00  0.00    +0.021 A 
ATOM     28  C   UNL     1       2.679   0.129  22.127  0.00  0.00    +0.099 A 
ATOM     29  N   UNL     1       1.991  -0.230  21.847  0.00  0.00    -0.242 NA
ATOM     30  C   UNL     1       1.307  -0.228  22.308  0.00  0.00    +0.103 A 
ENDBRANCH  23  25
ENDBRANCH   4  22
TORSDOF 4
ENDMDL
MODEL 5
REMARK VINA RESULT:     -10.9      2.399      6.536
REMARK  Name = 
REMARK  4 active torsions:
REMARK  status: ('A' for Active; 'I' for Inactive)
REMARK    1  A    between atoms: C_4  and  N_22
REMARK    2  A    between atoms: C_6  and  C_7
REMARK    3  A    between atoms: C_9  and  C_12
REMARK    4  A    between atoms: C_23  and  C_25
REMARK                            x       y       z     vdW  Elec       q    Type
REMARK                         _______ _______ _______ _____ _____    ______ ____
ROOT
ATOM      1  C   UNL     1       0.611   0.211  23.614  0.00  0.00    +0.090 C 
ATOM      2  N   UNL     1      -0.072  -0.038  24.004  0.00  0.00    -0.264 NA
ATOM      3  C   UNL     1      -0.443  -0.769  23.914  0.00  0.00    +0.094 C 
ATOM      4  C   UNL     1      -1.104  -0.782  24.407  0.00  0.00    +0.113 C 
ATOM      5  C   UNL     1      -1.142  -0.059  24.802  0.00  0.00    +0.049 C 
ATOM      6  C   UNL     1      -0.504   0.401  24.552  0.00  0.00    +0.139 C 
ENDROOT
BRANCH   6   7
ATOM      7  C   UNL     1      -0.329   1.166  24.808  0.00  0.00    +0.251 A 
ATOM      8  N   UNL     1      -0.784   1.840  24.668  0.00  0.00    -0.190 NA
ATOM      9  C   UNL     1      -0.404   2.482  25.022  0.00  0.00    +0.203 A 
ATOM     10  N   UNL     1       0.285   2.204  25.381  0.00  0.00    -0.056 NA
ATOM     11  O   UNL     1       0.331   1.390  25.248  0.00  0.00    -0.336 OA
BRANCH   9  12
ATOM     12  C   UNL     1      -0.668   3.263  25.017  0.00  0.00    +0.039 A 
ATOM     13  C   UNL     1      -1.397   3.455  25.351  0.00  0.00    +0.003 A 
ATOM     14  C   UNL     1      -1.661   4.236  25.346  0.00  0.00    +0.000 A 
ATOM     15  C   UNL     1      -2.390   4.429  25.680  0.00  0.00    +0.000 A 
ATOM     16  C   UNL     1      -2.653   5.210  25.675  0.00  0.00    +0.000 A 
ATOM     17  C   UNL     1      -2.187   5.801  25.336  0.00  0.00    +0.000 A 
ATOM     18  C   UNL     1      -1.458   5.609  25.002  0.00  0.00    +0.000 A 
ATOM     19  C   UNL     1      -1.194   4.827  25.006  0.00  0.00    +0.000 A 
ATOM     20  C   UNL     1      -0.465   4.635  24.672  0.00  0.00    +0.000 A 
ATOM     21  C   UNL     1      -0.202   3.854  24.677  0.00  0.00    +0.003 A 
ENDBRANCH   9  12
ENDBRANCH   6   7
BRANCH   4  22
ATOM     22  N   UNL     1      -1.634  -1.408  24.490  0.00  0.00    -0.202 NA
ATOM     23  C   UNL     1      -2.438  -1.291  24.347  0.00  0.00    +0.266 C 
ATOM     24  O   UNL     1      -2.713  -0.546  24.122  0.00  0.00    -0.268 OA
BRANCH  23  25
ATOM     25  C   UNL     1      -2.968  -1.918  24.431  0.00  0.00    +0.074 A 
ATOM     26  C   UNL     1      -3.623  -1.974  23.933  0.00  0.00    +0.008 A 
ATOM     27  C   UNL     1      -4.153  -2.600  24.015  0.00  0.00    +0.021 A 
ATOM     28  C   UNL     1      -4.027  -3.172  24.597  0.00  0.00    +0.099 A 
ATOM     29  N   UNL     1      -3.372  -3.117  25.095  0.00  0.00    -0.242 NA
ATOM     30  C   UNL     1      -2.843  -2.490  25.012  0.00  0.00    +0.103 A 
ENDBRANCH  23  25
ENDBRANCH   4  22
TORSDOF 4
ENDMDL
MODEL 6
REMARK VINA RESULT:     -10.6      3.004      4.902
REMARK  Name = 
REMARK  4 active torsions:
REMARK  status: ('A' for Active; 'I' for Inactive)
REMARK    1  A    between atoms: C_4  and  N_22
REMARK    2  A    between atoms: C_6  and  C_7
REMARK    3  A    between atoms: C_9  and  C_12
REMARK    4  A    between atoms: C_23  and  C_25
REMARK                            x       y       z     vdW  Elec       q    Type
REMARK                         _______ _______ _______ _____ _____    ______ ____
ROOT
ATOM      1  C   UNL     1      -0.395   2.654  26.326  0.00  0.00    +0.090 C 
ATOM      2  N   UNL     1      -0.267   2.467  25.533  0.00  0.00    -0.264 NA
ATOM      3  C   UNL     1       0.398   2.085  25.226  0.00  0.00    +0.094 C 
ATOM      4  C   UNL     1       0.294   2.011  24.411  0.00  0.00    +0.113 C 
ATOM      5  C   UNL     1      -0.434   2.346  24.214  0.00  0.00    +0.049 C 
ATOM      6  C   UNL     1      -0.780   2.627  24.908  0.00  0.00    +0.139 C 
ENDROOT
BRANCH   6   7
ATOM      7  C   UNL     1      -1.512   3.004  24.966  0.00  0.00    +0.251 A 
ATOM      8  N   UNL     1      -2.238   2.635  25.097  0.00  0.00    -0.190 NA
ATOM      9  C   UNL     1      -2.821   3.219  25.115  0.00  0.00    +0.203 A 
ATOM     10  N   UNL     1      -2.455   3.949  24.995  0.00  0.00    -0.056 NA
ATOM     11  O   UNL     1      -1.645   3.816  24.903  0.00  0.00    -0.336 OA
BRANCH   9  12
ATOM     12  C   UNL     1      -3.628   3.095  25.232  0.00  0.00    +0.039 A 
ATOM     13  C   UNL     1      -3.984   2.404  24.956  0.00  0.00    +0.003 A 
ATOM     14  C   UNL     1      -4.790   2.280  25.073  0.00  0.00    +0.000 A 
ATOM     15  C   UNL     1      -5.146   1.588  24.798  0.00  0.00    +0.000 A 
ATOM     16  C   UNL     1      -5.953   1.464  24.915  0.00  0.00    +0.000 A 
ATOM     17  C   UNL     1      -6.405   2.032  25.309  0.00  0.00    +0.000 A 
ATOM     18  C   UNL     1      -6.049   2.723  25.585  0.00  0.00    +0.000 A 
ATOM     19  C   UNL     1      -5.242   2.848  25.467  0.00  0.00    +0.000 A 
ATOM     20  C   UNL     1      -4.887   3.538  25.743  0.00  0.00    +0.000 A 
ATOM     21  C   UNL     1      -4.080   3.663  25.626  0.00  0.00    +0.003 A 
ENDBRANCH   9  12
ENDBRANCH   6   7
BRANCH   4  22
ATOM     22  N   UNL     1       0.826   1.662  23.885  0.00  0.00    -0.202 NA
ATOM     23  C   UNL     1       0.771   0.857  23.715  0.00  0.00    +0.266 C 
ATOM     24  O   UNL     1       0.183   0.399  24.072  0.00  0.00    -0.268 OA
BRANCH  23  25
ATOM     25  C   UNL     1       1.303   0.509  23.189  0.00  0.00    +0.074 A 
ATOM     26  C   UNL     1       2.106   0.692  23.235  0.00  0.00    +0.008 A 
ATOM     27  C   UNL     1       2.639   0.345  22.709  0.00  0.00    +0.021 A 
ATOM     28  C   UNL     1       2.368  -0.186  22.138  0.00  0.00    +0.099 A 
ATOM     29  N   UNL     1       1.565  -0.369  22.093  0.00  0.00    -0.242 NA
ATOM     30  C   UNL     1       1.032  -0.021  22.619  0.00  0.00    +0.103 A 
ENDBRANCH  23  25
ENDBRANCH   4  22
TORSDOF 4
ENDMDL
MODEL 7
REMARK VINA RESULT:     -10.3      4.960      6.208
REMARK  Name = 
REMARK  4 active torsions:
REMARK  status: ('A' for Active; 'I' for Inactive)
REMARK    1  A    between atoms: C_4  and  N_22
REMARK    2  A    between atoms: C_6  and  C_7
REMARK    3  A    between atoms: C_9  and  C_12
REMARK    4  A    between atoms: C_23  and  C_25
REMARK                            x       y       z     vdW  Elec       q    Type
REMARK                         _______ _______ _______ _____ _____    ______ ____
ROOT
ATOM      1  C   UNL     1      -0.252  -0.897  24.107  0.00  0.00    +0.090 C 
ATOM      2  N   UNL     1      -0.397  -0.090  24.019  0.00  0.00    -0.264 NA
ATOM      3  C   UNL     1      -1.047   0.322  24.320  0.00  0.00    +0.094 C 
ATOM      4  C   UNL     1      -0.970   1.114  24.102  0.00  0.00    +0.113 C 
ATOM      5  C   UNL     1      -0.273   1.192  23.667  0.00  0.00    +0.049 C 
ATOM      6  C   UNL     1       0.080   0.449  23.616  0.00  0.00    +0.139 C 
ENDROOT
BRANCH   6   7
ATOM      7  C   UNL     1       0.788   0.274  23.229  0.00  0.00    +0.251 A 
ATOM      8  N   UNL     1       1.546   0.452  23.502  0.00  0.00    -0.190 NA
ATOM      9  C   UNL     1       2.088   0.179  22.942  0.00  0.00    +0.203 A 
ATOM     10  N   UNL     1       1.665  -0.167  22.324  0.00  0.00    -0.056 NA
ATOM     11  O   UNL     1       0.861  -0.108  22.502  0.00  0.00    -0.336 OA
BRANCH   9  12
ATOM     12  C   UNL     1       2.909   0.241  22.993  0.00  0.00    +0.039 A 
ATOM     13  C   UNL     1       3.345  -0.343  23.379  0.00  0.00    +0.003 A 
ATOM     14  C   UNL     1       4.165  -0.280  23.430  0.00  0.00    +0.000 A 
ATOM     15  C   UNL     1       4.601  -0.864  23.816  0.00  0.00    +0.000 A 
ATOM     16  C   UNL     1       5.422  -0.801  23.867  0.00  0.00    +0.000 A 
ATOM     17  C   UNL     1       5.808  -0.153  23.530  0.00  0.00    +0.000 A 
ATOM     18  C   UNL     1       5.372   0.430  23.144  0.00  0.00    +0.000 A 
ATOM     19  C   UNL     1       4.551   0.368  23.093  0.00  0.00    +0.000 A 
ATOM     20  C   UNL     1       4.116   0.952  22.707  0.00  0.00    +0.000 A 
ATOM     21  C   UNL     1       3.295   0.889  22.656  0.00  0.00    +0.003 A 
ENDBRANCH   9  12
ENDBRANCH   6   7
BRANCH   4  22
ATOM     22  N   UNL     1      -1.497   1.720  24.287  0.00  0.00    -0.202 NA
ATOM     23  C   UNL     1      -1.445   2.105  25.015  0.00  0.00    +0.266 C 
ATOM     24  O   UNL     1      -0.865   1.883  25.559  0.00  0.00    -0.268 OA
BRANCH  23  25
ATOM     25  C   UNL     1      -1.973   2.711  25.200  0.00  0.00    +0.074 A 
ATOM     26  C   UNL     1      -1.691   3.427  25.497  0.00  0.00    +0.008 A 
ATOM     27  C   UNL     1      -2.218   4.034  25.682  0.00  0.00    +0.021 A 
ATOM     28  C   UNL     1      -3.029   3.925  25.569  0.00  0.00    +0.099 A 
ATOM     29  N   UNL     1      -3.311   3.209  25.271  0.00  0.00    -0.242 NA
ATOM     30  C   UNL     1      -2.783   2.602  25.087  0.00  0.00    +0.103 A 
ENDBRANCH  23  25
ENDBRANCH   4  22
TORSDOF 4
ENDMDL
