MODEL 1
REMARK VINA RESULT:      -8.8      0.000      0.000
REMARK  Name = 
REMARK  7 active torsions:
REMARK  status: ('A' for Active; 'I' for Inactive)
REMARK    1  A    between atoms: C_2  and  C_4
REMARK    2  A    between atoms: C_4  and  C_5
REMARK    3  A    between atoms: C_5  and  C_6
REMARK    4  A    between atoms: C_6  and  C_7
REMARK    5  A    between atoms: N_9  and  C_10
REMARK    6  A    between atoms: C_14  and  N_18
REMARK    7  A    between atoms: C_21  and  C_25
REMARK                            x       y       z     vdW  Elec       q    Type
REMARK                         _______ _______ _______ _____ _____    ______ ____
ROOT
ATOM     10  C   UNL     1       1.171   0.774  23.416  0.00  0.00    +0.154 C 
ATOM     11  C   UNL     1       0.774   0.098  23.161  0.00  0.00    +0.166 C 
ATOM     12  O   UNL     1       0.016   0.109  23.487  0.00  0.00    -0.350 OA
ATOM     13  C   UNL     1      -0.055   0.793  23.944  0.00  0.00    +0.166 C 
ATOM     14  C   UNL     1      -0.568   1.222  24.427  0.00  0.00    +0.154 C 
ATOM     15  C   UNL     1      -0.170   1.899  24.682  0.00  0.00    +0.166 C 
ATOM     16  O   UNL     1       0.588   1.888  24.356  0.00  0.00    -0.350 OA
ATOM     17  C   UNL     1       0.659   1.204  23.900  0.00  0.00    +0.166 C 
ENDROOT
BRANCH  14  18
ATOM     18  N   UNL     1      -1.341   1.012  24.622  0.00  0.00    -0.200 NA
ATOM     19  C   UNL     1      -1.957   1.546  24.498  0.00  0.00    +0.237 A 
ATOM     20  N   UNL     1      -2.731   1.336  24.693  0.00  0.00    -0.209 NA
ATOM     21  C   UNL     1      -3.347   1.870  24.569  0.00  0.00    +0.120 A 
ATOM     22  C   UNL     1      -3.190   2.614  24.250  0.00  0.00    +0.043 A 
ATOM     23  C   UNL     1      -2.416   2.825  24.055  0.00  0.00    +0.104 A 
ATOM     24  N   UNL     1      -1.800   2.290  24.179  0.00  0.00    -0.211 NA
BRANCH  21  25
ATOM     25  C   UNL     1      -4.121   1.660  24.763  0.00  0.00    +0.163 A 
ATOM     26  C   UNL     1      -4.767   2.172  24.801  0.00  0.00    +0.042 A 
ATOM     27  C   UNL     1      -5.430   1.731  25.015  0.00  0.00    +0.044 A 
ATOM     28  C   UNL     1      -5.195   0.946  25.110  0.00  0.00    +0.180 A 
ATOM     29  O   UNL     1      -4.386   0.902  24.954  0.00  0.00    -0.449 OA
ENDBRANCH  21  25
ENDBRANCH  14  18
BRANCH  10   9
ATOM      7  C   UNL     1       2.441   0.438  22.853  0.00  0.00    +0.241 C 
ATOM      8  O   UNL     1       2.163  -0.319  22.679  0.00  0.00    -0.273 OA
ATOM      9  N   UNL     1       1.945   0.985  23.222  0.00  0.00    -0.202 NA
BRANCH   7   6
ATOM      6  C   UNL     1       3.214   0.649  22.659  0.00  0.00    +0.087 C 
BRANCH   6   5
ATOM      5  C   UNL     1       3.848   0.308  23.064  0.00  0.00    +0.021 C 
BRANCH   5   4
ATOM      4  C   UNL     1       4.611   0.603  22.957  0.00  0.00    +0.115 C 
BRANCH   4   2
ATOM      1  O   UNL     1       5.342   0.672  24.183  0.00  0.00    -0.246 OA
ATOM      2  C   UNL     1       5.227   0.337  23.438  0.00  0.00    +0.365 C 
ATOM      3  O   UNL     1       5.728  -0.263  23.173  0.00  0.00    -0.246 OA
ENDBRANCH   4   2
ENDBRANCH   5   4
ENDBRANCH   6   5
ENDBRANCH   7   6
ENDBRANCH  10   9
TORSDOF 7
ENDMDL
MODEL 2
REMARK VINA RESULT:      -8.2      1.192      6.885
REMARK  Name = 
REMARK  7 active torsions:
REMARK  status: ('A' for Active; 'I' for Inactive)
REMARK    1  A    between atoms: C_2  and  C_4
REMARK    2  A    between atoms: C_4  and  C_5
REMARK    3  A    between atoms: C_5  and  C_6
REMARK    4  A    between atoms: C_6  and  C_7
REMARK    5  A    between atoms: N_9  and  C_10
REMARK    6  A    between atoms: C_14  and  N_18
REMARK    7  A    between atoms: C_21  and  C_25
REMARK                            x       y       z     vdW  Elec       q    Type
REMARK                         _______ _______ _______ _____ _____    ______ ____
ROOT
ATOM     10  C   UNL     1      -2.023   1.877  23.932  0.00  0.00    +0.154 C 
ATOM     11  C   UNL     1      -1.617   2.588  23.836  0.00  0.00    +0.166 C 
ATOM     12  O   UNL     1      -0.808   2.424  23.848  0.00  0.00    -0.350 OA
ATOM     13  C   UNL     1      -0.715   1.610  23.951  0.00  0.00    +0.166 C 
ATOM     14  C   UNL     1      -0.157   1.006  24.022  0.00  0.00    +0.154 C 
ATOM     15  C   UNL     1      -0.565   0.294  24.118  0.00  0.00    +0.166 C 
ATOM     16  O   UNL     1      -1.373   0.459  24.106  0.00  0.00    -0.350 OA
ATOM     17  C   UNL     1      -1.466   1.272  24.003  0.00  0.00    +0.166 C 
ENDROOT
BRANCH  14  18
ATOM     18  N   UNL     1       0.662   1.097  24.001  0.00  0.00    -0.200 NA
ATOM     19  C   UNL     1       1.111   0.666  23.460  0.00  0.00    +0.237 A 
ATOM     20  N   UNL     1       1.931   0.757  23.439  0.00  0.00    -0.209 NA
ATOM     21  C   UNL     1       2.380   0.326  22.898  0.00  0.00    +0.120 A 
ATOM     22  C   UNL     1       2.010  -0.196  22.378  0.00  0.00    +0.043 A 
ATOM     23  C   UNL     1       1.190  -0.287  22.398  0.00  0.00    +0.104 A 
ATOM     24  N   UNL     1       0.740   0.144  22.940  0.00  0.00    -0.211 NA
BRANCH  21  25
ATOM     25  C   UNL     1       3.200   0.417  22.877  0.00  0.00    +0.163 A 
ATOM     26  C   UNL     1       3.606   1.090  22.626  0.00  0.00    +0.042 A 
ATOM     27  C   UNL     1       4.414   0.940  22.697  0.00  0.00    +0.044 A 
ATOM     28  C   UNL     1       4.508   0.175  22.990  0.00  0.00    +0.180 A 
ATOM     29  O   UNL     1       3.757  -0.148  23.102  0.00  0.00    -0.449 OA
ENDBRANCH  21  25
ENDBRANCH  14  18
BRANCH  10   9
ATOM      7  C   UNL     1      -3.321   2.413  24.192  0.00  0.00    +0.241 C 
ATOM      8  O   UNL     1      -2.980   3.132  24.411  0.00  0.00    -0.273 OA
ATOM      9  N   UNL     1      -2.842   1.785  23.953  0.00  0.00    -0.202 NA
BRANCH   7   6
ATOM      6  C   UNL     1      -4.141   2.321  24.214  0.00  0.00    +0.087 C 
BRANCH   6   5
ATOM      5  C   UNL     1      -4.556   2.482  24.909  0.00  0.00    +0.021 C 
BRANCH   5   4
ATOM      4  C   UNL     1      -5.364   2.323  24.952  0.00  0.00    +0.115 C 
BRANCH   4   2
ATOM      1  O   UNL     1      -6.143   1.776  26.018  0.00  0.00    -0.246 OA
ATOM      2  C   UNL     1      -5.765   2.420  25.667  0.00  0.00    +0.365 C 
ATOM      3  O   UNL     1      -5.789   3.161  26.030  0.00  0.00    -0.246 OA
ENDBRANCH   4   2
ENDBRANCH   5   4
ENDBRANCH   6   5
ENDBRANCH   7   6
ENDBRANCH  10   9
TORSDOF 7
ENDMDL
MODEL 3
REMARK VINA RESULT:      -6.3     15.284     16.782
REMARK  Name = 
REMARK  7 active torsions:
REMARK  status: ('A' for Active; 'I' for Inactive)
REMARK    1  A    between atoms: C_2  and  C_4
REMARK    2  A    between atoms: C_4  and  C_5
REMARK    3  A    between atoms: C_5  and  C_6
REMARK    4  A    between atoms: C_6  and  C_7
REMARK    5  A    between atoms: N_9  and  C_10
REMARK    6  A    between atoms: C_14  and  N_18
REMARK    7  A    between atoms: C_21  and  C_25
REMARK                            x       y       z     vdW  Elec       q    Type
REMARK                         _______ _______ _______ _____ _____    ______ ____
ROOT
ATOM     10  C   UNL     1      -5.612 -10.404  15.483  0.00  0.00    +0.154 C 
ATOM     11  C   UNL     1      -6.299 -10.041  15.206  0.00  0.00    +0.166 C 
ATOM     12  O   UNL     1      -6.207  -9.904  14.397  0.00  0.00    -0.350 OA
ATOM     13  C   UNL     1      -5.461 -10.181  14.175  0.00  0.00    +0.166 C 
ATOM     14  C   UNL     1      -4.944 -10.267  13.538  0.00  0.00    +0.154 C 
ATOM     15  C   UNL     1      -4.257 -10.630  13.817  0.00  0.00    +0.166 C 
ATOM     16  O   UNL     1      -4.350 -10.767  14.625  0.00  0.00    -0.350 OA
ATOM     17  C   UNL     1      -5.094 -10.490  14.846  0.00  0.00    +0.166 C 
ENDROOT
BRANCH  14  18
ATOM     18  N   UNL     1      -5.088 -10.033  12.761  0.00  0.00    -0.200 NA
ATOM     19  C   UNL     1      -4.474 -10.031  12.211  0.00  0.00    +0.237 A 
ATOM     20  N   UNL     1      -4.618  -9.796  11.433  0.00  0.00    -0.209 NA
ATOM     21  C   UNL     1      -4.005  -9.794  10.882  0.00  0.00    +0.120 A 
ATOM     22  C   UNL     1      -3.246 -10.027  11.109  0.00  0.00    +0.043 A 
ATOM     23  C   UNL     1      -3.101 -10.262  11.886  0.00  0.00    +0.104 A 
ATOM     24  N   UNL     1      -3.716 -10.264  12.437  0.00  0.00    -0.211 NA
BRANCH  21  25
ATOM     25  C   UNL     1      -4.148  -9.560  10.104  0.00  0.00    +0.163 A 
ATOM     26  C   UNL     1      -4.775  -9.812   9.630  0.00  0.00    +0.042 A 
ATOM     27  C   UNL     1      -4.705  -9.440   8.897  0.00  0.00    +0.044 A 
ATOM     28  C   UNL     1      -4.035  -8.959   8.917  0.00  0.00    +0.180 A 
ATOM     29  O   UNL     1      -3.691  -9.033   9.663  0.00  0.00    -0.449 OA
ENDBRANCH  21  25
ENDBRANCH  14  18
BRANCH  10   9
ATOM      7  C   UNL     1      -5.833 -10.242  16.886  0.00  0.00    +0.241 C 
ATOM      8  O   UNL     1      -6.342  -9.611  16.733  0.00  0.00    -0.273 OA
ATOM      9  N   UNL     1      -5.468 -10.639  16.260  0.00  0.00    -0.202 NA
BRANCH   7   6
ATOM      6  C   UNL     1      -5.688 -10.477  17.663  0.00  0.00    +0.087 C 
BRANCH   6   5
ATOM      5  C   UNL     1      -6.265 -10.361  18.243  0.00  0.00    +0.021 C 
BRANCH   5   4
ATOM      4  C   UNL     1      -6.226 -10.781  18.951  0.00  0.00    +0.115 C 
BRANCH   4   2
ATOM      1  O   UNL     1      -6.291 -10.062  20.185  0.00  0.00    -0.246 OA
ATOM      2  C   UNL     1      -6.657 -10.524  19.607  0.00  0.00    +0.365 C 
ATOM      3  O   UNL     1      -7.453 -10.728  19.684  0.00  0.00    -0.246 OA
ENDBRANCH   4   2
ENDBRANCH   5   4
ENDBRANCH   6   5
ENDBRANCH   7   6
ENDBRANCH  10   9
TORSDOF 7
ENDMDL
MODEL 4
REMARK VINA RESULT:      -6.1     15.253     17.067
REMARK  Name = 
REMARK  7 active torsions:
REMARK  status: ('A' for Active; 'I' for Inactive)
REMARK    1  A    between atoms: C_2  and  C_4
REMARK    2  A    between atoms: C_4  and  C_5
REMARK    3  A    between atoms: C_5  and  C_6
REMARK    4  A    between atoms: C_6  and  C_7
REMARK    5  A    between atoms: N_9  and  C_10
REMARK    6  A    between atoms: C_14  and  N_18
REMARK    7  A    between atoms: C_21  and  C_25
REMARK                            x       y       z     vdW  Elec       q    Type
REMARK                         _______ _______ _______ _____ _____    ______ ____
ROOT
ATOM     10  C   UNL     1      -6.781 -10.104  15.534  0.00  0.00    +0.154 C 
ATOM     11  C   UNL     1      -5.992  -9.961  15.725  0.00  0.00    +0.166 C 
ATOM     12  O   UNL     1      -5.550 -10.000  15.030  0.00  0.00    -0.350 OA
ATOM     13  C   UNL     1      -6.066 -10.169  14.408  0.00  0.00    +0.166 C 
ATOM     14  C   UNL     1      -6.112 -10.298  13.594  0.00  0.00    +0.154 C 
ATOM     15  C   UNL     1      -6.902 -10.442  13.404  0.00  0.00    +0.166 C 
ATOM     16  O   UNL     1      -7.343 -10.402  14.099  0.00  0.00    -0.350 OA
ATOM     17  C   UNL     1      -6.827 -10.233  14.720  0.00  0.00    +0.166 C 
ENDROOT
BRANCH  14  18
ATOM     18  N   UNL     1      -5.480 -10.285  13.065  0.00  0.00    -0.200 NA
ATOM     19  C   UNL     1      -5.501  -9.786  12.409  0.00  0.00    +0.237 A 
ATOM     20  N   UNL     1      -4.869  -9.773  11.879  0.00  0.00    -0.209 NA
ATOM     21  C   UNL     1      -4.890  -9.274  11.223  0.00  0.00    +0.120 A 
ATOM     22  C   UNL     1      -5.544  -8.788  11.096  0.00  0.00    +0.043 A 
ATOM     23  C   UNL     1      -6.177  -8.800  11.625  0.00  0.00    +0.104 A 
ATOM     24  N   UNL     1      -6.155  -9.300  12.282  0.00  0.00    -0.211 NA
BRANCH  21  25
ATOM     25  C   UNL     1      -4.258  -9.261  10.693  0.00  0.00    +0.163 A 
ATOM     26  C   UNL     1      -4.314  -9.173   9.874  0.00  0.00    +0.042 A 
ATOM     27  C   UNL     1      -3.550  -9.191   9.564  0.00  0.00    +0.044 A 
ATOM     28  C   UNL     1      -3.022  -9.290  10.189  0.00  0.00    +0.180 A 
ATOM     29  O   UNL     1      -3.459  -9.333  10.887  0.00  0.00    -0.449 OA
ENDBRANCH  21  25
ENDBRANCH  14  18
BRANCH  10   9
ATOM      7  C   UNL     1      -7.461  -9.552  16.663  0.00  0.00    +0.241 C 
ATOM      8  O   UNL     1      -6.876  -8.975  16.733  0.00  0.00    -0.273 OA
ATOM      9  N   UNL     1      -7.414 -10.117  16.062  0.00  0.00    -0.202 NA
BRANCH   7   6
ATOM      6  C   UNL     1      -8.094  -9.565  17.191  0.00  0.00    +0.087 C 
BRANCH   6   5
ATOM      5  C   UNL     1      -8.677  -8.982  17.151  0.00  0.00    +0.021 C 
BRANCH   5   4
ATOM      4  C   UNL     1      -9.329  -9.016  17.655  0.00  0.00    +0.115 C 
BRANCH   4   2
ATOM      1  O   UNL     1     -10.719  -8.873  17.353  0.00  0.00    -0.246 OA
ATOM      2  C   UNL     1      -9.984  -8.533  17.515  0.00  0.00    +0.365 C 
ATOM      3  O   UNL     1      -9.905  -7.713  17.535  0.00  0.00    -0.246 OA
ENDBRANCH   4   2
ENDBRANCH   5   4
ENDBRANCH   6   5
ENDBRANCH   7   6
ENDBRANCH  10   9
TORSDOF 7
ENDMDL
MODEL 5
REMARK VINA RESULT:      -5.5     17.382     18.045
REMARK  Name = 
REMARK  7 active torsions:
REMARK  status: ('A' for Active; 'I' for Inactive)
REMARK    1  A    between atoms: C_2  and  C_4
REMARK    2  A    between atoms: C_4  and  C_5
REMARK    3  A    between atoms: C_5  and  C_6
REMARK    4  A    between atoms: C_6  and  C_7
REMARK    5  A    between atoms: N_9  and  C_10
REMARK    6  A    between atoms: C_14  and  N_18
REMARK    7  A    between atoms: C_21  and  C_25
REMARK                            x       y       z     vdW  Elec       q    Type
REMARK                         _______ _______ _______ _____ _____    ______ ____
ROOT
ATOM     10  C   UNL     1      -4.305  -9.169  10.170  0.00  0.00    +0.154 C 
ATOM     11  C   UNL     1      -4.321  -9.127   9.347  0.00  0.00    +0.166 C 
ATOM     12  O   UNL     1      -5.068  -8.862   9.119  0.00  0.00    -0.350 OA
ATOM     13  C   UNL     1      -5.515  -8.741   9.803  0.00  0.00    +0.166 C 
ATOM     14  C   UNL     1      -6.253  -8.503  10.084  0.00  0.00    +0.154 C 
ATOM     15  C   UNL     1      -6.237  -8.546  10.908  0.00  0.00    +0.166 C 
ATOM     16  O   UNL     1      -5.489  -8.810  11.135  0.00  0.00    -0.350 OA
ATOM     17  C   UNL     1      -5.044  -8.931  10.452  0.00  0.00    +0.166 C 
ENDROOT
BRANCH  14  18
ATOM     18  N   UNL     1      -6.894  -8.264   9.623  0.00  0.00    -0.200 NA
ATOM     19  C   UNL     1      -7.647  -8.560   9.779  0.00  0.00    +0.237 A 
ATOM     20  N   UNL     1      -8.289  -8.321   9.319  0.00  0.00    -0.209 NA
ATOM     21  C   UNL     1      -9.042  -8.617   9.475  0.00  0.00    +0.120 A 
ATOM     22  C   UNL     1      -9.155  -9.153  10.092  0.00  0.00    +0.043 A 
ATOM     23  C   UNL     1      -8.515  -9.392  10.553  0.00  0.00    +0.104 A 
ATOM     24  N   UNL     1      -7.760  -9.096  10.397  0.00  0.00    -0.211 NA
BRANCH  21  25
ATOM     25  C   UNL     1      -9.684  -8.378   9.014  0.00  0.00    +0.163 A 
ATOM     26  C   UNL     1     -10.074  -8.838   8.450  0.00  0.00    +0.042 A 
ATOM     27  C   UNL     1     -10.679  -8.383   8.124  0.00  0.00    +0.044 A 
ATOM     28  C   UNL     1     -10.664  -7.641   8.485  0.00  0.00    +0.180 A 
ATOM     29  O   UNL     1     -10.049  -7.639   9.035  0.00  0.00    -0.449 OA
ENDBRANCH  21  25
ENDBRANCH  14  18
BRANCH  10   9
ATOM      7  C   UNL     1      -2.894  -9.259  10.376  0.00  0.00    +0.241 C 
ATOM      8  O   UNL     1      -2.765  -8.872   9.659  0.00  0.00    -0.273 OA
ATOM      9  N   UNL     1      -3.665  -9.408  10.632  0.00  0.00    -0.202 NA
BRANCH   7   6
ATOM      6  C   UNL     1      -2.254  -9.498  10.837  0.00  0.00    +0.087 C 
BRANCH   6   5
ATOM      5  C   UNL     1      -1.556  -9.056  10.835  0.00  0.00    +0.021 C 
BRANCH   5   4
ATOM      4  C   UNL     1      -0.950  -9.240  11.364  0.00  0.00    +0.115 C 
BRANCH   4   2
ATOM      1  O   UNL     1      -0.133  -8.218  11.938  0.00  0.00    -0.246 OA
ATOM      2  C   UNL     1      -0.254  -8.797  11.362  0.00  0.00    +0.365 C 
ATOM      3  O   UNL     1       0.321  -8.932  10.786  0.00  0.00    -0.246 OA
ENDBRANCH   4   2
ENDBRANCH   5   4
ENDBRANCH   6   5
ENDBRANCH   7   6
ENDBRANCH  10   9
TORSDOF 7
ENDMDL
MODEL 6
REMARK VINA RESULT:      -5.2     17.208     19.022
REMARK  Name = 
REMARK  7 active torsions:
REMARK  status: ('A' for Active; 'I' for Inactive)
REMARK    1  A    between atoms: C_2  and  C_4
REMARK    2  A    between atoms: C_4  and  C_5
REMARK    3  A    between atoms: C_5  and  C_6
REMARK    4  A    between atoms: C_6  and  C_7
REMARK    5  A    between atoms: N_9  and  C_10
REMARK    6  A    between atoms: C_14  and  N_18
REMARK    7  A    between atoms: C_21  and  C_25
REMARK                            x       y       z     vdW  Elec       q    Type
REMARK                         _______ _______ _______ _____ _____    ______ ____
ROOT
ATOM     10  C   UNL     1      -6.146  -8.858   9.529  0.00  0.00    +0.154 C 
ATOM     11  C   UNL     1      -5.943  -8.069   9.656  0.00  0.00    +0.166 C 
ATOM     12  O   UNL     1      -5.124  -8.026   9.739  0.00  0.00    -0.350 OA
ATOM     13  C   UNL     1      -4.820  -8.790   9.664  0.00  0.00    +0.166 C 
ATOM     14  C   UNL     1      -4.125  -9.235   9.669  0.00  0.00    +0.154 C 
ATOM     15  C   UNL     1      -4.329 -10.025   9.542  0.00  0.00    +0.166 C 
ATOM     16  O   UNL     1      -5.148 -10.067   9.459  0.00  0.00    -0.350 OA
ATOM     17  C   UNL     1      -5.452  -9.304   9.534  0.00  0.00    +0.166 C 
ENDROOT
BRANCH  14  18
ATOM     18  N   UNL     1      -3.362  -8.943   9.781  0.00  0.00    -0.200 NA
ATOM     19  C   UNL     1      -2.873  -9.277  10.355  0.00  0.00    +0.237 A 
ATOM     20  N   UNL     1      -2.109  -8.985  10.467  0.00  0.00    -0.209 NA
ATOM     21  C   UNL     1      -1.620  -9.319  11.041  0.00  0.00    +0.120 A 
ATOM     22  C   UNL     1      -1.894  -9.945  11.502  0.00  0.00    +0.043 A 
ATOM     23  C   UNL     1      -2.657 -10.238  11.391  0.00  0.00    +0.104 A 
ATOM     24  N   UNL     1      -3.147  -9.904  10.816  0.00  0.00    -0.211 NA
BRANCH  21  25
ATOM     25  C   UNL     1      -0.857  -9.027  11.153  0.00  0.00    +0.163 A 
ATOM     26  C   UNL     1      -0.615  -8.526  11.763  0.00  0.00    +0.042 A 
ATOM     27  C   UNL     1       0.190  -8.374  11.663  0.00  0.00    +0.044 A 
ATOM     28  C   UNL     1       0.446  -8.780  10.993  0.00  0.00    +0.180 A 
ATOM     29  O   UNL     1      -0.201  -9.184  10.678  0.00  0.00    -0.449 OA
ENDBRANCH  21  25
ENDBRANCH  14  18
BRANCH  10   9
ATOM      7  C   UNL     1      -7.517  -8.641   9.187  0.00  0.00    +0.241 C 
ATOM      8  O   UNL     1      -7.361  -7.840   9.070  0.00  0.00    -0.273 OA
ATOM      9  N   UNL     1      -6.909  -9.151   9.416  0.00  0.00    -0.202 NA
BRANCH   7   6
ATOM      6  C   UNL     1      -8.279  -8.934   9.074  0.00  0.00    +0.087 C 
BRANCH   6   5
ATOM      5  C   UNL     1      -8.932  -8.485   9.306  0.00  0.00    +0.021 C 
BRANCH   5   4
ATOM      4  C   UNL     1      -9.695  -8.767   9.171  0.00  0.00    +0.115 C 
BRANCH   4   2
ATOM      1  O   UNL     1     -10.651  -7.710   9.273  0.00  0.00    -0.246 OA
ATOM      2  C   UNL     1     -10.337  -8.418   9.556  0.00  0.00    +0.365 C 
ATOM      3  O   UNL     1     -10.664  -8.778  10.222  0.00  0.00    -0.246 OA
ENDBRANCH   4   2
ENDBRANCH   5   4
ENDBRANCH   6   5
ENDBRANCH   7   6
ENDBRANCH  10   9
TORSDOF 7
ENDMDL
