REMARK  Name = 
REMARK  6 active torsions:
REMARK  status: ('A' for Active; 'I' for Inactive)
REMARK    1  A    between atoms: O_2  and  C_3
REMARK    2  A    between atoms: C_4  and  C_9
REMARK    3  A    between atoms: N_14  and  C_15
REMARK    4  A    between atoms: C_19  and  N_23
REMARK    5  A    between atoms: N_26  and  C_27
REMARK    6  A    between atoms: C_27  and  C_28
REMARK                            x       y       z     vdW  Elec       q    Type
REMARK                         _______ _______ _______ _____ _____    ______ ____
ROOT
ATOM      9  C   UNL     1      -3.790   4.215   0.000  0.00  0.00    +0.089 A 
ATOM     10  C   UNL     1      -3.076   4.628   0.000  0.00  0.00    +0.040 A 
ATOM     11  C   UNL     1      -2.361   4.215   0.000  0.00  0.00    +0.103 A 
ATOM     12  N   UNL     1      -2.361   3.390   0.000  0.00  0.00    -0.211 NA
ATOM     13  C   UNL     1      -3.076   2.978   0.000  0.00  0.00    +0.237 A 
ATOM     14  N   UNL     1      -3.076   2.153   0.000  0.00  0.00    -0.200 NA
ATOM     30  N   UNL     1      -3.790   3.390   0.000  0.00  0.00    -0.212 NA
ENDROOT
BRANCH  14  15
ATOM     15  C   UNL     1      -2.361   1.740   0.000  0.00  0.00    +0.154 C 
ATOM     16  C   UNL     1      -1.608   2.076   0.000  0.00  0.00    +0.166 C 
ATOM     17  O   UNL     1      -1.056   1.462   0.000  0.00  0.00    -0.350 OA
ATOM     18  C   UNL     1      -1.468   0.748   0.000  0.00  0.00    +0.166 C 
ATOM     19  C   UNL     1      -1.382  -0.072   0.000  0.00  0.00    +0.156 C 
ATOM     20  C   UNL     1      -2.136  -0.408   0.000  0.00  0.00    +0.166 C 
ATOM     21  O   UNL     1      -2.688   0.205   0.000  0.00  0.00    -0.350 OA
ATOM     22  C   UNL     1      -2.275   0.920   0.000  0.00  0.00    +0.166 C 
BRANCH  19  23
ATOM     23  N   UNL     1      -0.667  -0.485   0.000  0.00  0.00    -0.184 NA
ATOM     24  C   UNL     1       0.047  -0.072   0.000  0.00  0.00    +0.340 C 
ATOM     25  O   UNL     1       0.047   0.753   0.000  0.00  0.00    -0.249 OA
ATOM     26  N   UNL     1       0.761  -0.485   0.000  0.00  0.00    -0.182 NA
BRANCH  26  27
ATOM     27  C   UNL     1       1.476  -0.072   0.000  0.00  0.00    +0.143 C 
BRANCH  27  28
ATOM     28  C   UNL     1       2.190  -0.485   0.000  0.00  0.00    -0.003 C 
ATOM     29  C   UNL     1       2.905  -0.072   0.000  0.00  0.00    -0.003 C 
ENDBRANCH  27  28
ENDBRANCH  26  27
ENDBRANCH  19  23
ENDBRANCH  14  15
BRANCH   9   4
ATOM      3  C   UNL     1      -4.505   5.453   0.000  0.00  0.00    +0.140 A 
ATOM      4  C   UNL     1      -4.505   4.628   0.000  0.00  0.00    +0.052 A 
ATOM      5  C   UNL     1      -5.219   4.215   0.000  0.00  0.00    +0.005 A 
ATOM      6  C   UNL     1      -5.934   4.628   0.000  0.00  0.00    +0.000 A 
ATOM      7  C   UNL     1      -5.934   5.453   0.000  0.00  0.00    +0.003 A 
ATOM      8  C   UNL     1      -5.219   5.865   0.000  0.00  0.00    +0.037 A 
BRANCH   3   2
ATOM      1  C   UNL     1      -3.790   6.690   0.000  0.00  0.00    +0.252 C 
ATOM      2  O   UNL     1      -3.790   5.865   0.000  0.00  0.00    -0.471 OA
ENDBRANCH   3   2
ENDBRANCH   9   4
TORSDOF 6
