MODEL 1
REMARK VINA RESULT:      -8.4      0.000      0.000
REMARK  Name = 
REMARK  6 active torsions:
REMARK  status: ('A' for Active; 'I' for Inactive)
REMARK    1  A    between atoms: C_3  and  C_4
REMARK    2  A    between atoms: C_4  and  N_5
REMARK    3  A    between atoms: C_6  and  C_8
REMARK    4  A    between atoms: C_13  and  N_14
REMARK    5  A    between atoms: N_14  and  C_15
REMARK    6  A    between atoms: C_15  and  C_16
REMARK                            x       y       z     vdW  Elec       q    Type
REMARK                         _______ _______ _______ _____ _____    ______ ____
ROOT
ATOM      1  O   UNL     1      -3.807   1.866  24.215  0.00  0.00    -0.219 OA
ATOM      2  C   UNL     1      -3.130   1.502  24.517  0.00  0.00    +0.199 C 
ATOM      3  C   UNL     1      -3.016   0.689  24.605  0.00  0.00    +0.169 C 
ATOM     11  O   UNL     1      -2.265   0.572  24.927  0.00  0.00    -0.350 OA
ATOM     12  C   UNL     1      -1.917   1.311  25.039  0.00  0.00    +0.162 C 
ATOM     13  C   UNL     1      -2.452   1.886  24.785  0.00  0.00    +0.135 C 
ENDROOT
BRANCH   3   4
ATOM      4  C   UNL     1      -3.556   0.099  24.406  0.00  0.00    +0.147 C 
BRANCH   4   5
ATOM      5  N   UNL     1      -3.363  -0.694  24.527  0.00  0.00    -0.203 NA
ATOM      6  C   UNL     1      -3.912  -1.284  24.347  0.00  0.00    +0.241 C 
ATOM      7  O   UNL     1      -4.652  -1.080  24.045  0.00  0.00    -0.273 OA
BRANCH   6   8
ATOM      8  C   UNL     1      -3.719  -2.077  24.468  0.00  0.00    +0.078 C 
ATOM      9  C   UNL     1      -3.658  -2.849  24.184  0.00  0.00    +0.010 C 
ATOM     10  C   UNL     1      -3.447  -2.678  24.963  0.00  0.00    +0.010 C 
ENDBRANCH   6   8
ENDBRANCH   4   5
ENDBRANCH   3   4
BRANCH  13  14
ATOM     14  N   UNL     1      -2.329   2.702  24.798  0.00  0.00    -0.209 NA
BRANCH  14  15
ATOM     15  C   UNL     1      -1.708   3.019  25.240  0.00  0.00    +0.122 C 
BRANCH  15  16
ATOM     16  C   UNL     1      -1.534   3.824  25.187  0.00  0.00    +0.025 A 
ATOM     17  C   UNL     1      -2.023   4.441  25.434  0.00  0.00    +0.004 A 
ATOM     18  C   UNL     1      -1.632   5.152  25.278  0.00  0.00    +0.007 A 
ATOM     19  C   UNL     1      -0.904   4.973  24.936  0.00  0.00    +0.035 A 
ATOM     20  S   UNL     1      -0.843   4.151  24.879  0.00  0.00    -0.089 S 
ENDBRANCH  15  16
ENDBRANCH  14  15
ENDBRANCH  13  14
TORSDOF 6
ENDMDL
MODEL 2
REMARK VINA RESULT:      -8.4      1.816      5.403
REMARK  Name = 
REMARK  6 active torsions:
REMARK  status: ('A' for Active; 'I' for Inactive)
REMARK    1  A    between atoms: C_3  and  C_4
REMARK    2  A    between atoms: C_4  and  N_5
REMARK    3  A    between atoms: C_6  and  C_8
REMARK    4  A    between atoms: C_13  and  N_14
REMARK    5  A    between atoms: N_14  and  C_15
REMARK    6  A    between atoms: C_15  and  C_16
REMARK                            x       y       z     vdW  Elec       q    Type
REMARK                         _______ _______ _______ _____ _____    ______ ____
ROOT
ATOM      1  O   UNL     1      -1.159   0.464  24.817  0.00  0.00    -0.219 OA
ATOM      2  C   UNL     1      -1.891   0.846  24.851  0.00  0.00    +0.199 C 
ATOM      3  C   UNL     1      -2.010   1.652  24.984  0.00  0.00    +0.169 C 
ATOM     11  O   UNL     1      -2.823   1.793  24.974  0.00  0.00    -0.350 OA
ATOM     12  C   UNL     1      -3.205   1.075  24.834  0.00  0.00    +0.162 C 
ATOM     13  C   UNL     1      -2.628   0.490  24.759  0.00  0.00    +0.135 C 
ENDROOT
BRANCH   3   4
ATOM      4  C   UNL     1      -1.422   2.216  25.106  0.00  0.00    +0.147 C 
BRANCH   4   5
ATOM      5  N   UNL     1      -1.598   3.019  25.032  0.00  0.00    -0.203 NA
ATOM      6  C   UNL     1      -1.029   3.586  25.223  0.00  0.00    +0.241 C 
ATOM      7  O   UNL     1      -0.284   3.349  25.487  0.00  0.00    -0.273 OA
BRANCH   6   8
ATOM      8  C   UNL     1      -1.205   4.388  25.149  0.00  0.00    +0.078 C 
ATOM      9  C   UNL     1      -1.726   5.018  25.260  0.00  0.00    +0.010 C 
ATOM     10  C   UNL     1      -0.989   5.148  24.911  0.00  0.00    +0.010 C 
ENDBRANCH   6   8
ENDBRANCH   4   5
ENDBRANCH   3   4
BRANCH  13  14
ATOM     14  N   UNL     1      -2.766  -0.311  24.616  0.00  0.00    -0.209 NA
BRANCH  14  15
ATOM     15  C   UNL     1      -3.516  -0.630  24.747  0.00  0.00    +0.122 C 
BRANCH  15  16
ATOM     16  C   UNL     1      -3.673  -1.412  24.535  0.00  0.00    +0.025 A 
ATOM     17  C   UNL     1      -4.138  -1.657  23.898  0.00  0.00    +0.004 A 
ATOM     18  C   UNL     1      -4.145  -2.482  23.892  0.00  0.00    +0.007 A 
ATOM     19  C   UNL     1      -3.686  -2.746  24.523  0.00  0.00    +0.035 A 
ATOM     20  S   UNL     1      -3.394  -2.085  24.921  0.00  0.00    -0.089 S 
ENDBRANCH  15  16
ENDBRANCH  14  15
ENDBRANCH  13  14
TORSDOF 6
ENDMDL
MODEL 3
REMARK VINA RESULT:      -8.4      1.762      5.297
REMARK  Name = 
REMARK  6 active torsions:
REMARK  status: ('A' for Active; 'I' for Inactive)
REMARK    1  A    between atoms: C_3  and  C_4
REMARK    2  A    between atoms: C_4  and  N_5
REMARK    3  A    between atoms: C_6  and  C_8
REMARK    4  A    between atoms: C_13  and  N_14
REMARK    5  A    between atoms: N_14  and  C_15
REMARK    6  A    between atoms: C_15  and  C_16
REMARK                            x       y       z     vdW  Elec       q    Type
REMARK                         _______ _______ _______ _____ _____    ______ ____
ROOT
ATOM      1  O   UNL     1      -4.168   1.449  25.158  0.00  0.00    -0.219 OA
ATOM      2  C   UNL     1      -3.401   1.360  24.864  0.00  0.00    +0.199 C 
ATOM      3  C   UNL     1      -2.828   1.952  24.821  0.00  0.00    +0.169 C 
ATOM     11  O   UNL     1      -2.147   1.622  24.493  0.00  0.00    -0.350 OA
ATOM     12  C   UNL     1      -2.299   0.827  24.333  0.00  0.00    +0.162 C 
ATOM     13  C   UNL     1      -3.075   0.666  24.563  0.00  0.00    +0.135 C 
ENDROOT
BRANCH   3   4
ATOM      4  C   UNL     1      -2.919   2.735  25.063  0.00  0.00    +0.147 C 
BRANCH   4   5
ATOM      5  N   UNL     1      -2.309   3.277  24.946  0.00  0.00    -0.203 NA
ATOM      6  C   UNL     1      -2.350   4.026  25.290  0.00  0.00    +0.241 C 
ATOM      7  O   UNL     1      -3.002   4.232  25.751  0.00  0.00    -0.273 OA
BRANCH   6   8
ATOM      8  C   UNL     1      -1.739   4.568  25.173  0.00  0.00    +0.078 C 
ATOM      9  C   UNL     1      -0.941   4.727  25.039  0.00  0.00    +0.010 C 
ATOM     10  C   UNL     1      -1.480   5.348  25.103  0.00  0.00    +0.010 C 
ENDBRANCH   6   8
ENDBRANCH   4   5
ENDBRANCH   3   4
BRANCH  13  14
ATOM     14  N   UNL     1      -3.457  -0.063  24.502  0.00  0.00    -0.209 NA
BRANCH  14  15
ATOM     15  C   UNL     1      -3.024  -0.742  24.318  0.00  0.00    +0.122 C 
BRANCH  15  16
ATOM     16  C   UNL     1      -3.400  -1.475  24.289  0.00  0.00    +0.025 A 
ATOM     17  C   UNL     1      -4.054  -1.665  23.823  0.00  0.00    +0.004 A 
ATOM     18  C   UNL     1      -4.248  -2.455  23.967  0.00  0.00    +0.007 A 
ATOM     19  C   UNL     1      -3.714  -2.751  24.520  0.00  0.00    +0.035 A 
ATOM     20  S   UNL     1      -3.189  -2.146  24.720  0.00  0.00    -0.089 S 
ENDBRANCH  15  16
ENDBRANCH  14  15
ENDBRANCH  13  14
TORSDOF 6
ENDMDL
MODEL 4
REMARK VINA RESULT:      -6.9      2.648      3.745
REMARK  Name = 
REMARK  6 active torsions:
REMARK  status: ('A' for Active; 'I' for Inactive)
REMARK    1  A    between atoms: C_3  and  C_4
REMARK    2  A    between atoms: C_4  and  N_5
REMARK    3  A    between atoms: C_6  and  C_8
REMARK    4  A    between atoms: C_13  and  N_14
REMARK    5  A    between atoms: N_14  and  C_15
REMARK    6  A    between atoms: C_15  and  C_16
REMARK                            x       y       z     vdW  Elec       q    Type
REMARK                         _______ _______ _______ _____ _____    ______ ____
ROOT
ATOM      1  O   UNL     1      -2.182   0.399  25.321  0.00  0.00    -0.219 OA
ATOM      2  C   UNL     1      -2.089   0.888  24.662  0.00  0.00    +0.199 C 
ATOM      3  C   UNL     1      -1.476   0.845  24.110  0.00  0.00    +0.169 C 
ATOM     11  O   UNL     1      -1.600   1.436  23.547  0.00  0.00    -0.350 OA
ATOM     12  C   UNL     1      -2.288   1.843  23.751  0.00  0.00    +0.162 C 
ATOM     13  C   UNL     1      -2.589   1.505  24.440  0.00  0.00    +0.135 C 
ENDROOT
BRANCH   3   4
ATOM      4  C   UNL     1      -0.852   0.307  24.119  0.00  0.00    +0.147 C 
BRANCH   4   5
ATOM      5  N   UNL     1      -0.215   0.405  23.604  0.00  0.00    -0.203 NA
ATOM      6  C   UNL     1       0.361  -0.183  23.543  0.00  0.00    +0.241 C 
ATOM      7  O   UNL     1       0.299  -0.869  23.998  0.00  0.00    -0.273 OA
BRANCH   6   8
ATOM      8  C   UNL     1       0.998  -0.085  23.028  0.00  0.00    +0.078 C 
ATOM      9  C   UNL     1       1.360  -0.236  22.303  0.00  0.00    +0.010 C 
ATOM     10  C   UNL     1       1.739   0.238  22.862  0.00  0.00    +0.010 C 
ENDBRANCH   6   8
ENDBRANCH   4   5
ENDBRANCH   3   4
BRANCH  13  14
ATOM     14  N   UNL     1      -3.272   1.742  24.838  0.00  0.00    -0.209 NA
BRANCH  14  15
ATOM     15  C   UNL     1      -3.800   2.264  24.477  0.00  0.00    +0.122 C 
BRANCH  15  16
ATOM     16  C   UNL     1      -4.494   2.483  24.866  0.00  0.00    +0.025 A 
ATOM     17  C   UNL     1      -5.210   2.073  24.845  0.00  0.00    +0.004 A 
ATOM     18  C   UNL     1      -5.753   2.486  25.310  0.00  0.00    +0.007 A 
ATOM     19  C   UNL     1      -5.372   3.149  25.617  0.00  0.00    +0.035 A 
ATOM     20  S   UNL     1      -4.594   3.148  25.342  0.00  0.00    -0.089 S 
ENDBRANCH  15  16
ENDBRANCH  14  15
ENDBRANCH  13  14
TORSDOF 6
ENDMDL
MODEL 5
REMARK VINA RESULT:      -6.3      3.797      5.441
REMARK  Name = 
REMARK  6 active torsions:
REMARK  status: ('A' for Active; 'I' for Inactive)
REMARK    1  A    between atoms: C_3  and  C_4
REMARK    2  A    between atoms: C_4  and  N_5
REMARK    3  A    between atoms: C_6  and  C_8
REMARK    4  A    between atoms: C_13  and  N_14
REMARK    5  A    between atoms: N_14  and  C_15
REMARK    6  A    between atoms: C_15  and  C_16
REMARK                            x       y       z     vdW  Elec       q    Type
REMARK                         _______ _______ _______ _____ _____    ______ ____
ROOT
ATOM      1  O   UNL     1      -0.122  -1.216  23.535  0.00  0.00    -0.219 OA
ATOM      2  C   UNL     1      -0.098  -0.416  23.739  0.00  0.00    +0.199 C 
ATOM      3  C   UNL     1       0.447   0.138  23.462  0.00  0.00    +0.169 C 
ATOM     11  O   UNL     1       0.267   0.865  23.807  0.00  0.00    -0.350 OA
ATOM     12  C   UNL     1      -0.390   0.761  24.295  0.00  0.00    +0.162 C 
ATOM     13  C   UNL     1      -0.615  -0.031  24.253  0.00  0.00    +0.135 C 
ENDROOT
BRANCH   3   4
ATOM      4  C   UNL     1       1.064  -0.010  22.935  0.00  0.00    +0.147 C 
BRANCH   4   5
ATOM      5  N   UNL     1       1.814   0.302  23.080  0.00  0.00    -0.203 NA
ATOM      6  C   UNL     1       2.411   0.222  22.515  0.00  0.00    +0.241 C 
ATOM      7  O   UNL     1       2.256  -0.169  21.806  0.00  0.00    -0.273 OA
BRANCH   6   8
ATOM      8  C   UNL     1       3.161   0.534  22.661  0.00  0.00    +0.078 C 
ATOM      9  C   UNL     1       3.969   0.424  22.777  0.00  0.00    +0.010 C 
ATOM     10  C   UNL     1       3.650   1.184  22.795  0.00  0.00    +0.010 C 
ENDBRANCH   6   8
ENDBRANCH   4   5
ENDBRANCH   3   4
BRANCH  13  14
ATOM     14  N   UNL     1      -1.247  -0.378  24.655  0.00  0.00    -0.209 NA
BRANCH  14  15
ATOM     15  C   UNL     1      -1.886   0.085  24.897  0.00  0.00    +0.122 C 
BRANCH  15  16
ATOM     16  C   UNL     1      -2.578  -0.275  25.165  0.00  0.00    +0.025 A 
ATOM     17  C   UNL     1      -2.626  -0.858  25.747  0.00  0.00    +0.004 A 
ATOM     18  C   UNL     1      -3.421  -1.059  25.840  0.00  0.00    +0.007 A 
ATOM     19  C   UNL     1      -3.863  -0.602  25.316  0.00  0.00    +0.035 A 
ATOM     20  S   UNL     1      -3.342  -0.117  24.898  0.00  0.00    -0.089 S 
ENDBRANCH  15  16
ENDBRANCH  14  15
ENDBRANCH  13  14
TORSDOF 6
ENDMDL
MODEL 6
REMARK VINA RESULT:      -6.2      2.882      3.885
REMARK  Name = 
REMARK  6 active torsions:
REMARK  status: ('A' for Active; 'I' for Inactive)
REMARK    1  A    between atoms: C_3  and  C_4
REMARK    2  A    between atoms: C_4  and  N_5
REMARK    3  A    between atoms: C_6  and  C_8
REMARK    4  A    between atoms: C_13  and  N_14
REMARK    5  A    between atoms: N_14  and  C_15
REMARK    6  A    between atoms: C_15  and  C_16
REMARK                            x       y       z     vdW  Elec       q    Type
REMARK                         _______ _______ _______ _____ _____    ______ ____
ROOT
ATOM      1  O   UNL     1      -2.273   1.954  22.977  0.00  0.00    -0.219 OA
ATOM      2  C   UNL     1      -2.171   1.715  23.761  0.00  0.00    +0.199 C 
ATOM      3  C   UNL     1      -2.694   1.859  24.383  0.00  0.00    +0.169 C 
ATOM     11  O   UNL     1      -2.374   1.523  25.066  0.00  0.00    -0.350 OA
ATOM     12  C   UNL     1      -1.655   1.173  24.866  0.00  0.00    +0.162 C 
ATOM     13  C   UNL     1      -1.530   1.292  24.059  0.00  0.00    +0.135 C 
ENDROOT
BRANCH   3   4
ATOM      4  C   UNL     1      -3.409   2.265  24.332  0.00  0.00    +0.147 C 
BRANCH   4   5
ATOM      5  N   UNL     1      -4.026   2.082  24.848  0.00  0.00    -0.203 NA
ATOM      6  C   UNL     1      -4.724   2.522  24.830  0.00  0.00    +0.241 C 
ATOM      7  O   UNL     1      -4.804   3.146  24.297  0.00  0.00    -0.273 OA
BRANCH   6   8
ATOM      8  C   UNL     1      -5.341   2.339  25.347  0.00  0.00    +0.078 C 
ATOM      9  C   UNL     1      -5.935   1.824  25.595  0.00  0.00    +0.010 C 
ATOM     10  C   UNL     1      -5.814   2.537  25.992  0.00  0.00    +0.010 C 
ENDBRANCH   6   8
ENDBRANCH   4   5
ENDBRANCH   3   4
BRANCH  13  14
ATOM     14  N   UNL     1      -0.876   1.032  23.627  0.00  0.00    -0.209 NA
BRANCH  14  15
ATOM     15  C   UNL     1      -0.245   0.665  24.012  0.00  0.00    +0.122 C 
BRANCH  15  16
ATOM     16  C   UNL     1       0.412   0.415  23.581  0.00  0.00    +0.025 A 
ATOM     17  C   UNL     1       1.101   0.850  23.453  0.00  0.00    +0.004 A 
ATOM     18  C   UNL     1       1.611   0.390  22.994  0.00  0.00    +0.007 A 
ATOM     19  C   UNL     1       1.236  -0.327  22.839  0.00  0.00    +0.035 A 
ATOM     20  S   UNL     1       0.494  -0.313  23.202  0.00  0.00    -0.089 S 
ENDBRANCH  15  16
ENDBRANCH  14  15
ENDBRANCH  13  14
TORSDOF 6
ENDMDL
MODEL 7
REMARK VINA RESULT:      -6.1      2.370      2.845
REMARK  Name = 
REMARK  6 active torsions:
REMARK  status: ('A' for Active; 'I' for Inactive)
REMARK    1  A    between atoms: C_3  and  C_4
REMARK    2  A    between atoms: C_4  and  N_5
REMARK    3  A    between atoms: C_6  and  C_8
REMARK    4  A    between atoms: C_13  and  N_14
REMARK    5  A    between atoms: N_14  and  C_15
REMARK    6  A    between atoms: C_15  and  C_16
REMARK                            x       y       z     vdW  Elec       q    Type
REMARK                         _______ _______ _______ _____ _____    ______ ____
ROOT
ATOM      1  O   UNL     1      -2.086   1.511  25.486  0.00  0.00    -0.219 OA
ATOM      2  C   UNL     1      -2.396   1.361  24.736  0.00  0.00    +0.199 C 
ATOM      3  C   UNL     1      -2.113   0.802  24.198  0.00  0.00    +0.169 C 
ATOM     11  O   UNL     1      -2.584   0.839  23.522  0.00  0.00    -0.350 OA
ATOM     12  C   UNL     1      -3.158   1.420  23.642  0.00  0.00    +0.162 C 
ATOM     13  C   UNL     1      -3.041   1.741  24.393  0.00  0.00    +0.135 C 
ENDROOT
BRANCH   3   4
ATOM      4  C   UNL     1      -1.472   0.297  24.315  0.00  0.00    +0.147 C 
BRANCH   4   5
ATOM      5  N   UNL     1      -1.600  -0.504  24.467  0.00  0.00    -0.203 NA
ATOM      6  C   UNL     1      -0.964  -1.030  24.474  0.00  0.00    +0.241 C 
ATOM      7  O   UNL     1      -0.201  -0.755  24.329  0.00  0.00    -0.273 OA
BRANCH   6   8
ATOM      8  C   UNL     1      -1.093  -1.831  24.627  0.00  0.00    +0.078 C 
ATOM      9  C   UNL     1      -1.456  -2.545  24.433  0.00  0.00    +0.010 C 
ATOM     10  C   UNL     1      -0.952  -2.502  25.084  0.00  0.00    +0.010 C 
ENDBRANCH   6   8
ENDBRANCH   4   5
ENDBRANCH   3   4
BRANCH  13  14
ATOM     14  N   UNL     1      -3.491   2.340  24.739  0.00  0.00    -0.209 NA
BRANCH  14  15
ATOM     15  C   UNL     1      -4.267   2.470  24.489  0.00  0.00    +0.122 C 
BRANCH  15  16
ATOM     16  C   UNL     1      -4.781   2.916  24.956  0.00  0.00    +0.025 A 
ATOM     17  C   UNL     1      -4.710   3.721  25.120  0.00  0.00    +0.004 A 
ATOM     18  C   UNL     1      -5.341   3.938  25.606  0.00  0.00    +0.007 A 
ATOM     19  C   UNL     1      -5.801   3.267  25.742  0.00  0.00    +0.035 A 
ATOM     20  S   UNL     1      -5.455   2.634  25.340  0.00  0.00    -0.089 S 
ENDBRANCH  15  16
ENDBRANCH  14  15
ENDBRANCH  13  14
TORSDOF 6
ENDMDL
MODEL 8
REMARK VINA RESULT:      -6.0      2.247      5.014
REMARK  Name = 
REMARK  6 active torsions:
REMARK  status: ('A' for Active; 'I' for Inactive)
REMARK    1  A    between atoms: C_3  and  C_4
REMARK    2  A    between atoms: C_4  and  N_5
REMARK    3  A    between atoms: C_6  and  C_8
REMARK    4  A    between atoms: C_13  and  N_14
REMARK    5  A    between atoms: N_14  and  C_15
REMARK    6  A    between atoms: C_15  and  C_16
REMARK                            x       y       z     vdW  Elec       q    Type
REMARK                         _______ _______ _______ _____ _____    ______ ____
ROOT
ATOM      1  O   UNL     1      -3.517   0.717  23.569  0.00  0.00    -0.219 OA
ATOM      2  C   UNL     1      -2.985   0.837  24.189  0.00  0.00    +0.199 C 
ATOM      3  C   UNL     1      -2.827   1.558  24.558  0.00  0.00    +0.169 C 
ATOM     11  O   UNL     1      -2.262   1.424  25.145  0.00  0.00    -0.350 OA
ATOM     12  C   UNL     1      -2.072   0.622  25.138  0.00  0.00    +0.162 C 
ATOM     13  C   UNL     1      -2.519   0.259  24.547  0.00  0.00    +0.135 C 
ENDROOT
BRANCH   3   4
ATOM      4  C   UNL     1      -3.172   2.283  24.374  0.00  0.00    +0.147 C 
BRANCH   4   5
ATOM      5  N   UNL     1      -3.728   2.617  24.884  0.00  0.00    -0.203 NA
ATOM      6  C   UNL     1      -4.058   3.354  24.710  0.00  0.00    +0.241 C 
ATOM      7  O   UNL     1      -3.832   3.755  24.026  0.00  0.00    -0.273 OA
BRANCH   6   8
ATOM      8  C   UNL     1      -4.613   3.688  25.221  0.00  0.00    +0.078 C 
ATOM      9  C   UNL     1      -4.790   4.107  25.908  0.00  0.00    +0.010 C 
ATOM     10  C   UNL     1      -5.399   3.846  25.416  0.00  0.00    +0.010 C 
ENDBRANCH   6   8
ENDBRANCH   4   5
ENDBRANCH   3   4
BRANCH  13  14
ATOM     14  N   UNL     1      -2.501  -0.542  24.348  0.00  0.00    -0.209 NA
BRANCH  14  15
ATOM     15  C   UNL     1      -2.472  -1.113  24.943  0.00  0.00    +0.122 C 
BRANCH  15  16
ATOM     16  C   UNL     1      -2.652  -1.899  24.768  0.00  0.00    +0.025 A 
ATOM     17  C   UNL     1      -2.157  -2.434  24.381  0.00  0.00    +0.004 A 
ATOM     18  C   UNL     1      -2.557  -3.154  24.323  0.00  0.00    +0.007 A 
ATOM     19  C   UNL     1      -3.297  -3.063  24.673  0.00  0.00    +0.035 A 
ATOM     20  S   UNL     1      -3.357  -2.287  24.949  0.00  0.00    -0.089 S 
ENDBRANCH  15  16
ENDBRANCH  14  15
ENDBRANCH  13  14
TORSDOF 6
ENDMDL
MODEL 9
REMARK VINA RESULT:      -5.7      3.218      3.910
REMARK  Name = 
REMARK  6 active torsions:
REMARK  status: ('A' for Active; 'I' for Inactive)
REMARK    1  A    between atoms: C_3  and  C_4
REMARK    2  A    between atoms: C_4  and  N_5
REMARK    3  A    between atoms: C_6  and  C_8
REMARK    4  A    between atoms: C_13  and  N_14
REMARK    5  A    between atoms: N_14  and  C_15
REMARK    6  A    between atoms: C_15  and  C_16
REMARK                            x       y       z     vdW  Elec       q    Type
REMARK                         _______ _______ _______ _____ _____    ______ ____
ROOT
ATOM      1  O   UNL     1      -0.155  -1.291  24.655  0.00  0.00    -0.219 OA
ATOM      2  C   UNL     1      -0.473  -0.588  24.361  0.00  0.00    +0.199 C 
ATOM      3  C   UNL     1      -1.252  -0.332  24.454  0.00  0.00    +0.169 C 
ATOM     11  O   UNL     1      -1.327   0.397  24.074  0.00  0.00    -0.350 OA
ATOM     12  C   UNL     1      -0.595   0.591  23.747  0.00  0.00    +0.162 C 
ATOM     13  C   UNL     1      -0.068  -0.018  23.925  0.00  0.00    +0.135 C 
ENDROOT
BRANCH   3   4
ATOM      4  C   UNL     1      -1.849  -0.733  24.856  0.00  0.00    +0.147 C 
BRANCH   4   5
ATOM      5  N   UNL     1      -2.458  -1.097  24.434  0.00  0.00    -0.203 NA
ATOM      6  C   UNL     1      -3.105  -1.416  24.835  0.00  0.00    +0.241 C 
ATOM      7  O   UNL     1      -3.143  -1.371  25.658  0.00  0.00    -0.273 OA
BRANCH   6   8
ATOM      8  C   UNL     1      -3.714  -1.780  24.413  0.00  0.00    +0.078 C 
ATOM      9  C   UNL     1      -4.097  -2.464  24.159  0.00  0.00    +0.010 C 
ATOM     10  C   UNL     1      -4.384  -1.724  23.936  0.00  0.00    +0.010 C 
ENDBRANCH   6   8
ENDBRANCH   4   5
ENDBRANCH   3   4
BRANCH  13  14
ATOM     14  N   UNL     1       0.727  -0.050  23.703  0.00  0.00    -0.209 NA
BRANCH  14  15
ATOM     15  C   UNL     1       0.998   0.404  23.070  0.00  0.00    +0.122 C 
BRANCH  15  16
ATOM     16  C   UNL     1       1.781   0.337  22.820  0.00  0.00    +0.025 A 
ATOM     17  C   UNL     1       2.051  -0.131  22.197  0.00  0.00    +0.004 A 
ATOM     18  C   UNL     1       2.869  -0.032  22.141  0.00  0.00    +0.007 A 
ATOM     19  C   UNL     1       3.103   0.496  22.728  0.00  0.00    +0.035 A 
ATOM     20  S   UNL     1       2.430   0.725  23.149  0.00  0.00    -0.089 S 
ENDBRANCH  15  16
ENDBRANCH  14  15
ENDBRANCH  13  14
TORSDOF 6
ENDMDL
MODEL 10
REMARK VINA RESULT:      -5.2     14.762     16.528
REMARK  Name = 
REMARK  6 active torsions:
REMARK  status: ('A' for Active; 'I' for Inactive)
REMARK    1  A    between atoms: C_3  and  C_4
REMARK    2  A    between atoms: C_4  and  N_5
REMARK    3  A    between atoms: C_6  and  C_8
REMARK    4  A    between atoms: C_13  and  N_14
REMARK    5  A    between atoms: N_14  and  C_15
REMARK    6  A    between atoms: C_15  and  C_16
REMARK                            x       y       z     vdW  Elec       q    Type
REMARK                         _______ _______ _______ _____ _____    ______ ____
ROOT
ATOM      1  O   UNL     1      -2.891 -10.756  14.256  0.00  0.00    -0.219 OA
ATOM      2  C   UNL     1      -3.660 -10.637  13.979  0.00  0.00    +0.199 C 
ATOM      3  C   UNL     1      -3.877 -10.516  13.191  0.00  0.00    +0.169 C 
ATOM     11  O   UNL     1      -4.697 -10.422  13.166  0.00  0.00    -0.350 OA
ATOM     12  C   UNL     1      -4.985 -10.484  13.937  0.00  0.00    +0.162 C 
ATOM     13  C   UNL     1      -4.343 -10.617  14.438  0.00  0.00    +0.135 C 
ENDROOT
BRANCH   3   4
ATOM      4  C   UNL     1      -3.366 -10.495  12.545  0.00  0.00    +0.147 C 
BRANCH   4   5
ATOM      5  N   UNL     1      -3.606 -10.134  11.842  0.00  0.00    -0.203 NA
ATOM      6  C   UNL     1      -3.089 -10.100  11.199  0.00  0.00    +0.241 C 
ATOM      7  O   UNL     1      -2.335 -10.427  11.259  0.00  0.00    -0.273 OA
BRANCH   6   8
ATOM      8  C   UNL     1      -3.329  -9.740  10.496  0.00  0.00    +0.078 C 
ATOM      9  C   UNL     1      -3.760  -9.761   9.794  0.00  0.00    +0.010 C 
ATOM     10  C   UNL     1      -3.311  -9.095   9.983  0.00  0.00    +0.010 C 
ENDBRANCH   6   8
ENDBRANCH   4   5
ENDBRANCH   3   4
BRANCH  13  14
ATOM     14  N   UNL     1      -4.380 -10.712  15.257  0.00  0.00    -0.209 NA
BRANCH  14  15
ATOM     15  C   UNL     1      -5.020 -10.407  15.680  0.00  0.00    +0.122 C 
BRANCH  15  16
ATOM     16  C   UNL     1      -5.075 -10.535  16.493  0.00  0.00    +0.025 A 
ATOM     17  C   UNL     1      -4.441 -10.611  17.016  0.00  0.00    +0.004 A 
ATOM     18  C   UNL     1      -4.748 -10.733  17.772  0.00  0.00    +0.007 A 
ATOM     19  C   UNL     1      -5.571 -10.734  17.716  0.00  0.00    +0.035 A 
ATOM     20  S   UNL     1      -5.774 -10.611  16.926  0.00  0.00    -0.089 S 
ENDBRANCH  15  16
ENDBRANCH  14  15
ENDBRANCH  13  14
TORSDOF 6
ENDMDL
