MODEL 1
REMARK VINA RESULT:      -8.8      0.000      0.000
REMARK  Name = 
REMARK  5 active torsions:
REMARK  status: ('A' for Active; 'I' for Inactive)
REMARK    1  A    between atoms: C_2  and  N_4
REMARK    2  A    between atoms: N_7  and  C_8
REMARK    3  A    between atoms: C_8  and  C_9
REMARK    4  A    between atoms: C_12  and  N_13
REMARK    5  A    between atoms: N_13  and  C_14
REMARK                            x       y       z     vdW  Elec       q    Type
REMARK                         _______ _______ _______ _____ _____    ______ ____
ROOT
ATOM      9  C   UNL     1      -3.283   1.352  24.508  0.00  0.00    +0.169 C 
ATOM     10  O   UNL     1      -2.722   0.825  24.209  0.00  0.00    -0.350 OA
ATOM     11  C   UNL     1      -3.045   0.067  24.236  0.00  0.00    +0.162 C 
ATOM     12  C   UNL     1      -3.805   0.125  24.552  0.00  0.00    +0.135 C 
ATOM     20  C   UNL     1      -3.952   0.919  24.720  0.00  0.00    +0.199 C 
ATOM     21  O   UNL     1      -4.646   1.226  25.044  0.00  0.00    -0.219 OA
ENDROOT
BRANCH   9   8
ATOM      8  C   UNL     1      -3.190   2.169  24.582  0.00  0.00    +0.149 C 
BRANCH   8   7
ATOM      4  N   UNL     1      -1.677   3.595  25.245  0.00  0.00    -0.189 NA
ATOM      5  C   UNL     1      -2.356   3.286  24.893  0.00  0.00    +0.339 C 
ATOM      6  O   UNL     1      -2.882   3.788  24.501  0.00  0.00    -0.249 OA
ATOM      7  N   UNL     1      -2.511   2.477  24.933  0.00  0.00    -0.185 NA
BRANCH   4   2
ATOM      1  C   UNL     1      -2.027   4.940  25.575  0.00  0.00    +0.023 C 
ATOM      2  C   UNL     1      -1.522   4.404  25.205  0.00  0.00    +0.097 C 
ATOM      3  C   UNL     1      -0.860   4.678  24.794  0.00  0.00    +0.023 C 
ENDBRANCH   4   2
ENDBRANCH   8   7
ENDBRANCH   9   8
BRANCH  12  13
ATOM     13  N   UNL     1      -4.326  -0.502  24.678  0.00  0.00    -0.216 NA
BRANCH  13  14
ATOM     14  C   UNL     1      -4.062  -1.281  24.603  0.00  0.00    +0.076 C 
ATOM     15  C   UNL     1      -3.650  -1.638  25.222  0.00  0.00    +0.036 C 
ATOM     16  C   UNL     1      -3.386  -2.416  25.147  0.00  0.00    +0.090 C 
ATOM     17  N   UNL     1      -3.532  -2.836  24.452  0.00  0.00    -0.218 NA
ATOM     18  C   UNL     1      -3.944  -2.478  23.833  0.00  0.00    +0.090 C 
ATOM     19  C   UNL     1      -4.208  -1.701  23.909  0.00  0.00    +0.036 C 
ENDBRANCH  13  14
ENDBRANCH  12  13
TORSDOF 5
ENDMDL
MODEL 2
REMARK VINA RESULT:      -8.4      1.213      5.416
REMARK  Name = 
REMARK  5 active torsions:
REMARK  status: ('A' for Active; 'I' for Inactive)
REMARK    1  A    between atoms: C_2  and  N_4
REMARK    2  A    between atoms: N_7  and  C_8
REMARK    3  A    between atoms: C_8  and  C_9
REMARK    4  A    between atoms: C_12  and  N_13
REMARK    5  A    between atoms: N_13  and  C_14
REMARK                            x       y       z     vdW  Elec       q    Type
REMARK                         _______ _______ _______ _____ _____    ______ ____
ROOT
ATOM      9  C   UNL     1      -2.119   1.088  24.895  0.00  0.00    +0.169 C 
ATOM     10  O   UNL     1      -2.645   1.669  24.637  0.00  0.00    -0.350 OA
ATOM     11  C   UNL     1      -2.378   2.397  24.917  0.00  0.00    +0.162 C 
ATOM     12  C   UNL     1      -1.686   2.266  25.348  0.00  0.00    +0.135 C 
ATOM     20  C   UNL     1      -1.526   1.456  25.334  0.00  0.00    +0.199 C 
ATOM     21  O   UNL     1      -0.886   1.083  25.697  0.00  0.00    -0.219 OA
ENDROOT
BRANCH   9   8
ATOM      8  C   UNL     1      -2.176   0.279  24.740  0.00  0.00    +0.149 C 
BRANCH   8   7
ATOM      4  N   UNL     1      -3.693  -1.289  24.700  0.00  0.00    -0.189 NA
ATOM      5  C   UNL     1      -2.970  -0.901  24.611  0.00  0.00    +0.339 C 
ATOM      6  O   UNL     1      -2.319  -1.306  24.305  0.00  0.00    -0.249 OA
ATOM      7  N   UNL     1      -2.898  -0.108  24.828  0.00  0.00    -0.185 NA
BRANCH   4   2
ATOM      1  C   UNL     1      -3.456  -2.673  24.968  0.00  0.00    +0.023 C 
ATOM      2  C   UNL     1      -3.765  -2.082  24.483  0.00  0.00    +0.097 C 
ATOM      3  C   UNL     1      -4.148  -2.283  23.780  0.00  0.00    +0.023 C 
ENDBRANCH   4   2
ENDBRANCH   8   7
ENDBRANCH   9   8
BRANCH  12  13
ATOM     13  N   UNL     1      -1.235   2.843  25.727  0.00  0.00    -0.216 NA
BRANCH  13  14
ATOM     14  C   UNL     1      -1.286   3.631  25.487  0.00  0.00    +0.076 C 
ATOM     15  C   UNL     1      -1.916   4.099  25.742  0.00  0.00    +0.036 C 
ATOM     16  C   UNL     1      -1.967   4.887  25.502  0.00  0.00    +0.090 C 
ATOM     17  N   UNL     1      -1.390   5.206  25.007  0.00  0.00    -0.218 NA
ATOM     18  C   UNL     1      -0.761   4.737  24.751  0.00  0.00    +0.090 C 
ATOM     19  C   UNL     1      -0.709   3.950  24.992  0.00  0.00    +0.036 C 
ENDBRANCH  13  14
ENDBRANCH  12  13
TORSDOF 5
ENDMDL
MODEL 3
REMARK VINA RESULT:      -8.2      1.008      5.162
REMARK  Name = 
REMARK  5 active torsions:
REMARK  status: ('A' for Active; 'I' for Inactive)
REMARK    1  A    between atoms: C_2  and  N_4
REMARK    2  A    between atoms: N_7  and  C_8
REMARK    3  A    between atoms: C_8  and  C_9
REMARK    4  A    between atoms: C_12  and  N_13
REMARK    5  A    between atoms: N_13  and  C_14
REMARK                            x       y       z     vdW  Elec       q    Type
REMARK                         _______ _______ _______ _____ _____    ______ ____
ROOT
ATOM      9  C   UNL     1      -3.546   1.204  24.166  0.00  0.00    +0.169 C 
ATOM     10  O   UNL     1      -2.746   1.371  24.046  0.00  0.00    -0.350 OA
ATOM     11  C   UNL     1      -2.643   2.186  24.118  0.00  0.00    +0.162 C 
ATOM     12  C   UNL     1      -3.378   2.523  24.282  0.00  0.00    +0.135 C 
ATOM     20  C   UNL     1      -3.936   1.916  24.312  0.00  0.00    +0.199 C 
ATOM     21  O   UNL     1      -4.742   2.006  24.462  0.00  0.00    -0.219 OA
ENDROOT
BRANCH   9   8
ATOM      8  C   UNL     1      -3.893   0.456  24.145  0.00  0.00    +0.149 C 
BRANCH   8   7
ATOM      4  N   UNL     1      -3.282  -1.638  24.204  0.00  0.00    -0.189 NA
ATOM      5  C   UNL     1      -3.755  -0.963  24.232  0.00  0.00    +0.339 C 
ATOM      6  O   UNL     1      -4.566  -1.033  24.375  0.00  0.00    -0.249 OA
ATOM      7  N   UNL     1      -3.420  -0.218  24.117  0.00  0.00    -0.185 NA
BRANCH   4   2
ATOM      1  C   UNL     1      -4.070  -2.729  23.723  0.00  0.00    +0.023 C 
ATOM      2  C   UNL     1      -3.617  -2.383  24.319  0.00  0.00    +0.097 C 
ATOM      3  C   UNL     1      -3.499  -2.783  25.032  0.00  0.00    +0.023 C 
ENDBRANCH   4   2
ENDBRANCH   8   7
ENDBRANCH   9   8
BRANCH  12  13
ATOM     13  N   UNL     1      -3.528   3.326  24.397  0.00  0.00    -0.216 NA
BRANCH  13  14
ATOM     14  C   UNL     1      -3.052   3.767  24.908  0.00  0.00    +0.076 C 
ATOM     15  C   UNL     1      -2.373   4.136  24.622  0.00  0.00    +0.036 C 
ATOM     16  C   UNL     1      -1.897   4.577  25.133  0.00  0.00    +0.090 C 
ATOM     17  N   UNL     1      -2.101   4.646  25.929  0.00  0.00    -0.218 NA
ATOM     18  C   UNL     1      -2.781   4.276  26.215  0.00  0.00    +0.090 C 
ATOM     19  C   UNL     1      -3.256   3.836  25.704  0.00  0.00    +0.036 C 
ENDBRANCH  13  14
ENDBRANCH  12  13
TORSDOF 5
ENDMDL
MODEL 4
REMARK VINA RESULT:      -7.2      2.145      4.538
REMARK  Name = 
REMARK  5 active torsions:
REMARK  status: ('A' for Active; 'I' for Inactive)
REMARK    1  A    between atoms: C_2  and  N_4
REMARK    2  A    between atoms: N_7  and  C_8
REMARK    3  A    between atoms: C_8  and  C_9
REMARK    4  A    between atoms: C_12  and  N_13
REMARK    5  A    between atoms: N_13  and  C_14
REMARK                            x       y       z     vdW  Elec       q    Type
REMARK                         _______ _______ _______ _____ _____    ______ ____
ROOT
ATOM      9  C   UNL     1      -2.407   1.401  24.485  0.00  0.00    +0.169 C 
ATOM     10  O   UNL     1      -2.285   1.929  25.107  0.00  0.00    -0.350 OA
ATOM     11  C   UNL     1      -2.872   2.508  25.069  0.00  0.00    +0.162 C 
ATOM     12  C   UNL     1      -3.356   2.337  24.423  0.00  0.00    +0.135 C 
ATOM     20  C   UNL     1      -3.069   1.653  24.062  0.00  0.00    +0.199 C 
ATOM     21  O   UNL     1      -3.388   1.286  23.395  0.00  0.00    -0.219 OA
ENDROOT
BRANCH   9   8
ATOM      8  C   UNL     1      -1.947   0.737  24.315  0.00  0.00    +0.149 C 
BRANCH   8   7
ATOM      4  N   UNL     1      -1.522  -1.232  25.153  0.00  0.00    -0.189 NA
ATOM      5  C   UNL     1      -1.487  -0.570  24.664  0.00  0.00    +0.339 C 
ATOM      6  O   UNL     1      -0.956  -0.552  24.031  0.00  0.00    -0.249 OA
ATOM      7  N   UNL     1      -1.982   0.075  24.805  0.00  0.00    -0.185 NA
BRANCH   4   2
ATOM      1  C   UNL     1      -0.258  -1.880  25.309  0.00  0.00    +0.023 C 
ATOM      2  C   UNL     1      -1.027  -1.877  25.012  0.00  0.00    +0.097 C 
ATOM      3  C   UNL     1      -1.303  -2.521  24.573  0.00  0.00    +0.023 C 
ENDBRANCH   4   2
ENDBRANCH   8   7
ENDBRANCH   9   8
BRANCH  12  13
ATOM     13  N   UNL     1      -4.013   2.774  24.180  0.00  0.00    -0.216 NA
BRANCH  13  14
ATOM     14  C   UNL     1      -4.601   2.971  24.725  0.00  0.00    +0.076 C 
ATOM     15  C   UNL     1      -4.580   3.701  25.108  0.00  0.00    +0.036 C 
ATOM     16  C   UNL     1      -5.168   3.898  25.653  0.00  0.00    +0.090 C 
ATOM     17  N   UNL     1      -5.777   3.365  25.813  0.00  0.00    -0.218 NA
ATOM     18  C   UNL     1      -5.798   2.635  25.429  0.00  0.00    +0.090 C 
ATOM     19  C   UNL     1      -5.210   2.438  24.885  0.00  0.00    +0.036 C 
ENDBRANCH  13  14
ENDBRANCH  12  13
TORSDOF 5
ENDMDL
MODEL 5
REMARK VINA RESULT:      -7.0     15.874     18.576
REMARK  Name = 
REMARK  5 active torsions:
REMARK  status: ('A' for Active; 'I' for Inactive)
REMARK    1  A    between atoms: C_2  and  N_4
REMARK    2  A    between atoms: N_7  and  C_8
REMARK    3  A    between atoms: C_8  and  C_9
REMARK    4  A    between atoms: C_12  and  N_13
REMARK    5  A    between atoms: N_13  and  C_14
REMARK                            x       y       z     vdW  Elec       q    Type
REMARK                         _______ _______ _______ _____ _____    ______ ____
ROOT
ATOM      9  C   UNL     1      13.494   7.318  19.981  0.00  0.00    +0.169 C 
ATOM     10  O   UNL     1      13.551   8.051  20.356  0.00  0.00    -0.350 OA
ATOM     11  C   UNL     1      12.786   8.320  20.507  0.00  0.00    +0.162 C 
ATOM     12  C   UNL     1      12.257   7.753  20.225  0.00  0.00    +0.135 C 
ATOM     20  C   UNL     1      12.694   7.134  19.900  0.00  0.00    +0.199 C 
ATOM     21  O   UNL     1      12.385   6.451  19.555  0.00  0.00    -0.219 OA
ENDROOT
BRANCH   9   8
ATOM      8  C   UNL     1      14.126   6.851  19.731  0.00  0.00    +0.149 C 
BRANCH   8   7
ATOM      4  N   UNL     1      16.302   6.997  19.654  0.00  0.00    -0.189 NA
ATOM      5  C   UNL     1      15.544   6.676  19.698  0.00  0.00    +0.339 C 
ATOM      6  O   UNL     1      15.445   5.858  19.754  0.00  0.00    -0.249 OA
ATOM      7  N   UNL     1      14.884   7.172  19.686  0.00  0.00    -0.185 NA
BRANCH   4   2
ATOM      1  C   UNL     1      17.179   6.087  18.987  0.00  0.00    +0.023 C 
ATOM      2  C   UNL     1      16.962   6.502  19.665  0.00  0.00    +0.097 C 
ATOM      3  C   UNL     1      17.405   6.422  20.358  0.00  0.00    +0.023 C 
ENDBRANCH   4   2
ENDBRANCH   8   7
ENDBRANCH   9   8
BRANCH  12  13
ATOM     13  N   UNL     1      11.433   7.799  20.263  0.00  0.00    -0.216 NA
BRANCH  13  14
ATOM     14  C   UNL     1      11.064   8.019  20.967  0.00  0.00    +0.076 C 
ATOM     15  C   UNL     1      10.777   7.440  21.480  0.00  0.00    +0.036 C 
ATOM     16  C   UNL     1      10.407   7.660  22.185  0.00  0.00    +0.090 C 
ATOM     17  N   UNL     1      10.325   8.458  22.376  0.00  0.00    -0.218 NA
ATOM     18  C   UNL     1      10.612   9.037  21.862  0.00  0.00    +0.090 C 
ATOM     19  C   UNL     1      10.981   8.817  21.158  0.00  0.00    +0.036 C 
ENDBRANCH  13  14
ENDBRANCH  12  13
TORSDOF 5
ENDMDL
MODEL 6
REMARK VINA RESULT:      -6.9      2.803      3.600
REMARK  Name = 
REMARK  5 active torsions:
REMARK  status: ('A' for Active; 'I' for Inactive)
REMARK    1  A    between atoms: C_2  and  N_4
REMARK    2  A    between atoms: N_7  and  C_8
REMARK    3  A    between atoms: C_8  and  C_9
REMARK    4  A    between atoms: C_12  and  N_13
REMARK    5  A    between atoms: N_13  and  C_14
REMARK                            x       y       z     vdW  Elec       q    Type
REMARK                         _______ _______ _______ _____ _____    ______ ____
ROOT
ATOM      9  C   UNL     1      -2.099   2.449  24.613  0.00  0.00    +0.169 C 
ATOM     10  O   UNL     1      -2.093   2.203  23.825  0.00  0.00    -0.350 OA
ATOM     11  C   UNL     1      -1.383   1.805  23.688  0.00  0.00    +0.162 C 
ATOM     12  C   UNL     1      -0.951   1.806  24.391  0.00  0.00    +0.135 C 
ATOM     20  C   UNL     1      -1.394   2.204  24.963  0.00  0.00    +0.199 C 
ATOM     21  O   UNL     1      -1.169   2.334  25.746  0.00  0.00    -0.219 OA
ENDROOT
BRANCH   9   8
ATOM      8  C   UNL     1      -2.705   2.868  24.985  0.00  0.00    +0.149 C 
BRANCH   8   7
ATOM      4  N   UNL     1      -4.886   2.872  25.059  0.00  0.00    -0.189 NA
ATOM      5  C   UNL     1      -4.100   3.022  25.255  0.00  0.00    +0.339 C 
ATOM      6  O   UNL     1      -3.921   3.478  25.920  0.00  0.00    -0.249 OA
ATOM      7  N   UNL     1      -3.492   2.717  24.788  0.00  0.00    -0.185 NA
BRANCH   4   2
ATOM      1  C   UNL     1      -5.913   2.680  26.034  0.00  0.00    +0.023 C 
ATOM      2  C   UNL     1      -5.495   3.176  25.526  0.00  0.00    +0.097 C 
ATOM      3  C   UNL     1      -5.684   3.979  25.484  0.00  0.00    +0.023 C 
ENDBRANCH   4   2
ENDBRANCH   8   7
ENDBRANCH   9   8
BRANCH  12  13
ATOM     13  N   UNL     1      -0.207   1.468  24.503  0.00  0.00    -0.216 NA
BRANCH  13  14
ATOM     14  C   UNL     1      -0.041   0.722  24.189  0.00  0.00    +0.076 C 
ATOM     15  C   UNL     1       0.419   0.655  23.508  0.00  0.00    +0.036 C 
ATOM     16  C   UNL     1       0.585  -0.091  23.195  0.00  0.00    +0.090 C 
ATOM     17  N   UNL     1       0.290  -0.767  23.562  0.00  0.00    -0.218 NA
ATOM     18  C   UNL     1      -0.171  -0.699  24.244  0.00  0.00    +0.090 C 
ATOM     19  C   UNL     1      -0.336   0.045  24.557  0.00  0.00    +0.036 C 
ENDBRANCH  13  14
ENDBRANCH  12  13
TORSDOF 5
ENDMDL
