MODEL 1
REMARK VINA RESULT:      -9.2      0.000      0.000
REMARK  Name = 
REMARK  6 active torsions:
REMARK  status: ('A' for Active; 'I' for Inactive)
REMARK    1  A    between atoms: C_2  and  N_4
REMARK    2  A    between atoms: N_4  and  C_5
REMARK    3  A    between atoms: C_8  and  C_9
REMARK    4  A    between atoms: C_9  and  N_10
REMARK    5  A    between atoms: N_10  and  S_11
REMARK    6  A    between atoms: S_11  and  C_14
REMARK                            x       y       z     vdW  Elec       q    Type
REMARK                         _______ _______ _______ _____ _____    ______ ____
ROOT
ATOM      9  C   UNL     1      -2.755   0.898  24.552  0.00  0.00    +0.148 C 
ENDROOT
BRANCH   9   8
ATOM      5  C   UNL     1      -2.148   2.931  24.791  0.00  0.00    +0.135 C 
ATOM      6  C   UNL     1      -1.724   2.566  25.397  0.00  0.00    +0.162 C 
ATOM      7  O   UNL     1      -1.900   1.760  25.382  0.00  0.00    -0.350 OA
ATOM      8  C   UNL     1      -2.432   1.627  24.765  0.00  0.00    +0.166 C 
ATOM     20  C   UNL     1      -2.585   2.350  24.400  0.00  0.00    +0.199 C 
ATOM     21  O   UNL     1      -3.088   2.472  23.758  0.00  0.00    -0.219 OA
BRANCH   5   4
ATOM      4  N   UNL     1      -2.136   3.735  24.607  0.00  0.00    -0.216 NA
BRANCH   4   2
ATOM      1  C   UNL     1      -2.227   4.589  25.749  0.00  0.00    +0.019 C 
ATOM      2  C   UNL     1      -1.788   4.272  25.127  0.00  0.00    +0.073 C 
ATOM      3  C   UNL     1      -0.999   4.493  25.025  0.00  0.00    +0.019 C 
ENDBRANCH   4   2
ENDBRANCH   5   4
ENDBRANCH   9   8
BRANCH   9  10
ATOM     10  N   UNL     1      -2.698   0.255  25.067  0.00  0.00    -0.075 NA
BRANCH  10  11
ATOM     11  S   UNL     1      -3.019  -0.474  24.852  0.00  0.00    +0.077 S 
ATOM     12  O   UNL     1      -2.345  -0.640  24.407  0.00  0.00    -0.152 OA
ATOM     13  O   UNL     1      -3.693  -0.307  25.299  0.00  0.00    -0.152 OA
BRANCH  11  14
ATOM     14  C   UNL     1      -3.340  -1.203  24.638  0.00  0.00    +0.124 A 
ATOM     15  C   UNL     1      -3.070  -1.894  24.999  0.00  0.00    +0.020 A 
ATOM     16  C   UNL     1      -3.391  -2.624  24.785  0.00  0.00    +0.001 A 
ATOM     17  C   UNL     1      -3.982  -2.661  24.210  0.00  0.00    +0.000 A 
ATOM     18  C   UNL     1      -4.251  -1.970  23.850  0.00  0.00    +0.001 A 
ATOM     19  C   UNL     1      -3.930  -1.241  24.064  0.00  0.00    +0.020 A 
ENDBRANCH  11  14
ENDBRANCH  10  11
ENDBRANCH   9  10
TORSDOF 6
ENDMDL
MODEL 2
REMARK VINA RESULT:      -8.9      1.112      4.981
REMARK  Name = 
REMARK  6 active torsions:
REMARK  status: ('A' for Active; 'I' for Inactive)
REMARK    1  A    between atoms: C_2  and  N_4
REMARK    2  A    between atoms: N_4  and  C_5
REMARK    3  A    between atoms: C_8  and  C_9
REMARK    4  A    between atoms: C_9  and  N_10
REMARK    5  A    between atoms: N_10  and  S_11
REMARK    6  A    between atoms: S_11  and  C_14
REMARK                            x       y       z     vdW  Elec       q    Type
REMARK                         _______ _______ _______ _____ _____    ______ ____
ROOT
ATOM      9  C   UNL     1      -2.697   1.397  24.925  0.00  0.00    +0.148 C 
ENDROOT
BRANCH   9   8
ATOM      5  C   UNL     1      -3.422  -0.607  24.796  0.00  0.00    +0.135 C 
ATOM      6  C   UNL     1      -2.639  -0.705  24.557  0.00  0.00    +0.162 C 
ATOM      7  O   UNL     1      -2.272   0.033  24.576  0.00  0.00    -0.350 OA
ATOM      8  C   UNL     1      -2.828   0.588  24.827  0.00  0.00    +0.166 C 
ATOM     20  C   UNL     1      -3.539   0.193  24.964  0.00  0.00    +0.199 C 
ATOM     21  O   UNL     1      -4.243   0.536  25.222  0.00  0.00    -0.219 OA
BRANCH   5   4
ATOM      4  N   UNL     1      -3.989  -1.203  24.858  0.00  0.00    -0.216 NA
BRANCH   4   2
ATOM      1  C   UNL     1      -3.420  -2.511  24.943  0.00  0.00    +0.019 C 
ATOM      2  C   UNL     1      -3.847  -1.944  24.524  0.00  0.00    +0.073 C 
ATOM      3  C   UNL     1      -4.133  -2.117  23.769  0.00  0.00    +0.019 C 
ENDBRANCH   4   2
ENDBRANCH   5   4
ENDBRANCH   9   8
BRANCH   9  10
ATOM     10  N   UNL     1      -1.939   1.708  24.819  0.00  0.00    -0.075 NA
BRANCH  10  11
ATOM     11  S   UNL     1      -1.807   2.515  24.923  0.00  0.00    +0.077 S 
ATOM     12  O   UNL     1      -2.101   2.661  24.166  0.00  0.00    -0.152 OA
ATOM     13  O   UNL     1      -1.512   2.368  25.680  0.00  0.00    -0.152 OA
BRANCH  11  14
ATOM     14  C   UNL     1      -1.674   3.322  25.027  0.00  0.00    +0.124 A 
ATOM     15  C   UNL     1      -0.956   3.655  24.795  0.00  0.00    +0.020 A 
ATOM     16  C   UNL     1      -0.823   4.463  24.899  0.00  0.00    +0.001 A 
ATOM     17  C   UNL     1      -1.409   4.937  25.235  0.00  0.00    +0.000 A 
ATOM     18  C   UNL     1      -2.126   4.604  25.467  0.00  0.00    +0.001 A 
ATOM     19  C   UNL     1      -2.259   3.796  25.363  0.00  0.00    +0.020 A 
ENDBRANCH  11  14
ENDBRANCH  10  11
ENDBRANCH   9  10
TORSDOF 6
ENDMDL
MODEL 3
REMARK VINA RESULT:      -7.1     16.599     18.605
REMARK  Name = 
REMARK  6 active torsions:
REMARK  status: ('A' for Active; 'I' for Inactive)
REMARK    1  A    between atoms: C_2  and  N_4
REMARK    2  A    between atoms: N_4  and  C_5
REMARK    3  A    between atoms: C_8  and  C_9
REMARK    4  A    between atoms: C_9  and  N_10
REMARK    5  A    between atoms: N_10  and  S_11
REMARK    6  A    between atoms: S_11  and  C_14
REMARK                            x       y       z     vdW  Elec       q    Type
REMARK                         _______ _______ _______ _____ _____    ______ ____
ROOT
ATOM      9  C   UNL     1      13.904   6.772  20.324  0.00  0.00    +0.148 C 
ENDROOT
BRANCH   9   8
ATOM      5  C   UNL     1      11.931   7.338  20.912  0.00  0.00    +0.135 C 
ATOM      6  C   UNL     1      12.370   7.595  21.560  0.00  0.00    +0.162 C 
ATOM      7  O   UNL     1      13.162   7.415  21.419  0.00  0.00    -0.350 OA
ATOM      8  C   UNL     1      13.212   7.046  20.683  0.00  0.00    +0.166 C 
ATOM     20  C   UNL     1      12.452   6.998  20.369  0.00  0.00    +0.199 C 
ATOM     21  O   UNL     1      12.247   6.669  19.641  0.00  0.00    -0.219 OA
BRANCH   5   4
ATOM      4  N   UNL     1      11.114   7.408  20.821  0.00  0.00    -0.216 NA
BRANCH   4   2
ATOM      1  C   UNL     1      10.596   8.555  21.495  0.00  0.00    +0.019 C 
ATOM      2  C   UNL     1      10.657   7.737  21.424  0.00  0.00    +0.073 C 
ATOM      3  C   UNL     1      10.263   7.245  21.957  0.00  0.00    +0.019 C 
ENDBRANCH   4   2
ENDBRANCH   5   4
ENDBRANCH   9   8
BRANCH   9  10
ATOM     10  N   UNL     1      14.634   7.095  20.534  0.00  0.00    -0.075 NA
BRANCH  10  11
ATOM     11  S   UNL     1      15.326   6.806  20.192  0.00  0.00    +0.077 S 
ATOM     12  O   UNL     1      15.423   7.518  19.787  0.00  0.00    -0.152 OA
ATOM     13  O   UNL     1      15.228   6.094  20.598  0.00  0.00    -0.152 OA
BRANCH  11  14
ATOM     14  C   UNL     1      16.018   6.516  19.850  0.00  0.00    +0.124 A 
ATOM     15  C   UNL     1      16.711   6.472  20.296  0.00  0.00    +0.020 A 
ATOM     16  C   UNL     1      17.404   6.182  19.955  0.00  0.00    +0.001 A 
ATOM     17  C   UNL     1      17.404   5.937  19.166  0.00  0.00    +0.000 A 
ATOM     18  C   UNL     1      16.712   5.982  18.721  0.00  0.00    +0.001 A 
ATOM     19  C   UNL     1      16.019   6.272  19.063  0.00  0.00    +0.020 A 
ENDBRANCH  11  14
ENDBRANCH  10  11
ENDBRANCH   9  10
TORSDOF 6
ENDMDL
MODEL 4
REMARK VINA RESULT:      -6.6     16.354     18.386
REMARK  Name = 
REMARK  6 active torsions:
REMARK  status: ('A' for Active; 'I' for Inactive)
REMARK    1  A    between atoms: C_2  and  N_4
REMARK    2  A    between atoms: N_4  and  C_5
REMARK    3  A    between atoms: C_8  and  C_9
REMARK    4  A    between atoms: C_9  and  N_10
REMARK    5  A    between atoms: N_10  and  S_11
REMARK    6  A    between atoms: S_11  and  C_14
REMARK                            x       y       z     vdW  Elec       q    Type
REMARK                         _______ _______ _______ _____ _____    ______ ____
ROOT
ATOM      9  C   UNL     1      13.628   7.042  20.533  0.00  0.00    +0.148 C 
ENDROOT
BRANCH   9   8
ATOM      5  C   UNL     1      15.553   6.640  19.701  0.00  0.00    +0.135 C 
ATOM      6  C   UNL     1      15.607   6.248  20.425  0.00  0.00    +0.162 C 
ATOM      7  O   UNL     1      14.893   6.351  20.824  0.00  0.00    -0.350 OA
ATOM      8  C   UNL     1      14.397   6.807  20.347  0.00  0.00    +0.166 C 
ATOM     20  C   UNL     1      14.804   6.985  19.653  0.00  0.00    +0.199 C 
ATOM     21  O   UNL     1      14.515   7.430  19.022  0.00  0.00    -0.219 OA
BRANCH   5   4
ATOM      4  N   UNL     1      16.142   6.680  19.126  0.00  0.00    -0.216 NA
BRANCH   4   2
ATOM      1  C   UNL     1      17.084   5.640  18.855  0.00  0.00    +0.019 C 
ATOM      2  C   UNL     1      16.875   6.326  19.261  0.00  0.00    +0.073 C 
ATOM      3  C   UNL     1      17.401   6.661  19.803  0.00  0.00    +0.019 C 
ENDBRANCH   4   2
ENDBRANCH   5   4
ENDBRANCH   9   8
BRANCH   9  10
ATOM     10  N   UNL     1      13.326   6.909  21.290  0.00  0.00    -0.075 NA
BRANCH  10  11
ATOM     11  S   UNL     1      12.582   7.198  21.493  0.00  0.00    +0.077 S 
ATOM     12  O   UNL     1      12.228   6.586  21.069  0.00  0.00    -0.152 OA
ATOM     13  O   UNL     1      12.936   7.811  21.918  0.00  0.00    -0.152 OA
BRANCH  11  14
ATOM     14  C   UNL     1      11.837   7.488  21.697  0.00  0.00    +0.124 A 
ATOM     15  C   UNL     1      11.752   8.270  21.946  0.00  0.00    +0.020 A 
ATOM     16  C   UNL     1      11.007   8.561  22.150  0.00  0.00    +0.001 A 
ATOM     17  C   UNL     1      10.346   8.067  22.105  0.00  0.00    +0.000 A 
ATOM     18  C   UNL     1      10.431   7.286  21.856  0.00  0.00    +0.001 A 
ATOM     19  C   UNL     1      11.176   6.996  21.652  0.00  0.00    +0.020 A 
ENDBRANCH  11  14
ENDBRANCH  10  11
ENDBRANCH   9  10
TORSDOF 6
ENDMDL
MODEL 5
REMARK VINA RESULT:      -6.4     17.659     19.422
REMARK  Name = 
REMARK  6 active torsions:
REMARK  status: ('A' for Active; 'I' for Inactive)
REMARK    1  A    between atoms: C_2  and  N_4
REMARK    2  A    between atoms: N_4  and  C_5
REMARK    3  A    between atoms: C_8  and  C_9
REMARK    4  A    between atoms: C_9  and  N_10
REMARK    5  A    between atoms: N_10  and  S_11
REMARK    6  A    between atoms: S_11  and  C_14
REMARK                            x       y       z     vdW  Elec       q    Type
REMARK                         _______ _______ _______ _____ _____    ______ ____
ROOT
ATOM      9  C   UNL     1      14.211   7.470  18.489  0.00  0.00    +0.148 C 
ENDROOT
BRANCH   9   8
ATOM      5  C   UNL     1      12.304   7.925  17.643  0.00  0.00    +0.135 C 
ATOM      6  C   UNL     1      12.288   8.383  18.328  0.00  0.00    +0.162 C 
ATOM      7  O   UNL     1      12.999   8.269  18.728  0.00  0.00    -0.350 OA
ATOM      8  C   UNL     1      13.456   7.739  18.290  0.00  0.00    +0.166 C 
ATOM     20  C   UNL     1      13.027   7.526  17.619  0.00  0.00    +0.199 C 
ATOM     21  O   UNL     1      13.275   7.007  17.029  0.00  0.00    -0.219 OA
BRANCH   5   4
ATOM      4  N   UNL     1      11.704   7.873  17.079  0.00  0.00    -0.216 NA
BRANCH   4   2
ATOM      1  C   UNL     1      11.359   9.061  16.366  0.00  0.00    +0.019 C 
ATOM      2  C   UNL     1      11.196   8.511  16.957  0.00  0.00    +0.073 C 
ATOM      3  C   UNL     1      10.522   8.597  17.428  0.00  0.00    +0.019 C 
ENDBRANCH   4   2
ENDBRANCH   5   4
ENDBRANCH   9   8
BRANCH   9  10
ATOM     10  N   UNL     1      14.443   7.440  19.281  0.00  0.00    -0.075 NA
BRANCH  10  11
ATOM     11  S   UNL     1      15.183   7.137  19.481  0.00  0.00    +0.077 S 
ATOM     12  O   UNL     1      14.822   6.481  19.825  0.00  0.00    -0.152 OA
ATOM     13  O   UNL     1      15.545   7.795  19.137  0.00  0.00    -0.152 OA
BRANCH  11  14
ATOM     14  C   UNL     1      15.924   6.835  19.682  0.00  0.00    +0.124 A 
ATOM     15  C   UNL     1      16.332   6.356  19.148  0.00  0.00    +0.020 A 
ATOM     16  C   UNL     1      17.073   6.052  19.349  0.00  0.00    +0.001 A 
ATOM     17  C   UNL     1      17.405   6.228  20.084  0.00  0.00    +0.000 A 
ATOM     18  C   UNL     1      16.997   6.707  20.617  0.00  0.00    +0.001 A 
ATOM     19  C   UNL     1      16.256   7.010  20.416  0.00  0.00    +0.020 A 
ENDBRANCH  11  14
ENDBRANCH  10  11
ENDBRANCH   9  10
TORSDOF 6
ENDMDL
MODEL 6
REMARK VINA RESULT:      -6.3     17.827     19.154
REMARK  Name = 
REMARK  6 active torsions:
REMARK  status: ('A' for Active; 'I' for Inactive)
REMARK    1  A    between atoms: C_2  and  N_4
REMARK    2  A    between atoms: N_4  and  C_5
REMARK    3  A    between atoms: C_8  and  C_9
REMARK    4  A    between atoms: C_9  and  N_10
REMARK    5  A    between atoms: N_10  and  S_11
REMARK    6  A    between atoms: S_11  and  C_14
REMARK                            x       y       z     vdW  Elec       q    Type
REMARK                         _______ _______ _______ _____ _____    ______ ____
ROOT
ATOM      9  C   UNL     1      13.414   7.767  18.506  0.00  0.00    +0.148 C 
ENDROOT
BRANCH   9   8
ATOM      5  C   UNL     1      14.984   7.041  19.758  0.00  0.00    +0.135 C 
ATOM      6  C   UNL     1      15.396   7.567  19.274  0.00  0.00    +0.162 C 
ATOM      7  O   UNL     1      14.858   7.903  18.747  0.00  0.00    -0.350 OA
ATOM      8  C   UNL     1      14.114   7.584  18.904  0.00  0.00    +0.166 C 
ATOM     20  C   UNL     1      14.191   7.052  19.529  0.00  0.00    +0.199 C 
ATOM     21  O   UNL     1      13.584   6.608  19.866  0.00  0.00    -0.219 OA
BRANCH   5   4
ATOM      4  N   UNL     1      15.308   6.585  20.364  0.00  0.00    -0.216 NA
BRANCH   4   2
ATOM      1  C   UNL     1      16.694   6.314  20.151  0.00  0.00    +0.019 C 
ATOM      2  C   UNL     1      16.097   6.686  20.580  0.00  0.00    +0.073 C 
ATOM      3  C   UNL     1      16.290   7.160  21.228  0.00  0.00    +0.019 C 
ENDBRANCH   4   2
ENDBRANCH   5   4
ENDBRANCH   9   8
BRANCH   9  10
ATOM     10  N   UNL     1      13.424   8.304  17.880  0.00  0.00    -0.075 NA
BRANCH  10  11
ATOM     11  S   UNL     1      12.732   8.456  17.457  0.00  0.00    +0.077 S 
ATOM     12  O   UNL     1      12.898   7.820  16.958  0.00  0.00    -0.152 OA
ATOM     13  O   UNL     1      12.567   9.092  17.956  0.00  0.00    -0.152 OA
BRANCH  11  14
ATOM     14  C   UNL     1      12.041   8.607  17.033  0.00  0.00    +0.124 A 
ATOM     15  C   UNL     1      11.307   8.425  17.364  0.00  0.00    +0.020 A 
ATOM     16  C   UNL     1      10.614   8.576  16.941  0.00  0.00    +0.001 A 
ATOM     17  C   UNL     1      10.657   8.911  16.187  0.00  0.00    +0.000 A 
ATOM     18  C   UNL     1      11.390   9.093  15.858  0.00  0.00    +0.001 A 
ATOM     19  C   UNL     1      12.083   8.941  16.281  0.00  0.00    +0.020 A 
ENDBRANCH  11  14
ENDBRANCH  10  11
ENDBRANCH   9  10
TORSDOF 6
ENDMDL
MODEL 7
REMARK VINA RESULT:      -6.0     15.743     17.820
REMARK  Name = 
REMARK  6 active torsions:
REMARK  status: ('A' for Active; 'I' for Inactive)
REMARK    1  A    between atoms: C_2  and  N_4
REMARK    2  A    between atoms: N_4  and  C_5
REMARK    3  A    between atoms: C_8  and  C_9
REMARK    4  A    between atoms: C_9  and  N_10
REMARK    5  A    between atoms: N_10  and  S_11
REMARK    6  A    between atoms: S_11  and  C_14
REMARK                            x       y       z     vdW  Elec       q    Type
REMARK                         _______ _______ _______ _____ _____    ______ ____
ROOT
ATOM      9  C   UNL     1      12.048   8.192  19.234  0.00  0.00    +0.148 C 
ENDROOT
BRANCH   9   8
ATOM      5  C   UNL     1      12.963   8.340  17.311  0.00  0.00    +0.135 C 
ATOM      6  C   UNL     1      13.233   9.032  17.669  0.00  0.00    +0.162 C 
ATOM      7  O   UNL     1      12.923   9.061  18.432  0.00  0.00    -0.350 OA
ATOM      8  C   UNL     1      12.461   8.386  18.547  0.00  0.00    +0.166 C 
ATOM     20  C   UNL     1      12.486   7.941  17.854  0.00  0.00    +0.199 C 
ATOM     21  O   UNL     1      12.102   7.222  17.725  0.00  0.00    -0.219 OA
BRANCH   5   4
ATOM      4  N   UNL     1      13.139   8.090  16.544  0.00  0.00    -0.216 NA
BRANCH   4   2
ATOM      1  C   UNL     1      14.397   8.549  16.049  0.00  0.00    +0.019 C 
ATOM      2  C   UNL     1      13.574   8.577  16.041  0.00  0.00    +0.073 C 
ATOM      3  C   UNL     1      13.184   9.093  15.528  0.00  0.00    +0.019 C 
ENDBRANCH   4   2
ENDBRANCH   5   4
ENDBRANCH   9   8
BRANCH   9  10
ATOM     10  N   UNL     1      11.895   8.772  19.801  0.00  0.00    -0.075 NA
BRANCH  10  11
ATOM     11  S   UNL     1      11.522   8.569  20.508  0.00  0.00    +0.077 S 
ATOM     12  O   UNL     1      12.256   8.502  20.876  0.00  0.00    -0.152 OA
ATOM     13  O   UNL     1      10.786   8.636  20.139  0.00  0.00    -0.152 OA
BRANCH  11  14
ATOM     14  C   UNL     1      11.148   8.366  21.215  0.00  0.00    +0.124 A 
ATOM     15  C   UNL     1      11.069   8.926  21.815  0.00  0.00    +0.020 A 
ATOM     16  C   UNL     1      10.696   8.723  22.523  0.00  0.00    +0.001 A 
ATOM     17  C   UNL     1      10.402   7.959  22.629  0.00  0.00    +0.000 A 
ATOM     18  C   UNL     1      10.481   7.400  22.029  0.00  0.00    +0.001 A 
ATOM     19  C   UNL     1      10.855   7.603  21.322  0.00  0.00    +0.020 A 
ENDBRANCH  11  14
ENDBRANCH  10  11
ENDBRANCH   9  10
TORSDOF 6
ENDMDL
