REMARK  Name = 
REMARK  7 active torsions:
REMARK  status: ('A' for Active; 'I' for Inactive)
REMARK    1  A    between atoms: C_5  and  C_6
REMARK    2  A    between atoms: C_6  and  C_7
REMARK    3  A    between atoms: N_9  and  C_10
REMARK    4  A    between atoms: C_10  and  C_11
REMARK    5  A    between atoms: C_14  and  C_15
REMARK    6  A    between atoms: C_15  and  N_16
REMARK    7  A    between atoms: C_17  and  C_19
REMARK                            x       y       z     vdW  Elec       q    Type
REMARK                         _______ _______ _______ _____ _____    ______ ____
ROOT
ATOM      1  O   UNL     1       1.429  -2.475   0.000  0.00  0.00    -0.218 OA
ATOM      2  C   UNL     1       1.764  -3.229   0.000  0.00  0.00    +0.213 C 
ATOM      3  C   UNL     1       2.571  -3.400   0.000  0.00  0.00    +0.212 C 
ATOM      4  O   UNL     1       3.185  -2.848   0.000  0.00  0.00    -0.218 OA
ATOM      5  C   UNL     1       2.658  -4.221   0.000  0.00  0.00    +0.157 C 
ATOM     13  O   UNL     1       1.904  -4.556   0.000  0.00  0.00    -0.351 OA
ATOM     14  C   UNL     1       1.352  -3.943   0.000  0.00  0.00    +0.170 C 
ENDROOT
BRANCH   5   6
ATOM      6  C   UNL     1       3.372  -4.633   0.000  0.00  0.00    +0.119 C 
BRANCH   6   7
ATOM      7  C   UNL     1       4.087  -4.221   0.000  0.00  0.00    +0.245 C 
ATOM      8  O   UNL     1       4.087  -3.396   0.000  0.00  0.00    -0.273 OA
ATOM      9  N   UNL     1       4.801  -4.633   0.000  0.00  0.00    -0.191 NA
BRANCH   9  10
ATOM     10  C   UNL     1       5.516  -4.221   0.000  0.00  0.00    +0.191 C 
BRANCH  10  11
ATOM     11  C   UNL     1       6.230  -4.633   0.000  0.00  0.00    -0.054 C 
ATOM     12  C   UNL     1       6.944  -5.046   0.000  0.00  0.00    -0.012 C 
ENDBRANCH  10  11
ENDBRANCH   9  10
ENDBRANCH   6   7
ENDBRANCH   5   6
BRANCH  14  15
ATOM     15  C   UNL     1       0.531  -4.029   0.000  0.00  0.00    +0.148 C 
BRANCH  15  16
ATOM     16  N   UNL     1       0.047  -3.362   0.000  0.00  0.00    -0.199 NA
ATOM     17  C   UNL     1      -0.774  -3.448   0.000  0.00  0.00    +0.265 C 
ATOM     18  O   UNL     1      -1.109  -4.202   0.000  0.00  0.00    -0.268 OA
BRANCH  17  19
ATOM     19  C   UNL     1      -1.259  -2.781   0.000  0.00  0.00    +0.057 A 
ATOM     20  C   UNL     1      -2.079  -2.867   0.000  0.00  0.00    +0.005 A 
ATOM     21  C   UNL     1      -2.564  -2.200   0.000  0.00  0.00    +0.002 A 
ATOM     22  C   UNL     1      -2.229  -1.446   0.000  0.00  0.00    +0.030 A 
ATOM     23  C   UNL     1      -1.408  -1.360   0.000  0.00  0.00    +0.140 A 
ATOM     24  F   UNL     1      -1.073  -0.606   0.000  0.00  0.00    -0.204 F 
ATOM     25  C   UNL     1      -0.923  -2.027   0.000  0.00  0.00    +0.034 A 
ENDBRANCH  17  19
ENDBRANCH  15  16
ENDBRANCH  14  15
TORSDOF 7
