MODEL 1
REMARK VINA RESULT:     -12.6      0.000      0.000
REMARK  Name = 
REMARK  7 active torsions:
REMARK  status: ('A' for Active; 'I' for Inactive)
REMARK    1  A    between atoms: N_4  and  C_21
REMARK    2  A    between atoms: C_7  and  C_8
REMARK    3  A    between atoms: C_10  and  N_11
REMARK    4  A    between atoms: C_12  and  C_14
REMARK    5  A    between atoms: C_14  and  C_15
REMARK    6  A    between atoms: C_15  and  C_16
REMARK    7  A    between atoms: C_24  and  C_27
REMARK                            x       y       z     vdW  Elec       q    Type
REMARK                         _______ _______ _______ _____ _____    ______ ____
ROOT
ATOM      1  C   UNL     1      -6.086   1.789  25.038  0.00  0.00    +0.054 C 
ATOM      2  C   UNL     1      -5.388   1.353  24.983  0.00  0.00    +0.077 A 
ATOM      3  N   UNL     1      -5.334   0.537  24.867  0.00  0.00    -0.170 NA
ATOM      4  N   UNL     1      -4.535   0.335  24.847  0.00  0.00    -0.234 N 
ATOM      5  C   UNL     1      -4.094   1.025  24.949  0.00  0.00    +0.058 A 
ATOM      6  C   UNL     1      -3.272   1.078  24.965  0.00  0.00    +0.052 C 
ATOM      7  C   UNL     1      -4.622   1.654  25.033  0.00  0.00    +0.010 A 
ENDROOT
BRANCH   4  21
ATOM     21  C   UNL     1      -4.230  -0.424  24.742  0.00  0.00    +0.082 A 
ATOM     22  C   UNL     1      -4.247  -0.776  23.997  0.00  0.00    +0.019 A 
ATOM     23  C   UNL     1      -3.941  -1.536  23.891  0.00  0.00    -0.003 A 
ATOM     24  C   UNL     1      -3.618  -1.942  24.532  0.00  0.00    -0.023 A 
ATOM     25  C   UNL     1      -3.601  -1.590  25.279  0.00  0.00    -0.003 A 
ATOM     26  C   UNL     1      -3.907  -0.830  25.383  0.00  0.00    +0.019 A 
BRANCH  24  27
ATOM     27  C   UNL     1      -3.313  -2.701  24.428  0.00  0.00    +0.019 C 
ATOM     28  C   UNL     1      -3.007  -3.460  24.323  0.00  0.00    +0.004 C 
ATOM     29  C   UNL     1      -4.041  -2.954  24.134  0.00  0.00    +0.004 C 
ATOM     30  C   UNL     1      -2.584  -2.448  24.721  0.00  0.00    +0.004 C 
ENDBRANCH  24  27
ENDBRANCH   4  21
BRANCH   7   8
ATOM      8  C   UNL     1      -4.419   2.445  25.147  0.00  0.00    +0.048 C 
ATOM      9  C   UNL     1      -3.759   2.827  24.833  0.00  0.00    +0.035 C 
ATOM     10  C   UNL     1      -3.772   3.612  25.088  0.00  0.00    +0.118 C 
ATOM     19  C   UNL     1      -4.440   3.715  25.559  0.00  0.00    -0.009 C 
ATOM     20  C   UNL     1      -4.841   2.995  25.597  0.00  0.00    -0.025 C 
BRANCH  10  11
ATOM     11  N   UNL     1      -3.214   4.192  24.903  0.00  0.00    -0.203 NA
ATOM     12  C   UNL     1      -2.592   4.344  25.422  0.00  0.00    +0.242 C 
ATOM     13  O   UNL     1      -2.526   3.919  26.125  0.00  0.00    -0.273 OA
BRANCH  12  14
ATOM     14  C   UNL     1      -2.034   4.924  25.236  0.00  0.00    +0.099 C 
BRANCH  14  15
ATOM     15  C   UNL     1      -1.233   4.728  25.198  0.00  0.00    +0.124 C 
BRANCH  15  16
ATOM     16  C   UNL     1      -0.712   5.206  24.774  0.00  0.00    +0.365 C 
ATOM     17  O   UNL     1      -0.803   6.027  24.787  0.00  0.00    -0.246 OA
ATOM     18  O   UNL     1      -0.101   4.865  24.337  0.00  0.00    -0.246 OA
ENDBRANCH  15  16
ENDBRANCH  14  15
ENDBRANCH  12  14
ENDBRANCH  10  11
ENDBRANCH   7   8
TORSDOF 7
ENDMDL
MODEL 2
REMARK VINA RESULT:     -10.6      2.942      4.951
REMARK  Name = 
REMARK  7 active torsions:
REMARK  status: ('A' for Active; 'I' for Inactive)
REMARK    1  A    between atoms: N_4  and  C_21
REMARK    2  A    between atoms: C_7  and  C_8
REMARK    3  A    between atoms: C_10  and  N_11
REMARK    4  A    between atoms: C_12  and  C_14
REMARK    5  A    between atoms: C_14  and  C_15
REMARK    6  A    between atoms: C_15  and  C_16
REMARK    7  A    between atoms: C_24  and  C_27
REMARK                            x       y       z     vdW  Elec       q    Type
REMARK                         _______ _______ _______ _____ _____    ______ ____
ROOT
ATOM      1  C   UNL     1      -3.229  -1.553  24.240  0.00  0.00    +0.054 C 
ATOM      2  C   UNL     1      -3.237  -0.761  24.473  0.00  0.00    +0.077 A 
ATOM      3  N   UNL     1      -3.908  -0.286  24.554  0.00  0.00    -0.170 NA
ATOM      4  N   UNL     1      -3.662   0.463  24.796  0.00  0.00    -0.234 N 
ATOM      5  C   UNL     1      -2.840   0.452  24.865  0.00  0.00    +0.058 A 
ATOM      6  C   UNL     1      -2.364   1.085  25.093  0.00  0.00    +0.052 C 
ATOM      7  C   UNL     1      -2.578  -0.305  24.665  0.00  0.00    +0.010 A 
ENDROOT
BRANCH   4  21
ATOM     21  C   UNL     1      -4.152   1.109  24.944  0.00  0.00    +0.082 A 
ATOM     22  C   UNL     1      -4.050   1.809  24.521  0.00  0.00    +0.019 A 
ATOM     23  C   UNL     1      -4.540   2.457  24.669  0.00  0.00    -0.003 A 
ATOM     24  C   UNL     1      -5.133   2.403  25.240  0.00  0.00    -0.023 A 
ATOM     25  C   UNL     1      -5.235   1.702  25.663  0.00  0.00    -0.003 A 
ATOM     26  C   UNL     1      -4.745   1.055  25.516  0.00  0.00    +0.019 A 
BRANCH  24  27
ATOM     27  C   UNL     1      -5.623   3.050  25.388  0.00  0.00    +0.019 C 
ATOM     28  C   UNL     1      -6.113   3.697  25.536  0.00  0.00    +0.004 C 
ATOM     29  C   UNL     1      -4.966   3.549  25.385  0.00  0.00    +0.004 C 
ATOM     30  C   UNL     1      -6.280   2.551  25.391  0.00  0.00    +0.004 C 
ENDBRANCH  24  27
ENDBRANCH   4  21
BRANCH   7   8
ATOM      8  C   UNL     1      -1.793  -0.560  24.658  0.00  0.00    +0.048 C 
ATOM      9  C   UNL     1      -1.292  -0.570  24.003  0.00  0.00    +0.035 C 
ATOM     10  C   UNL     1      -0.561  -0.866  24.246  0.00  0.00    +0.118 C 
ATOM     19  C   UNL     1      -0.610  -1.039  25.051  0.00  0.00    -0.009 C 
ATOM     20  C   UNL     1      -1.372  -0.850  25.306  0.00  0.00    -0.025 C 
BRANCH  10  11
ATOM     11  N   UNL     1       0.103  -0.971  23.767  0.00  0.00    -0.203 NA
ATOM     12  C   UNL     1       0.540  -0.316  23.520  0.00  0.00    +0.242 C 
ATOM     13  O   UNL     1       0.313   0.442  23.751  0.00  0.00    -0.273 OA
BRANCH  12  14
ATOM     14  C   UNL     1       1.203  -0.422  23.041  0.00  0.00    +0.099 C 
BRANCH  14  15
ATOM     15  C   UNL     1       1.672   0.227  22.838  0.00  0.00    +0.124 C 
BRANCH  15  16
ATOM     16  C   UNL     1       2.354   0.117  22.387  0.00  0.00    +0.365 C 
ATOM     17  O   UNL     1       3.097   0.204  22.735  0.00  0.00    -0.246 OA
ATOM     18  O   UNL     1       2.293  -0.079  21.588  0.00  0.00    -0.246 OA
ENDBRANCH  15  16
ENDBRANCH  14  15
ENDBRANCH  12  14
ENDBRANCH  10  11
ENDBRANCH   7   8
TORSDOF 7
ENDMDL
MODEL 3
REMARK VINA RESULT:     -10.4      4.196      5.519
REMARK  Name = 
REMARK  7 active torsions:
REMARK  status: ('A' for Active; 'I' for Inactive)
REMARK    1  A    between atoms: N_4  and  C_21
REMARK    2  A    between atoms: C_7  and  C_8
REMARK    3  A    between atoms: C_10  and  N_11
REMARK    4  A    between atoms: C_12  and  C_14
REMARK    5  A    between atoms: C_14  and  C_15
REMARK    6  A    between atoms: C_15  and  C_16
REMARK    7  A    between atoms: C_24  and  C_27
REMARK                            x       y       z     vdW  Elec       q    Type
REMARK                         _______ _______ _______ _____ _____    ______ ____
ROOT
ATOM      1  C   UNL     1      -0.331  -0.974  24.827  0.00  0.00    +0.054 C 
ATOM      2  C   UNL     1      -0.802  -0.352  24.558  0.00  0.00    +0.077 A 
ATOM      3  N   UNL     1      -1.553  -0.156  24.839  0.00  0.00    -0.170 NA
ATOM      4  N   UNL     1      -1.820   0.500  24.416  0.00  0.00    -0.234 N 
ATOM      5  C   UNL     1      -1.235   0.709  23.874  0.00  0.00    +0.058 A 
ATOM      6  C   UNL     1      -1.272   1.335  23.338  0.00  0.00    +0.052 C 
ATOM      7  C   UNL     1      -0.606   0.182  23.961  0.00  0.00    +0.010 A 
ENDROOT
BRANCH   4  21
ATOM     21  C   UNL     1      -2.545   0.880  24.518  0.00  0.00    +0.082 A 
ATOM     22  C   UNL     1      -3.235   0.537  24.224  0.00  0.00    +0.019 A 
ATOM     23  C   UNL     1      -3.961   0.917  24.325  0.00  0.00    -0.003 A 
ATOM     24  C   UNL     1      -3.996   1.640  24.722  0.00  0.00    -0.023 A 
ATOM     25  C   UNL     1      -3.305   1.983  25.016  0.00  0.00    -0.003 A 
ATOM     26  C   UNL     1      -2.580   1.603  24.914  0.00  0.00    +0.019 A 
BRANCH  24  27
ATOM     27  C   UNL     1      -4.721   2.020  24.823  0.00  0.00    +0.019 C 
ATOM     28  C   UNL     1      -5.446   2.400  24.925  0.00  0.00    +0.004 C 
ATOM     29  C   UNL     1      -5.032   1.335  25.162  0.00  0.00    +0.004 C 
ATOM     30  C   UNL     1      -4.409   2.704  24.485  0.00  0.00    +0.004 C 
ENDBRANCH  24  27
ENDBRANCH   4  21
BRANCH   7   8
ATOM      8  C   UNL     1       0.096   0.189  23.528  0.00  0.00    +0.048 C 
ATOM      9  C   UNL     1       0.786   0.594  23.729  0.00  0.00    +0.035 C 
ATOM     10  C   UNL     1       1.348   0.447  23.143  0.00  0.00    +0.118 C 
ATOM     19  C   UNL     1       1.005  -0.048  22.579  0.00  0.00    -0.009 C 
ATOM     20  C   UNL     1       0.231  -0.207  22.817  0.00  0.00    -0.025 C 
BRANCH  10  11
ATOM     11  N   UNL     1       2.118   0.745  23.124  0.00  0.00    -0.203 NA
ATOM     12  C   UNL     1       2.749   0.242  22.952  0.00  0.00    +0.242 C 
ATOM     13  O   UNL     1       2.611  -0.557  22.800  0.00  0.00    -0.273 OA
BRANCH  12  14
ATOM     14  C   UNL     1       3.518   0.539  22.933  0.00  0.00    +0.099 C 
BRANCH  14  15
ATOM     15  C   UNL     1       4.145   0.078  23.210  0.00  0.00    +0.124 C 
BRANCH  15  16
ATOM     16  C   UNL     1       4.906   0.395  23.244  0.00  0.00    +0.365 C 
ATOM     17  O   UNL     1       5.076   1.001  23.779  0.00  0.00    -0.246 OA
ATOM     18  O   UNL     1       5.496   0.108  22.744  0.00  0.00    -0.246 OA
ENDBRANCH  15  16
ENDBRANCH  14  15
ENDBRANCH  12  14
ENDBRANCH  10  11
ENDBRANCH   7   8
TORSDOF 7
ENDMDL
MODEL 4
REMARK VINA RESULT:     -10.4      2.325      5.765
REMARK  Name = 
REMARK  7 active torsions:
REMARK  status: ('A' for Active; 'I' for Inactive)
REMARK    1  A    between atoms: N_4  and  C_21
REMARK    2  A    between atoms: C_7  and  C_8
REMARK    3  A    between atoms: C_10  and  N_11
REMARK    4  A    between atoms: C_12  and  C_14
REMARK    5  A    between atoms: C_14  and  C_15
REMARK    6  A    between atoms: C_15  and  C_16
REMARK    7  A    between atoms: C_24  and  C_27
REMARK                            x       y       z     vdW  Elec       q    Type
REMARK                         _______ _______ _______ _____ _____    ______ ____
ROOT
ATOM      1  C   UNL     1      -5.712   2.471  25.107  0.00  0.00    +0.054 C 
ATOM      2  C   UNL     1      -4.893   2.547  25.057  0.00  0.00    +0.077 A 
ATOM      3  N   UNL     1      -4.469   3.256  25.071  0.00  0.00    -0.170 NA
ATOM      4  N   UNL     1      -3.667   3.075  25.007  0.00  0.00    -0.234 N 
ATOM      5  C   UNL     1      -3.594   2.255  24.952  0.00  0.00    +0.058 A 
ATOM      6  C   UNL     1      -2.888   1.835  24.879  0.00  0.00    +0.052 C 
ATOM      7  C   UNL     1      -4.352   1.929  24.983  0.00  0.00    +0.010 A 
ENDROOT
BRANCH   4  21
ATOM     21  C   UNL     1      -3.047   3.619  24.998  0.00  0.00    +0.082 A 
ATOM     22  C   UNL     1      -2.727   3.891  25.708  0.00  0.00    +0.019 A 
ATOM     23  C   UNL     1      -2.106   4.435  25.700  0.00  0.00    -0.003 A 
ATOM     24  C   UNL     1      -1.806   4.707  24.981  0.00  0.00    -0.023 A 
ATOM     25  C   UNL     1      -2.127   4.435  24.271  0.00  0.00    -0.003 A 
ATOM     26  C   UNL     1      -2.747   3.891  24.279  0.00  0.00    +0.019 A 
BRANCH  24  27
ATOM     27  C   UNL     1      -1.186   5.250  24.973  0.00  0.00    +0.019 C 
ATOM     28  C   UNL     1      -0.566   5.794  24.964  0.00  0.00    +0.004 C 
ATOM     29  C   UNL     1      -0.647   4.634  24.873  0.00  0.00    +0.004 C 
ATOM     30  C   UNL     1      -1.725   5.867  25.073  0.00  0.00    +0.004 C 
ENDBRANCH  24  27
ENDBRANCH   4  21
BRANCH   7   8
ATOM      8  C   UNL     1      -4.535   1.126  24.946  0.00  0.00    +0.048 C 
ATOM      9  C   UNL     1      -4.122   0.553  24.521  0.00  0.00    +0.035 C 
ATOM     10  C   UNL     1      -4.496  -0.173  24.640  0.00  0.00    +0.118 C 
ATOM     19  C   UNL     1      -5.141  -0.048  25.139  0.00  0.00    -0.009 C 
ATOM     20  C   UNL     1      -5.165   0.754  25.329  0.00  0.00    -0.025 C 
BRANCH  10  11
ATOM     11  N   UNL     1      -4.266  -0.897  24.317  0.00  0.00    -0.203 NA
ATOM     12  C   UNL     1      -3.878  -1.453  24.787  0.00  0.00    +0.242 C 
ATOM     13  O   UNL     1      -3.721  -1.286  25.579  0.00  0.00    -0.273 OA
BRANCH  12  14
ATOM     14  C   UNL     1      -3.648  -2.176  24.463  0.00  0.00    +0.099 C 
BRANCH  14  15
ATOM     15  C   UNL     1      -2.972  -2.557  24.745  0.00  0.00    +0.124 C 
BRANCH  15  16
ATOM     16  C   UNL     1      -2.522  -3.026  24.237  0.00  0.00    +0.365 C 
ATOM     17  O   UNL     1      -2.879  -3.647  23.825  0.00  0.00    -0.246 OA
ATOM     18  O   UNL     1      -1.716  -2.876  24.140  0.00  0.00    -0.246 OA
ENDBRANCH  15  16
ENDBRANCH  14  15
ENDBRANCH  12  14
ENDBRANCH  10  11
ENDBRANCH   7   8
TORSDOF 7
ENDMDL
MODEL 5
REMARK VINA RESULT:     -10.3      3.185      6.556
REMARK  Name = 
REMARK  7 active torsions:
REMARK  status: ('A' for Active; 'I' for Inactive)
REMARK    1  A    between atoms: N_4  and  C_21
REMARK    2  A    between atoms: C_7  and  C_8
REMARK    3  A    between atoms: C_10  and  N_11
REMARK    4  A    between atoms: C_12  and  C_14
REMARK    5  A    between atoms: C_14  and  C_15
REMARK    6  A    between atoms: C_15  and  C_16
REMARK    7  A    between atoms: C_24  and  C_27
REMARK                            x       y       z     vdW  Elec       q    Type
REMARK                         _______ _______ _______ _____ _____    ______ ____
ROOT
ATOM      1  C   UNL     1       0.664   0.269  23.611  0.00  0.00    +0.054 C 
ATOM      2  C   UNL     1       0.127   0.751  24.011  0.00  0.00    +0.077 A 
ATOM      3  N   UNL     1       0.118   1.576  24.004  0.00  0.00    -0.170 NA
ATOM      4  N   UNL     1      -0.509   1.829  24.477  0.00  0.00    -0.234 N 
ATOM      5  C   UNL     1      -0.888   1.160  24.776  0.00  0.00    +0.058 A 
ATOM      6  C   UNL     1      -1.544   1.156  25.276  0.00  0.00    +0.052 C 
ATOM      7  C   UNL     1      -0.494   0.493  24.488  0.00  0.00    +0.010 A 
ENDROOT
BRANCH   4  21
ATOM     21  C   UNL     1      -0.720   2.612  24.625  0.00  0.00    +0.082 A 
ATOM     22  C   UNL     1      -0.436   2.996  25.297  0.00  0.00    +0.019 A 
ATOM     23  C   UNL     1      -0.647   3.780  25.445  0.00  0.00    -0.003 A 
ATOM     24  C   UNL     1      -1.142   4.179  24.920  0.00  0.00    -0.023 A 
ATOM     25  C   UNL     1      -1.427   3.795  24.247  0.00  0.00    -0.003 A 
ATOM     26  C   UNL     1      -1.216   3.011  24.100  0.00  0.00    +0.019 A 
BRANCH  24  27
ATOM     27  C   UNL     1      -1.354   4.963  25.068  0.00  0.00    +0.019 C 
ATOM     28  C   UNL     1      -1.565   5.747  25.215  0.00  0.00    +0.004 C 
ATOM     29  C   UNL     1      -2.044   4.707  25.439  0.00  0.00    +0.004 C 
ATOM     30  C   UNL     1      -0.663   5.219  24.697  0.00  0.00    +0.004 C 
ENDBRANCH  24  27
ENDBRANCH   4  21
BRANCH   7   8
ATOM      8  C   UNL     1      -0.689  -0.292  24.649  0.00  0.00    +0.048 C 
ATOM      9  C   UNL     1      -1.284  -0.729  24.282  0.00  0.00    +0.035 C 
ATOM     10  C   UNL     1      -1.285  -1.486  24.612  0.00  0.00    +0.118 C 
ATOM     19  C   UNL     1      -0.692  -1.515  25.184  0.00  0.00    -0.009 C 
ATOM     20  C   UNL     1      -0.323  -0.778  25.207  0.00  0.00    -0.025 C 
BRANCH  10  11
ATOM     11  N   UNL     1      -1.792  -2.104  24.406  0.00  0.00    -0.203 NA
ATOM     12  C   UNL     1      -2.520  -2.183  24.786  0.00  0.00    +0.242 C 
ATOM     13  O   UNL     1      -2.742  -1.645  25.371  0.00  0.00    -0.273 OA
BRANCH  12  14
ATOM     14  C   UNL     1      -3.026  -2.801  24.580  0.00  0.00    +0.099 C 
BRANCH  14  15
ATOM     15  C   UNL     1      -3.840  -2.669  24.536  0.00  0.00    +0.124 C 
BRANCH  15  16
ATOM     16  C   UNL     1      -4.276  -2.992  23.914  0.00  0.00    +0.365 C 
ATOM     17  O   UNL     1      -4.751  -2.504  23.447  0.00  0.00    -0.246 OA
ATOM     18  O   UNL     1      -4.239  -3.801  23.759  0.00  0.00    -0.246 OA
ENDBRANCH  15  16
ENDBRANCH  14  15
ENDBRANCH  12  14
ENDBRANCH  10  11
ENDBRANCH   7   8
TORSDOF 7
ENDMDL
MODEL 6
REMARK VINA RESULT:     -10.2      3.028      4.900
REMARK  Name = 
REMARK  7 active torsions:
REMARK  status: ('A' for Active; 'I' for Inactive)
REMARK    1  A    between atoms: N_4  and  C_21
REMARK    2  A    between atoms: C_7  and  C_8
REMARK    3  A    between atoms: C_10  and  N_11
REMARK    4  A    between atoms: C_12  and  C_14
REMARK    5  A    between atoms: C_14  and  C_15
REMARK    6  A    between atoms: C_15  and  C_16
REMARK    7  A    between atoms: C_24  and  C_27
REMARK                            x       y       z     vdW  Elec       q    Type
REMARK                         _______ _______ _______ _____ _____    ______ ____
ROOT
ATOM      1  C   UNL     1      -1.136   4.434  25.005  0.00  0.00    +0.054 C 
ATOM      2  C   UNL     1      -1.672   3.807  25.036  0.00  0.00    +0.077 A 
ATOM      3  N   UNL     1      -2.494   3.873  25.066  0.00  0.00    -0.170 NA
ATOM      4  N   UNL     1      -2.811   3.112  25.091  0.00  0.00    -0.234 N 
ATOM      5  C   UNL     1      -2.184   2.575  25.075  0.00  0.00    +0.058 A 
ATOM      6  C   UNL     1      -2.249   1.753  25.091  0.00  0.00    +0.052 C 
ATOM      7  C   UNL     1      -1.480   3.005  25.041  0.00  0.00    +0.010 A 
ENDROOT
BRANCH   4  21
ATOM     21  C   UNL     1      -3.612   2.921  25.125  0.00  0.00    +0.082 A 
ATOM     22  C   UNL     1      -3.976   2.554  24.482  0.00  0.00    +0.019 A 
ATOM     23  C   UNL     1      -4.778   2.363  24.516  0.00  0.00    -0.003 A 
ATOM     24  C   UNL     1      -5.216   2.539  25.193  0.00  0.00    -0.023 A 
ATOM     25  C   UNL     1      -4.851   2.906  25.836  0.00  0.00    -0.003 A 
ATOM     26  C   UNL     1      -4.050   3.097  25.802  0.00  0.00    +0.019 A 
BRANCH  24  27
ATOM     27  C   UNL     1      -6.017   2.348  25.227  0.00  0.00    +0.019 C 
ATOM     28  C   UNL     1      -6.819   2.157  25.261  0.00  0.00    +0.004 C 
ATOM     29  C   UNL     1      -5.869   1.650  24.812  0.00  0.00    +0.004 C 
ATOM     30  C   UNL     1      -6.166   3.045  25.641  0.00  0.00    +0.004 C 
ENDBRANCH  24  27
ENDBRANCH   4  21
BRANCH   7   8
ATOM      8  C   UNL     1      -0.720   2.688  25.017  0.00  0.00    +0.048 C 
ATOM      9  C   UNL     1      -0.299   2.489  24.336  0.00  0.00    +0.035 C 
ATOM     10  C   UNL     1       0.436   2.192  24.568  0.00  0.00    +0.118 C 
ATOM     19  C   UNL     1       0.468   2.207  25.392  0.00  0.00    -0.009 C 
ATOM     20  C   UNL     1      -0.245   2.514  25.670  0.00  0.00    -0.025 C 
BRANCH  10  11
ATOM     11  N   UNL     1       1.033   1.926  24.063  0.00  0.00    -0.203 NA
ATOM     12  C   UNL     1       1.038   1.142  23.809  0.00  0.00    +0.242 C 
ATOM     13  O   UNL     1       0.446   0.623  24.057  0.00  0.00    -0.273 OA
BRANCH  12  14
ATOM     14  C   UNL     1       1.634   0.877  23.304  0.00  0.00    +0.099 C 
BRANCH  14  15
ATOM     15  C   UNL     1       1.535   0.174  22.882  0.00  0.00    +0.124 C 
BRANCH  15  16
ATOM     16  C   UNL     1       2.096  -0.051  22.321  0.00  0.00    +0.365 C 
ATOM     17  O   UNL     1       1.853  -0.300  21.572  0.00  0.00    -0.246 OA
ATOM     18  O   UNL     1       2.899  -0.030  22.508  0.00  0.00    -0.246 OA
ENDBRANCH  15  16
ENDBRANCH  14  15
ENDBRANCH  12  14
ENDBRANCH  10  11
ENDBRANCH   7   8
TORSDOF 7
ENDMDL
MODEL 7
REMARK VINA RESULT:      -9.8      2.958      3.567
REMARK  Name = 
REMARK  7 active torsions:
REMARK  status: ('A' for Active; 'I' for Inactive)
REMARK    1  A    between atoms: N_4  and  C_21
REMARK    2  A    between atoms: C_7  and  C_8
REMARK    3  A    between atoms: C_10  and  N_11
REMARK    4  A    between atoms: C_12  and  C_14
REMARK    5  A    between atoms: C_14  and  C_15
REMARK    6  A    between atoms: C_15  and  C_16
REMARK    7  A    between atoms: C_24  and  C_27
REMARK                            x       y       z     vdW  Elec       q    Type
REMARK                         _______ _______ _______ _____ _____    ______ ____
ROOT
ATOM      1  C   UNL     1      -1.285   2.331  23.659  0.00  0.00    +0.054 C 
ATOM      2  C   UNL     1      -1.538   1.677  24.093  0.00  0.00    +0.077 A 
ATOM      3  N   UNL     1      -1.976   1.041  23.802  0.00  0.00    -0.170 NA
ATOM      4  N   UNL     1      -2.107   0.515  24.423  0.00  0.00    -0.234 N 
ATOM      5  C   UNL     1      -1.751   0.826  25.099  0.00  0.00    +0.058 A 
ATOM      6  C   UNL     1      -1.746   0.480  25.848  0.00  0.00    +0.052 C 
ATOM      7  C   UNL     1      -1.399   1.544  24.895  0.00  0.00    +0.010 A 
ENDROOT
BRANCH   4  21
ATOM     21  C   UNL     1      -2.522  -0.196  24.377  0.00  0.00    +0.082 A 
ATOM     22  C   UNL     1      -2.117  -0.913  24.426  0.00  0.00    +0.019 A 
ATOM     23  C   UNL     1      -2.532  -1.625  24.380  0.00  0.00    -0.003 A 
ATOM     24  C   UNL     1      -3.352  -1.619  24.285  0.00  0.00    -0.023 A 
ATOM     25  C   UNL     1      -3.757  -0.902  24.236  0.00  0.00    -0.003 A 
ATOM     26  C   UNL     1      -3.342  -0.190  24.282  0.00  0.00    +0.019 A 
BRANCH  24  27
ATOM     27  C   UNL     1      -3.766  -2.331  24.239  0.00  0.00    +0.019 C 
ATOM     28  C   UNL     1      -4.181  -3.042  24.193  0.00  0.00    +0.004 C 
ATOM     29  C   UNL     1      -3.183  -2.700  24.690  0.00  0.00    +0.004 C 
ATOM     30  C   UNL     1      -4.350  -1.961  23.788  0.00  0.00    +0.004 C 
ENDBRANCH  24  27
ENDBRANCH   4  21
BRANCH   7   8
ATOM      8  C   UNL     1      -0.982   2.041  25.404  0.00  0.00    +0.048 C 
ATOM      9  C   UNL     1      -0.229   1.901  25.710  0.00  0.00    +0.035 C 
ATOM     10  C   UNL     1      -0.026   2.540  26.192  0.00  0.00    +0.118 C 
ATOM     19  C   UNL     1      -0.653   3.075  26.183  0.00  0.00    -0.009 C 
ATOM     20  C   UNL     1      -1.245   2.767  25.696  0.00  0.00    -0.025 C 
BRANCH  10  11
ATOM     11  N   UNL     1       0.681   2.627  26.609  0.00  0.00    -0.203 NA
ATOM     12  C   UNL     1       0.690   2.532  27.428  0.00  0.00    +0.242 C 
ATOM     13  O   UNL     1      -0.006   2.350  27.831  0.00  0.00    -0.273 OA
BRANCH  12  14
ATOM     14  C   UNL     1       1.397   2.620  27.844  0.00  0.00    +0.099 C 
BRANCH  14  15
ATOM     15  C   UNL     1       1.392   2.620  28.670  0.00  0.00    +0.124 C 
BRANCH  15  16
ATOM     16  C   UNL     1       2.103   2.609  29.086  0.00  0.00    +0.365 C 
ATOM     17  O   UNL     1       2.137   2.267  29.837  0.00  0.00    -0.246 OA
ATOM     18  O   UNL     1       2.782   2.939  28.753  0.00  0.00    -0.246 OA
ENDBRANCH  15  16
ENDBRANCH  14  15
ENDBRANCH  12  14
ENDBRANCH  10  11
ENDBRANCH   7   8
TORSDOF 7
ENDMDL
MODEL 8
REMARK VINA RESULT:      -9.1      3.278      4.647
REMARK  Name = 
REMARK  7 active torsions:
REMARK  status: ('A' for Active; 'I' for Inactive)
REMARK    1  A    between atoms: N_4  and  C_21
REMARK    2  A    between atoms: C_7  and  C_8
REMARK    3  A    between atoms: C_10  and  N_11
REMARK    4  A    between atoms: C_12  and  C_14
REMARK    5  A    between atoms: C_14  and  C_15
REMARK    6  A    between atoms: C_15  and  C_16
REMARK    7  A    between atoms: C_24  and  C_27
REMARK                            x       y       z     vdW  Elec       q    Type
REMARK                         _______ _______ _______ _____ _____    ______ ____
ROOT
ATOM      1  C   UNL     1      -2.099  -1.046  25.899  0.00  0.00    +0.054 C 
ATOM      2  C   UNL     1      -1.760  -0.669  25.247  0.00  0.00    +0.077 A 
ATOM      3  N   UNL     1      -0.962  -0.689  25.037  0.00  0.00    -0.170 NA
ATOM      4  N   UNL     1      -0.868  -0.239  24.352  0.00  0.00    -0.234 N 
ATOM      5  C   UNL     1      -1.607   0.058  24.139  0.00  0.00    +0.058 A 
ATOM      6  C   UNL     1      -1.768   0.538  23.487  0.00  0.00    +0.052 C 
ATOM      7  C   UNL     1      -2.159  -0.208  24.692  0.00  0.00    +0.010 A 
ENDROOT
BRANCH   4  21
ATOM     21  C   UNL     1      -0.159  -0.110  23.951  0.00  0.00    +0.082 A 
ATOM     22  C   UNL     1       0.183   0.640  23.950  0.00  0.00    +0.019 A 
ATOM     23  C   UNL     1       0.893   0.770  23.549  0.00  0.00    -0.003 A 
ATOM     24  C   UNL     1       1.259   0.149  23.148  0.00  0.00    -0.023 A 
ATOM     25  C   UNL     1       0.916  -0.602  23.148  0.00  0.00    -0.003 A 
ATOM     26  C   UNL     1       0.207  -0.731  23.550  0.00  0.00    +0.019 A 
BRANCH  24  27
ATOM     27  C   UNL     1       1.968   0.278  22.746  0.00  0.00    +0.019 C 
ATOM     28  C   UNL     1       2.677   0.408  22.345  0.00  0.00    +0.004 C 
ATOM     29  C   UNL     1       1.709  -0.207  22.132  0.00  0.00    +0.004 C 
ATOM     30  C   UNL     1       2.227   0.764  23.361  0.00  0.00    +0.004 C 
ENDBRANCH  24  27
ENDBRANCH   4  21
BRANCH   7   8
ATOM      8  C   UNL     1      -2.966  -0.041  24.691  0.00  0.00    +0.048 C 
ATOM      9  C   UNL     1      -3.338   0.560  25.116  0.00  0.00    +0.035 C 
ATOM     10  C   UNL     1      -4.146   0.526  24.951  0.00  0.00    +0.118 C 
ATOM     19  C   UNL     1      -4.273  -0.095  24.424  0.00  0.00    -0.009 C 
ATOM     20  C   UNL     1      -3.544  -0.446  24.263  0.00  0.00    -0.025 C 
BRANCH  10  11
ATOM     11  N   UNL     1      -4.725   1.027  25.259  0.00  0.00    -0.203 NA
ATOM     12  C   UNL     1      -4.903   1.736  24.877  0.00  0.00    +0.242 C 
ATOM     13  O   UNL     1      -4.502   1.945  24.186  0.00  0.00    -0.273 OA
BRANCH  12  14
ATOM     14  C   UNL     1      -5.482   2.236  25.185  0.00  0.00    +0.099 C 
BRANCH  14  15
ATOM     15  C   UNL     1      -5.309   3.032  25.321  0.00  0.00    +0.124 C 
BRANCH  15  16
ATOM     16  C   UNL     1      -5.813   3.489  25.788  0.00  0.00    +0.365 C 
ATOM     17  O   UNL     1      -5.926   4.288  25.612  0.00  0.00    -0.246 OA
ATOM     18  O   UNL     1      -6.203   3.149  26.430  0.00  0.00    -0.246 OA
ENDBRANCH  15  16
ENDBRANCH  14  15
ENDBRANCH  12  14
ENDBRANCH  10  11
ENDBRANCH   7   8
TORSDOF 7
ENDMDL
