MODEL 1
REMARK VINA RESULT:     -14.9      0.000      0.000
REMARK  Name = 
REMARK  6 active torsions:
REMARK  status: ('A' for Active; 'I' for Inactive)
REMARK    1  A    between atoms: C_2  and  N_3
REMARK    2  A    between atoms: C_2  and  C_31
REMARK    3  A    between atoms: C_4  and  C_6
REMARK    4  A    between atoms: C_6  and  C_7
REMARK    5  A    between atoms: C_12  and  C_14
REMARK    6  A    between atoms: C_23  and  C_25
REMARK                            x       y       z     vdW  Elec       q    Type
REMARK                         _______ _______ _______ _____ _____    ______ ____
ROOT
ATOM      7  C   UNL     1      -2.721  -0.126  25.091  0.00  0.00    +0.050 C 
ATOM      8  C   UNL     1      -3.353   0.397  24.996  0.00  0.00    +0.062 A 
ATOM      9  C   UNL     1      -4.064   0.131  24.674  0.00  0.00    +0.022 A 
ATOM     10  C   UNL     1      -4.143  -0.658  24.447  0.00  0.00    +0.034 C 
ATOM     11  C   UNL     1      -3.513  -1.180  24.541  0.00  0.00    +0.010 C 
ATOM     12  C   UNL     1      -3.592  -1.969  24.313  0.00  0.00    +0.059 C 
ATOM     13  C   UNL     1      -4.342  -1.686  24.116  0.00  0.00    +0.005 C 
ATOM     16  C   UNL     1      -2.961  -2.492  24.407  0.00  0.00    +0.154 C 
ATOM     17  O   UNL     1      -3.040  -3.281  24.179  0.00  0.00    -0.223 OA
ATOM     18  C   UNL     1      -2.250  -2.226  24.729  0.00  0.00    +0.033 C 
ATOM     19  C   UNL     1      -2.170  -1.436  24.957  0.00  0.00    +0.003 C 
ATOM     20  C   UNL     1      -2.801  -0.914  24.863  0.00  0.00    +0.006 C 
ATOM     21  C   UNL     1      -2.090  -0.648  25.185  0.00  0.00    +0.000 C 
ATOM     22  S   UNL     1      -4.587   0.769  24.648  0.00  0.00    -0.071 S 
ATOM     23  C   UNL     1      -4.199   1.429  24.954  0.00  0.00    +0.112 A 
ATOM     24  N   UNL     1      -3.436   1.200  25.169  0.00  0.00    -0.243 NA
ENDROOT
BRANCH  23  25
ATOM     25  C   UNL     1      -4.517   2.186  25.031  0.00  0.00    +0.043 A 
ATOM     26  C   UNL     1      -5.071   2.343  25.623  0.00  0.00    +0.101 A 
ATOM     27  N   UNL     1      -5.389   3.100  25.700  0.00  0.00    -0.242 NA
ATOM     28  C   UNL     1      -5.154   3.700  25.185  0.00  0.00    +0.099 A 
ATOM     29  C   UNL     1      -4.601   3.544  24.594  0.00  0.00    +0.021 A 
ATOM     30  C   UNL     1      -4.283   2.787  24.517  0.00  0.00    +0.005 A 
ENDBRANCH  23  25
BRANCH  12  14
ATOM     14  C   UNL     1      -3.932  -2.660  24.017  0.00  0.00    +0.184 C 
ATOM     15  O   UNL     1      -4.631  -2.623  23.581  0.00  0.00    -0.220 OA
ENDBRANCH  12  14
BRANCH   7   6
ATOM      6  C   UNL     1      -2.010   0.140  25.413  0.00  0.00    +0.093 C 
BRANCH   6   4
ATOM      3  N   UNL     1      -1.119   1.254  25.331  0.00  0.00    -0.203 NA
ATOM      4  C   UNL     1      -1.513   0.626  24.969  0.00  0.00    +0.242 C 
ATOM      5  O   UNL     1      -1.409   0.483  24.164  0.00  0.00    -0.273 OA
BRANCH   3   2
ATOM      1  C   UNL     1      -0.077   1.405  24.364  0.00  0.00    +0.028 C 
ATOM      2  C   UNL     1      -0.621   1.739  24.888  0.00  0.00    +0.118 C 
BRANCH   2  31
ATOM     31  C   UNL     1      -0.667   2.559  24.966  0.00  0.00    -0.003 A 
ATOM     32  C   UNL     1      -0.721   2.900  25.717  0.00  0.00    -0.003 A 
ATOM     33  C   UNL     1      -0.766   3.720  25.796  0.00  0.00    -0.000 A 
ATOM     34  C   UNL     1      -0.758   4.200  25.124  0.00  0.00    -0.000 A 
ATOM     35  C   UNL     1      -0.705   3.860  24.375  0.00  0.00    -0.000 A 
ATOM     36  C   UNL     1      -0.659   3.040  24.296  0.00  0.00    -0.003 A 
ENDBRANCH   2  31
ENDBRANCH   3   2
ENDBRANCH   6   4
ENDBRANCH   7   6
TORSDOF 6
ENDMDL
MODEL 2
REMARK VINA RESULT:     -14.6      1.225      3.129
REMARK  Name = 
REMARK  6 active torsions:
REMARK  status: ('A' for Active; 'I' for Inactive)
REMARK    1  A    between atoms: C_2  and  N_3
REMARK    2  A    between atoms: C_2  and  C_31
REMARK    3  A    between atoms: C_4  and  C_6
REMARK    4  A    between atoms: C_6  and  C_7
REMARK    5  A    between atoms: C_12  and  C_14
REMARK    6  A    between atoms: C_23  and  C_25
REMARK                            x       y       z     vdW  Elec       q    Type
REMARK                         _______ _______ _______ _____ _____    ______ ____
ROOT
ATOM      7  C   UNL     1      -3.213  -0.032  24.244  0.00  0.00    +0.050 C 
ATOM      8  C   UNL     1      -2.480   0.190  24.551  0.00  0.00    +0.062 A 
ATOM      9  C   UNL     1      -1.962  -0.384  24.840  0.00  0.00    +0.022 A 
ATOM     10  C   UNL     1      -2.179  -1.180  24.823  0.00  0.00    +0.034 C 
ATOM     11  C   UNL     1      -2.912  -1.402  24.518  0.00  0.00    +0.010 C 
ATOM     12  C   UNL     1      -3.128  -2.198  24.501  0.00  0.00    +0.059 C 
ATOM     13  C   UNL     1      -2.380  -2.260  24.842  0.00  0.00    +0.005 C 
ATOM     16  C   UNL     1      -3.861  -2.421  24.195  0.00  0.00    +0.154 C 
ATOM     17  O   UNL     1      -4.078  -3.217  24.178  0.00  0.00    -0.223 OA
ATOM     18  C   UNL     1      -4.378  -1.847  23.906  0.00  0.00    +0.033 C 
ATOM     19  C   UNL     1      -4.162  -1.050  23.922  0.00  0.00    +0.003 C 
ATOM     20  C   UNL     1      -3.429  -0.828  24.228  0.00  0.00    +0.006 C 
ATOM     21  C   UNL     1      -3.946  -0.255  23.939  0.00  0.00    +0.000 C 
ATOM     22  S   UNL     1      -1.281  -0.002  25.107  0.00  0.00    -0.071 S 
ATOM     23  C   UNL     1      -1.378   0.806  24.982  0.00  0.00    +0.112 A 
ATOM     24  N   UNL     1      -2.118   0.926  24.638  0.00  0.00    -0.243 NA
ENDROOT
BRANCH  23  25
ATOM     25  C   UNL     1      -0.829   1.394  25.168  0.00  0.00    +0.043 A 
ATOM     26  C   UNL     1      -0.284   1.645  24.601  0.00  0.00    +0.101 A 
ATOM     27  N   UNL     1       0.264   2.233  24.787  0.00  0.00    -0.242 NA
ATOM     28  C   UNL     1       0.267   2.570  25.540  0.00  0.00    +0.099 A 
ATOM     29  C   UNL     1      -0.278   2.320  26.107  0.00  0.00    +0.021 A 
ATOM     30  C   UNL     1      -0.826   1.732  25.921  0.00  0.00    +0.005 A 
ENDBRANCH  23  25
BRANCH  12  14
ATOM     14  C   UNL     1      -3.085  -3.016  24.603  0.00  0.00    +0.184 C 
ATOM     15  O   UNL     1      -2.355  -3.377  24.734  0.00  0.00    -0.220 OA
ENDBRANCH  12  14
BRANCH   7   6
ATOM      6  C   UNL     1      -3.730   0.541  23.955  0.00  0.00    +0.093 C 
BRANCH   6   4
ATOM      3  N   UNL     1      -4.187   1.854  24.286  0.00  0.00    -0.203 NA
ATOM      4  C   UNL     1      -4.110   1.055  24.476  0.00  0.00    +0.242 C 
ATOM      5  O   UNL     1      -4.413   0.769  25.188  0.00  0.00    -0.273 OA
BRANCH   3   2
ATOM      1  C   UNL     1      -5.309   2.172  25.112  0.00  0.00    +0.028 C 
ATOM      2  C   UNL     1      -4.567   2.367  24.807  0.00  0.00    +0.118 C 
BRANCH   2  31
ATOM     31  C   UNL     1      -4.206   3.076  25.025  0.00  0.00    -0.003 A 
ATOM     32  C   UNL     1      -3.889   3.572  24.446  0.00  0.00    -0.003 A 
ATOM     33  C   UNL     1      -3.528   4.281  24.664  0.00  0.00    -0.000 A 
ATOM     34  C   UNL     1      -3.483   4.495  25.460  0.00  0.00    -0.000 A 
ATOM     35  C   UNL     1      -3.801   3.999  26.038  0.00  0.00    -0.000 A 
ATOM     36  C   UNL     1      -4.162   3.290  25.820  0.00  0.00    -0.003 A 
ENDBRANCH   2  31
ENDBRANCH   3   2
ENDBRANCH   6   4
ENDBRANCH   7   6
TORSDOF 6
ENDMDL
MODEL 3
REMARK VINA RESULT:     -14.6      1.829      4.191
REMARK  Name = 
REMARK  6 active torsions:
REMARK  status: ('A' for Active; 'I' for Inactive)
REMARK    1  A    between atoms: C_2  and  N_3
REMARK    2  A    between atoms: C_2  and  C_31
REMARK    3  A    between atoms: C_4  and  C_6
REMARK    4  A    between atoms: C_6  and  C_7
REMARK    5  A    between atoms: C_12  and  C_14
REMARK    6  A    between atoms: C_23  and  C_25
REMARK                            x       y       z     vdW  Elec       q    Type
REMARK                         _______ _______ _______ _____ _____    ______ ____
ROOT
ATOM      7  C   UNL     1      -3.549   1.655  24.400  0.00  0.00    +0.050 C 
ATOM      8  C   UNL     1      -3.809   0.882  24.529  0.00  0.00    +0.062 A 
ATOM      9  C   UNL     1      -4.515   0.746  24.933  0.00  0.00    +0.022 A 
ATOM     10  C   UNL     1      -4.962   1.383  25.208  0.00  0.00    +0.034 C 
ATOM     11  C   UNL     1      -4.703   2.155  25.080  0.00  0.00    +0.010 C 
ATOM     12  C   UNL     1      -5.149   2.791  25.355  0.00  0.00    +0.059 C 
ATOM     13  C   UNL     1      -5.620   2.164  25.610  0.00  0.00    +0.005 C 
ATOM     16  C   UNL     1      -4.890   3.564  25.226  0.00  0.00    +0.154 C 
ATOM     17  O   UNL     1      -5.337   4.201  25.501  0.00  0.00    -0.223 OA
ATOM     18  C   UNL     1      -4.184   3.700  24.822  0.00  0.00    +0.033 C 
ATOM     19  C   UNL     1      -3.737   3.063  24.546  0.00  0.00    +0.003 C 
ATOM     20  C   UNL     1      -3.997   2.291  24.675  0.00  0.00    +0.006 C 
ATOM     21  C   UNL     1      -3.290   2.427  24.271  0.00  0.00    +0.000 C 
ATOM     22  S   UNL     1      -4.630  -0.070  24.978  0.00  0.00    -0.071 S 
ATOM     23  C   UNL     1      -3.996  -0.438  24.601  0.00  0.00    +0.112 A 
ATOM     24  N   UNL     1      -3.487   0.150  24.324  0.00  0.00    -0.243 NA
ENDROOT
BRANCH  23  25
ATOM     25  C   UNL     1      -3.887  -1.251  24.517  0.00  0.00    +0.043 A 
ATOM     26  C   UNL     1      -4.212  -1.646  23.868  0.00  0.00    +0.101 A 
ATOM     27  N   UNL     1      -4.103  -2.459  23.784  0.00  0.00    -0.242 NA
ATOM     28  C   UNL     1      -3.670  -2.878  24.348  0.00  0.00    +0.099 A 
ATOM     29  C   UNL     1      -3.346  -2.484  24.996  0.00  0.00    +0.021 A 
ATOM     30  C   UNL     1      -3.455  -1.671  25.080  0.00  0.00    +0.005 A 
ENDBRANCH  23  25
BRANCH  12  14
ATOM     14  C   UNL     1      -5.760   3.210  25.719  0.00  0.00    +0.184 C 
ATOM     15  O   UNL     1      -6.172   2.875  26.350  0.00  0.00    -0.220 OA
ENDBRANCH  12  14
BRANCH   7   6
ATOM      6  C   UNL     1      -2.844   1.791  23.996  0.00  0.00    +0.093 C 
BRANCH   6   4
ATOM      3  N   UNL     1      -1.491   1.338  23.914  0.00  0.00    -0.203 NA
ATOM      4  C   UNL     1      -2.122   1.628  24.360  0.00  0.00    +0.242 C 
ATOM      5  O   UNL     1      -2.031   1.754  25.170  0.00  0.00    -0.273 OA
BRANCH   3   2
ATOM      1  C   UNL     1      -0.532   1.610  24.938  0.00  0.00    +0.028 C 
ATOM      2  C   UNL     1      -0.769   1.175  24.278  0.00  0.00    +0.118 C 
BRANCH   2  31
ATOM     31  C   UNL     1      -0.284   0.578  23.982  0.00  0.00    -0.003 A 
ATOM     32  C   UNL     1       0.215   0.729  23.342  0.00  0.00    -0.003 A 
ATOM     33  C   UNL     1       0.701   0.132  23.047  0.00  0.00    -0.000 A 
ATOM     34  C   UNL     1       0.688  -0.619  23.391  0.00  0.00    -0.000 A 
ATOM     35  C   UNL     1       0.189  -0.770  24.030  0.00  0.00    -0.000 A 
ATOM     36  C   UNL     1      -0.297  -0.172  24.326  0.00  0.00    -0.003 A 
ENDBRANCH   2  31
ENDBRANCH   3   2
ENDBRANCH   6   4
ENDBRANCH   7   6
TORSDOF 6
ENDMDL
MODEL 4
REMARK VINA RESULT:     -13.9      1.940      5.494
REMARK  Name = 
REMARK  6 active torsions:
REMARK  status: ('A' for Active; 'I' for Inactive)
REMARK    1  A    between atoms: C_2  and  N_3
REMARK    2  A    between atoms: C_2  and  C_31
REMARK    3  A    between atoms: C_4  and  C_6
REMARK    4  A    between atoms: C_6  and  C_7
REMARK    5  A    between atoms: C_12  and  C_14
REMARK    6  A    between atoms: C_23  and  C_25
REMARK                            x       y       z     vdW  Elec       q    Type
REMARK                         _______ _______ _______ _____ _____    ______ ____
ROOT
ATOM      7  C   UNL     1      -2.527   2.172  24.313  0.00  0.00    +0.050 C 
ATOM      8  C   UNL     1      -1.789   1.803  24.272  0.00  0.00    +0.062 A 
ATOM      9  C   UNL     1      -1.109   2.216  24.492  0.00  0.00    +0.022 A 
ATOM     10  C   UNL     1      -1.167   2.996  24.754  0.00  0.00    +0.034 C 
ATOM     11  C   UNL     1      -1.904   3.364  24.796  0.00  0.00    +0.010 C 
ATOM     12  C   UNL     1      -1.961   4.143  25.058  0.00  0.00    +0.059 C 
ATOM     13  C   UNL     1      -1.146   4.033  25.114  0.00  0.00    +0.005 C 
ATOM     16  C   UNL     1      -2.698   4.512  25.100  0.00  0.00    +0.154 C 
ATOM     17  O   UNL     1      -2.757   5.292  25.362  0.00  0.00    -0.223 OA
ATOM     18  C   UNL     1      -3.378   4.100  24.879  0.00  0.00    +0.033 C 
ATOM     19  C   UNL     1      -3.321   3.319  24.617  0.00  0.00    +0.003 C 
ATOM     20  C   UNL     1      -2.584   2.952  24.575  0.00  0.00    +0.006 C 
ATOM     21  C   UNL     1      -3.263   2.539  24.355  0.00  0.00    +0.000 C 
ATOM     22  S   UNL     1      -0.462   1.712  24.393  0.00  0.00    -0.071 S 
ATOM     23  C   UNL     1      -0.743   0.990  24.112  0.00  0.00    +0.112 A 
ATOM     24  N   UNL     1      -1.562   1.045  24.037  0.00  0.00    -0.243 NA
ENDROOT
BRANCH  23  25
ATOM     25  C   UNL     1      -0.284   0.327  23.937  0.00  0.00    +0.043 A 
ATOM     26  C   UNL     1       0.264   0.356  23.319  0.00  0.00    +0.101 A 
ATOM     27  N   UNL     1       0.722  -0.307  23.144  0.00  0.00    -0.242 NA
ATOM     28  C   UNL     1       0.634  -0.998  23.586  0.00  0.00    +0.099 A 
ATOM     29  C   UNL     1       0.087  -1.027  24.203  0.00  0.00    +0.021 A 
ATOM     30  C   UNL     1      -0.372  -0.364  24.378  0.00  0.00    +0.005 A 
ENDBRANCH  23  25
BRANCH  12  14
ATOM     14  C   UNL     1      -1.736   4.886  25.339  0.00  0.00    +0.184 C 
ATOM     15  O   UNL     1      -0.997   5.195  25.143  0.00  0.00    -0.220 OA
ENDBRANCH  12  14
BRANCH   7   6
ATOM      6  C   UNL     1      -3.206   1.760  24.093  0.00  0.00    +0.093 C 
BRANCH   6   4
ATOM      3  N   UNL     1      -3.824   0.485  24.278  0.00  0.00    -0.203 NA
ATOM      4  C   UNL     1      -3.520   1.184  24.593  0.00  0.00    +0.242 C 
ATOM      5  O   UNL     1      -3.530   1.308  25.409  0.00  0.00    -0.273 OA
BRANCH   3   2
ATOM      1  C   UNL     1      -4.576   0.133  25.441  0.00  0.00    +0.028 C 
ATOM      2  C   UNL     1      -4.138  -0.090  24.779  0.00  0.00    +0.118 C 
BRANCH   2  31
ATOM     31  C   UNL     1      -4.013  -0.890  24.618  0.00  0.00    -0.003 A 
ATOM     32  C   UNL     1      -4.268  -1.211  23.901  0.00  0.00    -0.003 A 
ATOM     33  C   UNL     1      -4.143  -2.011  23.740  0.00  0.00    -0.000 A 
ATOM     34  C   UNL     1      -3.763  -2.490  24.295  0.00  0.00    -0.000 A 
ATOM     35  C   UNL     1      -3.509  -2.168  25.011  0.00  0.00    -0.000 A 
ATOM     36  C   UNL     1      -3.633  -1.369  25.172  0.00  0.00    -0.003 A 
ENDBRANCH   2  31
ENDBRANCH   3   2
ENDBRANCH   6   4
ENDBRANCH   7   6
TORSDOF 6
ENDMDL
MODEL 5
REMARK VINA RESULT:     -13.9      1.629      4.652
REMARK  Name = 
REMARK  6 active torsions:
REMARK  status: ('A' for Active; 'I' for Inactive)
REMARK    1  A    between atoms: C_2  and  N_3
REMARK    2  A    between atoms: C_2  and  C_31
REMARK    3  A    between atoms: C_4  and  C_6
REMARK    4  A    between atoms: C_6  and  C_7
REMARK    5  A    between atoms: C_12  and  C_14
REMARK    6  A    between atoms: C_23  and  C_25
REMARK                            x       y       z     vdW  Elec       q    Type
REMARK                         _______ _______ _______ _____ _____    ______ ____
ROOT
ATOM      7  C   UNL     1      -2.213   2.397  24.602  0.00  0.00    +0.050 C 
ATOM      8  C   UNL     1      -2.989   2.535  24.846  0.00  0.00    +0.062 A 
ATOM      9  C   UNL     1      -3.208   3.282  25.120  0.00  0.00    +0.022 A 
ATOM     10  C   UNL     1      -2.651   3.890  25.150  0.00  0.00    +0.034 C 
ATOM     11  C   UNL     1      -1.876   3.752  24.906  0.00  0.00    +0.010 C 
ATOM     12  C   UNL     1      -1.319   4.359  24.936  0.00  0.00    +0.059 C 
ATOM     13  C   UNL     1      -1.982   4.757  25.225  0.00  0.00    +0.005 C 
ATOM     16  C   UNL     1      -0.543   4.221  24.693  0.00  0.00    +0.154 C 
ATOM     17  O   UNL     1       0.014   4.829  24.723  0.00  0.00    -0.223 OA
ATOM     18  C   UNL     1      -0.324   3.475  24.419  0.00  0.00    +0.033 C 
ATOM     19  C   UNL     1      -0.881   2.866  24.388  0.00  0.00    +0.003 C 
ATOM     20  C   UNL     1      -1.656   3.005  24.632  0.00  0.00    +0.006 C 
ATOM     21  C   UNL     1      -1.437   2.258  24.358  0.00  0.00    +0.000 C 
ATOM     22  S   UNL     1      -4.008   3.255  25.322  0.00  0.00    -0.071 S 
ATOM     23  C   UNL     1      -4.282   2.492  25.173  0.00  0.00    +0.112 A 
ATOM     24  N   UNL     1      -3.653   2.047  24.879  0.00  0.00    -0.243 NA
ENDROOT
BRANCH  23  25
ATOM     25  C   UNL     1      -5.052   2.221  25.296  0.00  0.00    +0.043 A 
ATOM     26  C   UNL     1      -5.476   2.470  25.960  0.00  0.00    +0.101 A 
ATOM     27  N   UNL     1      -6.245   2.198  26.083  0.00  0.00    -0.242 NA
ATOM     28  C   UNL     1      -6.590   1.679  25.543  0.00  0.00    +0.099 A 
ATOM     29  C   UNL     1      -6.167   1.431  24.880  0.00  0.00    +0.021 A 
ATOM     30  C   UNL     1      -5.398   1.702  24.757  0.00  0.00    +0.005 A 
ENDBRANCH  23  25
BRANCH  12  14
ATOM     14  C   UNL     1      -0.992   5.106  25.067  0.00  0.00    +0.184 C 
ATOM     15  O   UNL     1      -1.483   5.761  25.163  0.00  0.00    -0.220 OA
ENDBRANCH  12  14
BRANCH   7   6
ATOM      6  C   UNL     1      -1.994   1.651  24.328  0.00  0.00    +0.093 C 
BRANCH   6   4
ATOM      3  N   UNL     1      -2.123   0.259  24.626  0.00  0.00    -0.203 NA
ATOM      4  C   UNL     1      -1.915   1.023  24.858  0.00  0.00    +0.242 C 
ATOM      5  O   UNL     1      -1.629   1.161  25.619  0.00  0.00    -0.273 OA
BRANCH   3   2
ATOM      1  C   UNL     1      -1.457  -0.348  25.736  0.00  0.00    +0.028 C 
ATOM      2  C   UNL     1      -2.044  -0.368  25.156  0.00  0.00    +0.118 C 
BRANCH   2  31
ATOM     31  C   UNL     1      -2.553  -1.015  25.107  0.00  0.00    -0.003 A 
ATOM     32  C   UNL     1      -2.502  -1.533  24.465  0.00  0.00    -0.003 A 
ATOM     33  C   UNL     1      -3.011  -2.180  24.416  0.00  0.00    -0.000 A 
ATOM     34  C   UNL     1      -3.570  -2.312  25.009  0.00  0.00    -0.000 A 
ATOM     35  C   UNL     1      -3.621  -1.795  25.650  0.00  0.00    -0.000 A 
ATOM     36  C   UNL     1      -3.112  -1.147  25.699  0.00  0.00    -0.003 A 
ENDBRANCH   2  31
ENDBRANCH   3   2
ENDBRANCH   6   4
ENDBRANCH   7   6
TORSDOF 6
ENDMDL
MODEL 6
REMARK VINA RESULT:     -13.5      1.772      4.944
REMARK  Name = 
REMARK  6 active torsions:
REMARK  status: ('A' for Active; 'I' for Inactive)
REMARK    1  A    between atoms: C_2  and  N_3
REMARK    2  A    between atoms: C_2  and  C_31
REMARK    3  A    between atoms: C_4  and  C_6
REMARK    4  A    between atoms: C_6  and  C_7
REMARK    5  A    between atoms: C_12  and  C_14
REMARK    6  A    between atoms: C_23  and  C_25
REMARK                            x       y       z     vdW  Elec       q    Type
REMARK                         _______ _______ _______ _____ _____    ______ ____
ROOT
ATOM      7  C   UNL     1      -3.947   1.404  24.689  0.00  0.00    +0.050 C 
ATOM      8  C   UNL     1      -3.161   1.656  24.644  0.00  0.00    +0.062 A 
ATOM      9  C   UNL     1      -2.963   2.429  24.853  0.00  0.00    +0.022 A 
ATOM     10  C   UNL     1      -3.550   2.950  25.107  0.00  0.00    +0.034 C 
ATOM     11  C   UNL     1      -4.334   2.700  25.152  0.00  0.00    +0.010 C 
ATOM     12  C   UNL     1      -4.920   3.221  25.405  0.00  0.00    +0.059 C 
ATOM     13  C   UNL     1      -4.260   3.713  25.455  0.00  0.00    +0.005 C 
ATOM     16  C   UNL     1      -5.705   2.970  25.450  0.00  0.00    +0.154 C 
ATOM     17  O   UNL     1      -6.293   3.492  25.704  0.00  0.00    -0.223 OA
ATOM     18  C   UNL     1      -5.904   2.197  25.241  0.00  0.00    +0.033 C 
ATOM     19  C   UNL     1      -5.317   1.675  24.987  0.00  0.00    +0.003 C 
ATOM     20  C   UNL     1      -4.532   1.927  24.942  0.00  0.00    +0.006 C 
ATOM     21  C   UNL     1      -4.731   1.154  24.733  0.00  0.00    +0.000 C 
ATOM     22  S   UNL     1      -2.149   2.519  24.754  0.00  0.00    -0.071 S 
ATOM     23  C   UNL     1      -1.845   1.803  24.484  0.00  0.00    +0.112 A 
ATOM     24  N   UNL     1      -2.469   1.268  24.416  0.00  0.00    -0.243 NA
ENDROOT
BRANCH  23  25
ATOM     25  C   UNL     1      -1.053   1.647  24.312  0.00  0.00    +0.043 A 
ATOM     26  C   UNL     1      -0.456   2.065  24.699  0.00  0.00    +0.101 A 
ATOM     27  N   UNL     1       0.336   1.909  24.527  0.00  0.00    -0.242 NA
ATOM     28  C   UNL     1       0.530   1.334  23.967  0.00  0.00    +0.099 A 
ATOM     29  C   UNL     1      -0.066   0.916  23.581  0.00  0.00    +0.021 A 
ATOM     30  C   UNL     1      -0.858   1.072  23.753  0.00  0.00    +0.005 A 
ENDBRANCH  23  25
BRANCH  12  14
ATOM     14  C   UNL     1      -5.278   3.914  25.676  0.00  0.00    +0.184 C 
ATOM     15  O   UNL     1      -4.838   4.607  25.742  0.00  0.00    -0.220 OA
ENDBRANCH  12  14
BRANCH   7   6
ATOM      6  C   UNL     1      -4.144   0.632  24.479  0.00  0.00    +0.093 C 
BRANCH   6   4
ATOM      3  N   UNL     1      -3.735  -0.728  24.632  0.00  0.00    -0.203 NA
ATOM      4  C   UNL     1      -3.922   0.003  24.964  0.00  0.00    +0.242 C 
ATOM      5  O   UNL     1      -3.886   0.107  25.782  0.00  0.00    -0.273 OA
BRANCH   3   2
ATOM      1  C   UNL     1      -3.671  -1.330  25.926  0.00  0.00    +0.028 C 
ATOM      2  C   UNL     1      -3.512  -1.357  25.117  0.00  0.00    +0.118 C 
BRANCH   2  31
ATOM     31  C   UNL     1      -3.131  -2.012  24.793  0.00  0.00    -0.003 A 
ATOM     32  C   UNL     1      -2.306  -2.041  24.770  0.00  0.00    -0.003 A 
ATOM     33  C   UNL     1      -1.924  -2.697  24.446  0.00  0.00    -0.000 A 
ATOM     34  C   UNL     1      -2.367  -3.325  24.145  0.00  0.00    -0.000 A 
ATOM     35  C   UNL     1      -3.191  -3.296  24.168  0.00  0.00    -0.000 A 
ATOM     36  C   UNL     1      -3.573  -2.640  24.491  0.00  0.00    -0.003 A 
ENDBRANCH   2  31
ENDBRANCH   3   2
ENDBRANCH   6   4
ENDBRANCH   7   6
TORSDOF 6
ENDMDL
MODEL 7
REMARK VINA RESULT:     -12.5      1.799      4.407
REMARK  Name = 
REMARK  6 active torsions:
REMARK  status: ('A' for Active; 'I' for Inactive)
REMARK    1  A    between atoms: C_2  and  N_3
REMARK    2  A    between atoms: C_2  and  C_31
REMARK    3  A    between atoms: C_4  and  C_6
REMARK    4  A    between atoms: C_6  and  C_7
REMARK    5  A    between atoms: C_12  and  C_14
REMARK    6  A    between atoms: C_23  and  C_25
REMARK                            x       y       z     vdW  Elec       q    Type
REMARK                         _______ _______ _______ _____ _____    ______ ____
ROOT
ATOM      7  C   UNL     1      -1.442   0.930  24.669  0.00  0.00    +0.050 C 
ATOM      8  C   UNL     1      -1.713   0.164  24.522  0.00  0.00    +0.062 A 
ATOM      9  C   UNL     1      -1.222  -0.383  24.148  0.00  0.00    +0.022 A 
ATOM     10  C   UNL     1      -0.459  -0.164  23.921  0.00  0.00    +0.034 C 
ATOM     11  C   UNL     1      -0.188   0.600  24.068  0.00  0.00    +0.010 C 
ATOM     12  C   UNL     1       0.574   0.818  23.841  0.00  0.00    +0.059 C 
ATOM     13  C   UNL     1       0.567   0.035  23.584  0.00  0.00    +0.005 C 
ATOM     16  C   UNL     1       0.845   1.584  23.987  0.00  0.00    +0.154 C 
ATOM     17  O   UNL     1       1.608   1.803  23.760  0.00  0.00    -0.223 OA
ATOM     18  C   UNL     1       0.354   2.131  24.361  0.00  0.00    +0.033 C 
ATOM     19  C   UNL     1      -0.409   1.913  24.589  0.00  0.00    +0.003 C 
ATOM     20  C   UNL     1      -0.680   1.147  24.442  0.00  0.00    +0.006 C 
ATOM     21  C   UNL     1      -1.171   1.694  24.816  0.00  0.00    +0.000 C 
ATOM     22  S   UNL     1      -1.638  -1.093  24.077  0.00  0.00    -0.071 S 
ATOM     23  C   UNL     1      -2.385  -0.983  24.407  0.00  0.00    +0.112 A 
ATOM     24  N   UNL     1      -2.433  -0.207  24.682  0.00  0.00    -0.243 NA
ENDROOT
BRANCH  23  25
ATOM     25  C   UNL     1      -2.982  -1.551  24.453  0.00  0.00    +0.043 A 
ATOM     26  C   UNL     1      -2.916  -2.177  24.988  0.00  0.00    +0.101 A 
ATOM     27  N   UNL     1      -3.513  -2.745  25.035  0.00  0.00    -0.242 NA
ATOM     28  C   UNL     1      -4.175  -2.687  24.546  0.00  0.00    +0.099 A 
ATOM     29  C   UNL     1      -4.241  -2.062  24.012  0.00  0.00    +0.021 A 
ATOM     30  C   UNL     1      -3.645  -1.495  23.966  0.00  0.00    +0.005 A 
ENDBRANCH  23  25
BRANCH  12  14
ATOM     14  C   UNL     1       1.334   0.765  23.524  0.00  0.00    +0.184 C 
ATOM     15  O   UNL     1       1.532   0.136  23.030  0.00  0.00    -0.220 OA
ENDBRANCH  12  14
BRANCH   7   6
ATOM      6  C   UNL     1      -1.933   1.476  25.043  0.00  0.00    +0.093 C 
BRANCH   6   4
ATOM      3  N   UNL     1      -3.251   2.029  25.043  0.00  0.00    -0.203 NA
ATOM      4  C   UNL     1      -2.569   1.807  24.635  0.00  0.00    +0.242 C 
ATOM      5  O   UNL     1      -2.523   1.914  23.818  0.00  0.00    -0.273 OA
BRANCH   3   2
ATOM      1  C   UNL     1      -3.766   2.709  23.896  0.00  0.00    +0.028 C 
ATOM      2  C   UNL     1      -3.886   2.360  24.634  0.00  0.00    +0.118 C 
BRANCH   2  31
ATOM     31  C   UNL     1      -4.642   2.341  24.963  0.00  0.00    -0.003 A 
ATOM     32  C   UNL     1      -4.868   2.912  25.514  0.00  0.00    -0.003 A 
ATOM     33  C   UNL     1      -5.624   2.893  25.843  0.00  0.00    -0.000 A 
ATOM     34  C   UNL     1      -6.156   2.302  25.620  0.00  0.00    -0.000 A 
ATOM     35  C   UNL     1      -5.931   1.731  25.069  0.00  0.00    -0.000 A 
ATOM     36  C   UNL     1      -5.174   1.751  24.741  0.00  0.00    -0.003 A 
ENDBRANCH   2  31
ENDBRANCH   3   2
ENDBRANCH   6   4
ENDBRANCH   7   6
TORSDOF 6
ENDMDL
