MODEL 1
REMARK VINA RESULT:      -9.4      0.000      0.000
REMARK  Name = 
REMARK  9 active torsions:
REMARK  status: ('A' for Active; 'I' for Inactive)
REMARK    1  A    between atoms: C_2  and  C_4
REMARK    2  A    between atoms: C_6  and  C_7
REMARK    3  A    between atoms: C_7  and  C_8
REMARK    4  A    between atoms: N_10  and  C_12
REMARK    5  A    between atoms: C_12  and  C_13
REMARK    6  A    between atoms: C_22  and  C_23
REMARK    7  A    between atoms: C_23  and  N_24
REMARK    8  A    between atoms: C_25  and  C_27
REMARK    9  A    between atoms: C_30  and  N_31
REMARK                            x       y       z     vdW  Elec       q    Type
REMARK                         _______ _______ _______ _____ _____    ______ ____
ROOT
ATOM      4  C   UNL     1      -0.979   0.817  24.339  0.00  0.00    +0.006 C 
ATOM      5  C   UNL     1      -1.432   1.421  24.668  0.00  0.00    +0.005 C 
ATOM      6  C   UNL     1      -1.175   2.204  24.618  0.00  0.00    +0.027 C 
ATOM     19  C   UNL     1      -0.465   2.381  24.238  0.00  0.00    -0.048 C 
ATOM     20  C   UNL     1      -0.208   3.164  24.187  0.00  0.00    +0.026 C 
ATOM     21  C   UNL     1      -0.011   1.776  23.908  0.00  0.00    -0.033 C 
ATOM     22  C   UNL     1      -0.268   0.994  23.958  0.00  0.00    +0.043 C 
ENDROOT
BRANCH   4   2
ATOM      1  C   UNL     1      -1.748  -0.270  23.819  0.00  0.00    +0.000 C 
ATOM      2  C   UNL     1      -1.235   0.034  24.389  0.00  0.00    +0.000 C 
ATOM      3  C   UNL     1      -0.977  -0.445  25.009  0.00  0.00    +0.000 C 
ENDBRANCH   4   2
BRANCH   6   7
ATOM      7  C   UNL     1      -1.629   2.809  24.947  0.00  0.00    +0.089 C 
BRANCH   7   8
ATOM      8  C   UNL     1      -2.357   3.008  24.614  0.00  0.00    +0.226 C 
ATOM      9  O   UNL     1      -2.442   3.032  23.794  0.00  0.00    -0.275 OA
ATOM     10  N   UNL     1      -2.999   3.183  25.100  0.00  0.00    -0.274 N 
ATOM     11  C   UNL     1      -2.914   3.159  25.920  0.00  0.00    +0.115 C 
BRANCH  10  12
ATOM     12  C   UNL     1      -3.726   3.382  24.767  0.00  0.00    +0.120 C 
BRANCH  12  13
ATOM     13  C   UNL     1      -4.415   3.006  25.022  0.00  0.00    -0.002 A 
ATOM     14  C   UNL     1      -4.806   3.276  25.696  0.00  0.00    -0.003 A 
ATOM     15  C   UNL     1      -5.495   2.899  25.952  0.00  0.00    -0.000 A 
ATOM     16  C   UNL     1      -5.792   2.254  25.533  0.00  0.00    -0.000 A 
ATOM     17  C   UNL     1      -5.400   1.984  24.859  0.00  0.00    -0.000 A 
ATOM     18  C   UNL     1      -4.713   2.360  24.604  0.00  0.00    -0.003 A 
ENDBRANCH  12  13
ENDBRANCH  10  12
ENDBRANCH   7   8
ENDBRANCH   6   7
BRANCH  22  23
ATOM     23  C   UNL     1       0.186   0.388  23.628  0.00  0.00    +0.120 C 
BRANCH  23  24
ATOM     24  N   UNL     1       1.008   0.458  23.599  0.00  0.00    -0.201 NA
ATOM     25  C   UNL     1       1.432   0.089  22.994  0.00  0.00    +0.265 C 
ATOM     26  O   UNL     1       1.033  -0.349  22.420  0.00  0.00    -0.268 OA
BRANCH  25  27
ATOM     27  C   UNL     1       2.253   0.158  22.965  0.00  0.00    +0.055 A 
ATOM     28  C   UNL     1       2.599   0.889  22.806  0.00  0.00    +0.006 A 
ATOM     29  C   UNL     1       3.421   0.959  22.776  0.00  0.00    +0.017 A 
ATOM     30  C   UNL     1       3.895   0.297  22.906  0.00  0.00    +0.073 A 
ATOM     35  C   UNL     1       3.549  -0.435  23.065  0.00  0.00    +0.017 A 
ATOM     36  C   UNL     1       2.728  -0.504  23.094  0.00  0.00    +0.006 A 
BRANCH  30  31
ATOM     31  N   UNL     1       4.718   0.367  22.876  0.00  0.00    -0.179 NA
ATOM     32  C   UNL     1       5.153   0.410  23.576  0.00  0.00    +0.246 C 
ATOM     33  C   UNL     1       5.975   0.480  23.546  0.00  0.00    +0.097 C 
ATOM     34  O   UNL     1       4.768   0.384  24.304  0.00  0.00    -0.273 OA
ENDBRANCH  30  31
ENDBRANCH  25  27
ENDBRANCH  23  24
ENDBRANCH  22  23
TORSDOF 9
ENDMDL
MODEL 2
REMARK VINA RESULT:      -8.7      1.484      7.127
REMARK  Name = 
REMARK  9 active torsions:
REMARK  status: ('A' for Active; 'I' for Inactive)
REMARK    1  A    between atoms: C_2  and  C_4
REMARK    2  A    between atoms: C_6  and  C_7
REMARK    3  A    between atoms: C_7  and  C_8
REMARK    4  A    between atoms: N_10  and  C_12
REMARK    5  A    between atoms: C_12  and  C_13
REMARK    6  A    between atoms: C_22  and  C_23
REMARK    7  A    between atoms: C_23  and  N_24
REMARK    8  A    between atoms: C_25  and  C_27
REMARK    9  A    between atoms: C_30  and  N_31
REMARK                            x       y       z     vdW  Elec       q    Type
REMARK                         _______ _______ _______ _____ _____    ______ ____
ROOT
ATOM      4  C   UNL     1      -0.663  -0.362  24.325  0.00  0.00    +0.006 C 
ATOM      5  C   UNL     1       0.092  -0.104  24.116  0.00  0.00    +0.005 C 
ATOM      6  C   UNL     1       0.195   0.639  23.774  0.00  0.00    +0.027 C 
ATOM     19  C   UNL     1      -0.458   1.125  23.640  0.00  0.00    -0.048 C 
ATOM     20  C   UNL     1      -0.356   1.868  23.297  0.00  0.00    +0.026 C 
ATOM     21  C   UNL     1      -1.214   0.867  23.848  0.00  0.00    -0.033 C 
ATOM     22  C   UNL     1      -1.316   0.124  24.191  0.00  0.00    +0.043 C 
ENDROOT
BRANCH   4   2
ATOM      1  C   UNL     1      -0.674  -1.202  25.481  0.00  0.00    +0.000 C 
ATOM      2  C   UNL     1      -0.766  -1.106  24.667  0.00  0.00    +0.000 C 
ATOM      3  C   UNL     1      -0.960  -1.754  24.195  0.00  0.00    +0.000 C 
ENDBRANCH   4   2
BRANCH   6   7
ATOM      7  C   UNL     1       0.950   0.897  23.565  0.00  0.00    +0.089 C 
BRANCH   7   8
ATOM      8  C   UNL     1       1.458   0.395  23.152  0.00  0.00    +0.226 C 
ATOM      9  O   UNL     1       1.156  -0.261  22.753  0.00  0.00    -0.275 OA
ATOM     10  N   UNL     1       2.268   0.549  23.136  0.00  0.00    -0.274 N 
ATOM     11  C   UNL     1       2.571   1.206  23.534  0.00  0.00    +0.115 C 
BRANCH  10  12
ATOM     12  C   UNL     1       2.776   0.048  22.723  0.00  0.00    +0.120 C 
BRANCH  12  13
ATOM     13  C   UNL     1       3.565  -0.021  22.952  0.00  0.00    -0.002 A 
ATOM     14  C   UNL     1       4.110   0.560  22.735  0.00  0.00    -0.003 A 
ATOM     15  C   UNL     1       4.900   0.492  22.964  0.00  0.00    -0.000 A 
ATOM     16  C   UNL     1       5.145  -0.158  23.409  0.00  0.00    -0.000 A 
ATOM     17  C   UNL     1       4.601  -0.739  23.626  0.00  0.00    -0.000 A 
ATOM     18  C   UNL     1       3.812  -0.670  23.398  0.00  0.00    -0.003 A 
ENDBRANCH  12  13
ENDBRANCH  10  12
ENDBRANCH   7   8
ENDBRANCH   6   7
BRANCH  22  23
ATOM     23  C   UNL     1      -2.072  -0.134  24.400  0.00  0.00    +0.120 C 
BRANCH  23  24
ATOM     24  N   UNL     1      -2.661   0.416  24.576  0.00  0.00    -0.201 NA
ATOM     25  C   UNL     1      -3.456   0.212  24.485  0.00  0.00    +0.265 C 
ATOM     26  O   UNL     1      -3.661  -0.541  24.219  0.00  0.00    -0.268 OA
BRANCH  25  27
ATOM     27  C   UNL     1      -4.046   0.762  24.661  0.00  0.00    +0.055 A 
ATOM     28  C   UNL     1      -4.573   0.617  25.279  0.00  0.00    +0.006 A 
ATOM     29  C   UNL     1      -5.162   1.167  25.455  0.00  0.00    +0.017 A 
ATOM     30  C   UNL     1      -5.224   1.861  25.013  0.00  0.00    +0.073 A 
ATOM     35  C   UNL     1      -4.696   2.006  24.395  0.00  0.00    +0.017 A 
ATOM     36  C   UNL     1      -4.107   1.456  24.219  0.00  0.00    +0.006 A 
BRANCH  30  31
ATOM     31  N   UNL     1      -5.814   2.411  25.190  0.00  0.00    -0.179 NA
ATOM     32  C   UNL     1      -5.630   3.087  25.627  0.00  0.00    +0.246 C 
ATOM     33  C   UNL     1      -6.219   3.636  25.803  0.00  0.00    +0.097 C 
ATOM     34  O   UNL     1      -4.858   3.213  25.887  0.00  0.00    -0.273 OA
ENDBRANCH  30  31
ENDBRANCH  25  27
ENDBRANCH  23  24
ENDBRANCH  22  23
TORSDOF 9
ENDMDL
MODEL 3
REMARK VINA RESULT:      -6.8      1.174      7.227
REMARK  Name = 
REMARK  9 active torsions:
REMARK  status: ('A' for Active; 'I' for Inactive)
REMARK    1  A    between atoms: C_2  and  C_4
REMARK    2  A    between atoms: C_6  and  C_7
REMARK    3  A    between atoms: C_7  and  C_8
REMARK    4  A    between atoms: N_10  and  C_12
REMARK    5  A    between atoms: C_12  and  C_13
REMARK    6  A    between atoms: C_22  and  C_23
REMARK    7  A    between atoms: C_23  and  N_24
REMARK    8  A    between atoms: C_25  and  C_27
REMARK    9  A    between atoms: C_30  and  N_31
REMARK                            x       y       z     vdW  Elec       q    Type
REMARK                         _______ _______ _______ _____ _____    ______ ____
ROOT
ATOM      4  C   UNL     1      -0.329   2.152  24.281  0.00  0.00    +0.006 C 
ATOM      5  C   UNL     1       0.145   1.503  24.097  0.00  0.00    +0.005 C 
ATOM      6  C   UNL     1      -0.199   0.800  23.836  0.00  0.00    +0.027 C 
ATOM     19  C   UNL     1      -1.019   0.747  23.760  0.00  0.00    -0.048 C 
ATOM     20  C   UNL     1      -1.365   0.045  23.500  0.00  0.00    +0.026 C 
ATOM     21  C   UNL     1      -1.494   1.397  23.945  0.00  0.00    -0.033 C 
ATOM     22  C   UNL     1      -1.148   2.099  24.206  0.00  0.00    +0.043 C 
ENDROOT
BRANCH   4   2
ATOM      1  C   UNL     1       0.189   2.959  25.341  0.00  0.00    +0.000 C 
ATOM      2  C   UNL     1       0.016   2.855  24.542  0.00  0.00    +0.000 C 
ATOM      3  C   UNL     1       0.188   3.455  24.002  0.00  0.00    +0.000 C 
ENDBRANCH   4   2
BRANCH   6   7
ATOM      7  C   UNL     1       0.275   0.152  23.652  0.00  0.00    +0.089 C 
BRANCH   7   8
ATOM      8  C   UNL     1       0.829   0.205  23.043  0.00  0.00    +0.226 C 
ATOM      9  O   UNL     1       0.623   0.559  22.327  0.00  0.00    -0.275 OA
ATOM     10  N   UNL     1       1.590  -0.095  23.150  0.00  0.00    -0.274 N 
ATOM     11  C   UNL     1       1.796  -0.450  23.866  0.00  0.00    +0.115 C 
BRANCH  10  12
ATOM     12  C   UNL     1       2.143  -0.042  22.541  0.00  0.00    +0.120 C 
BRANCH  12  13
ATOM     13  C   UNL     1       2.934   0.120  22.715  0.00  0.00    -0.002 A 
ATOM     14  C   UNL     1       3.424  -0.478  23.001  0.00  0.00    -0.003 A 
ATOM     15  C   UNL     1       4.215  -0.316  23.175  0.00  0.00    -0.000 A 
ATOM     16  C   UNL     1       4.514   0.444  23.062  0.00  0.00    -0.000 A 
ATOM     17  C   UNL     1       4.023   1.043  22.776  0.00  0.00    -0.000 A 
ATOM     18  C   UNL     1       3.234   0.881  22.603  0.00  0.00    -0.003 A 
ENDBRANCH  12  13
ENDBRANCH  10  12
ENDBRANCH   7   8
ENDBRANCH   6   7
BRANCH  22  23
ATOM     23  C   UNL     1      -1.623   2.748  24.390  0.00  0.00    +0.120 C 
BRANCH  23  24
ATOM     24  N   UNL     1      -2.377   2.632  24.705  0.00  0.00    -0.201 NA
ATOM     25  C   UNL     1      -2.938   3.237  24.668  0.00  0.00    +0.265 C 
ATOM     26  O   UNL     1      -2.744   3.957  24.316  0.00  0.00    -0.268 OA
BRANCH  25  27
ATOM     27  C   UNL     1      -3.692   3.121  24.983  0.00  0.00    +0.055 A 
ATOM     28  C   UNL     1      -4.283   2.781  24.521  0.00  0.00    +0.006 A 
ATOM     29  C   UNL     1      -5.037   2.665  24.836  0.00  0.00    +0.017 A 
ATOM     30  C   UNL     1      -5.198   2.888  25.613  0.00  0.00    +0.073 A 
ATOM     35  C   UNL     1      -4.606   3.229  26.076  0.00  0.00    +0.017 A 
ATOM     36  C   UNL     1      -3.852   3.345  25.761  0.00  0.00    +0.006 A 
BRANCH  30  31
ATOM     31  N   UNL     1      -5.952   2.772  25.928  0.00  0.00    -0.179 NA
ATOM     32  C   UNL     1      -6.186   2.018  26.169  0.00  0.00    +0.246 C 
ATOM     33  C   UNL     1      -6.940   1.902  26.484  0.00  0.00    +0.097 C 
ATOM     34  O   UNL     1      -5.668   1.382  26.095  0.00  0.00    -0.273 OA
ENDBRANCH  30  31
ENDBRANCH  25  27
ENDBRANCH  23  24
ENDBRANCH  22  23
TORSDOF 9
ENDMDL
