REMARK  Name = 
REMARK  7 active torsions:
REMARK  status: ('A' for Active; 'I' for Inactive)
REMARK    1  A    between atoms: C_2  and  N_3
REMARK    2  A    between atoms: C_4  and  O_6
REMARK    3  A    between atoms: O_6  and  C_7
REMARK    4  A    between atoms: C_11  and  N_15
REMARK    5  A    between atoms: N_18  and  C_19
REMARK    6  A    between atoms: C_22  and  O_23
REMARK    7  A    between atoms: O_23  and  C_24
REMARK                            x       y       z     vdW  Elec       q    Type
REMARK                         _______ _______ _______ _____ _____    ______ ____
ROOT
ATOM     15  N   UNL     1       3.094   1.197   0.000  0.00  0.00    -0.184 NA
ATOM     16  C   UNL     1       3.901   1.369   0.000  0.00  0.00    +0.344 C 
ATOM     17  O   UNL     1       4.453   0.756   0.000  0.00  0.00    -0.249 OA
ATOM     18  N   UNL     1       4.156   2.153   0.000  0.00  0.00    -0.161 NA
ENDROOT
BRANCH  15  11
ATOM      7  C   UNL     1       1.270  -0.922   0.000  0.00  0.00    +0.229 C 
ATOM      8  C   UNL     1       0.785  -0.255   0.000  0.00  0.00    +0.188 C 
ATOM      9  O   UNL     1       1.270   0.412   0.000  0.00  0.00    -0.348 OA
ATOM     10  C   UNL     1       2.054   0.158   0.000  0.00  0.00    +0.168 C 
ATOM     11  C   UNL     1       2.839   0.412   0.000  0.00  0.00    +0.156 C 
ATOM     12  C   UNL     1       3.324  -0.255   0.000  0.00  0.00    +0.166 C 
ATOM     13  O   UNL     1       2.839  -0.922   0.000  0.00  0.00    -0.348 OA
ATOM     14  C   UNL     1       2.054  -0.667   0.000  0.00  0.00    +0.186 C 
BRANCH   7   6
ATOM      6  O   UNL     1       1.015  -1.707   0.000  0.00  0.00    -0.432 OA
BRANCH   6   4
ATOM      3  N   UNL     1      -0.047  -2.663   0.000  0.00  0.00    -0.169 NA
ATOM      4  C   UNL     1       0.208  -1.879   0.000  0.00  0.00    +0.421 C 
ATOM      5  O   UNL     1      -0.344  -1.265   0.000  0.00  0.00    -0.225 OA
BRANCH   3   2
ATOM      1  C   UNL     1      -1.109  -3.619   0.000  0.00  0.00    +0.025 C 
ATOM      2  C   UNL     1      -0.854  -2.835   0.000  0.00  0.00    +0.119 C 
ENDBRANCH   3   2
ENDBRANCH   6   4
ENDBRANCH   7   6
ENDBRANCH  15  11
BRANCH  18  19
ATOM     19  C   UNL     1       4.963   2.325   0.000  0.00  0.00    +0.075 A 
ATOM     20  C   UNL     1       5.218   3.109   0.000  0.00  0.00    +0.020 A 
ATOM     21  C   UNL     1       6.024   3.281   0.000  0.00  0.00    +0.039 A 
ATOM     22  C   UNL     1       6.577   2.668   0.000  0.00  0.00    +0.145 A 
ATOM     30  C   UNL     1       6.322   1.883   0.000  0.00  0.00    +0.039 A 
ATOM     31  C   UNL     1       5.515   1.712   0.000  0.00  0.00    +0.020 A 
BRANCH  22  23
ATOM     23  O   UNL     1       7.383   2.839   0.000  0.00  0.00    -0.453 OA
BRANCH  23  24
ATOM     24  C   UNL     1       7.638   3.624   0.000  0.00  0.00    +0.145 A 
ATOM     25  C   UNL     1       7.086   4.237   0.000  0.00  0.00    +0.037 A 
ATOM     26  C   UNL     1       7.341   5.022   0.000  0.00  0.00    +0.003 A 
ATOM     27  C   UNL     1       8.148   5.193   0.000  0.00  0.00    +0.000 A 
ATOM     28  C   UNL     1       8.700   4.580   0.000  0.00  0.00    +0.003 A 
ATOM     29  C   UNL     1       8.445   3.796   0.000  0.00  0.00    +0.037 A 
ENDBRANCH  23  24
ENDBRANCH  22  23
ENDBRANCH  18  19
TORSDOF 7
