REMARK  Name = 
REMARK  10 active torsions:
REMARK  status: ('A' for Active; 'I' for Inactive)
REMARK    1  A    between atoms: C_2  and  O_5
REMARK    2  A    between atoms: O_5  and  C_6
REMARK    3  A    between atoms: C_6  and  C_8
REMARK    4  A    between atoms: C_8  and  C_9
REMARK    5  A    between atoms: C_14  and  C_15
REMARK    6  A    between atoms: C_15  and  C_16
REMARK    7  A    between atoms: C_16  and  N_17
REMARK    8  A    between atoms: N_31  and  C_32
REMARK    9  A    between atoms: C_35  and  O_36
REMARK   10  A    between atoms: O_36  and  C_37
REMARK                            x       y       z     vdW  Elec       q    Type
REMARK                         _______ _______ _______ _____ _____    ______ ____
ROOT
ATOM      9  C   UNL     1       1.429  -2.475   0.000  0.00  0.00    +0.014 C 
ATOM     10  C   UNL     1       2.143  -2.888   0.000  0.00  0.00    +0.022 C 
ATOM     11  C   UNL     1       2.143  -3.712   0.000  0.00  0.00    +0.095 C 
ATOM     12  N   UNL     1       1.429  -4.125   0.000  0.00  0.00    -0.263 N 
ATOM     13  C   UNL     1       0.715  -3.712   0.000  0.00  0.00    +0.095 C 
ATOM     14  C   UNL     1       0.715  -2.888   0.000  0.00  0.00    +0.022 C 
ATOM     29  C   UNL     1       1.429  -4.950   0.000  0.00  0.00    +0.327 C 
ATOM     30  O   UNL     1       0.715  -5.362   0.000  0.00  0.00    -0.250 OA
ATOM     31  N   UNL     1       2.143  -5.362   0.000  0.00  0.00    -0.162 NA
ENDROOT
BRANCH  31  32
ATOM     32  C   UNL     1       2.143  -6.188   0.000  0.00  0.00    +0.075 A 
ATOM     33  C   UNL     1       2.858  -6.600   0.000  0.00  0.00    +0.020 A 
ATOM     34  C   UNL     1       2.858  -7.425   0.000  0.00  0.00    +0.039 A 
ATOM     35  C   UNL     1       2.143  -7.838   0.000  0.00  0.00    +0.147 A 
ATOM     41  C   UNL     1       1.429  -7.425   0.000  0.00  0.00    +0.039 A 
ATOM     42  C   UNL     1       1.429  -6.600   0.000  0.00  0.00    +0.020 A 
BRANCH  35  36
ATOM     36  O   UNL     1       2.143  -8.662   0.000  0.00  0.00    -0.404 OA
BRANCH  36  37
ATOM     37  C   UNL     1       2.858  -9.075   0.000  0.00  0.00    +0.575 C 
ATOM     38  F   UNL     1       3.572  -9.488   0.000  0.00  0.00    -0.133 F 
ATOM     39  F   UNL     1       2.445  -9.790   0.000  0.00  0.00    -0.133 F 
ATOM     40  F   UNL     1       3.270  -8.361   0.000  0.00  0.00    -0.133 F 
ENDBRANCH  36  37
ENDBRANCH  35  36
ENDBRANCH  31  32
BRANCH   9   8
ATOM      8  C   UNL     1       1.429  -1.650   0.000  0.00  0.00    +0.110 C 
BRANCH   8   6
ATOM      6  C   UNL     1       2.143  -1.238   0.000  0.00  0.00    +0.317 C 
ATOM      7  O   UNL     1       2.143  -0.412   0.000  0.00  0.00    -0.250 OA
BRANCH   6   5
ATOM      5  O   UNL     1       2.858  -1.650   0.000  0.00  0.00    -0.456 OA
BRANCH   5   2
ATOM      1  C   UNL     1       4.287  -0.825   0.000  0.00  0.00    +0.044 C 
ATOM      2  C   UNL     1       3.572  -1.238   0.000  0.00  0.00    +0.136 C 
ATOM      3  C   UNL     1       3.985  -1.952   0.000  0.00  0.00    +0.044 C 
ATOM      4  C   UNL     1       3.160  -0.523   0.000  0.00  0.00    +0.044 C 
ENDBRANCH   5   2
ENDBRANCH   6   5
ENDBRANCH   8   6
ENDBRANCH   9   8
BRANCH  14  15
ATOM     15  C   UNL     1       0.000  -2.475   0.000  0.00  0.00    +0.019 C 
BRANCH  15  16
ATOM     16  C   UNL     1       0.000  -1.650   0.000  0.00  0.00    +0.072 C 
BRANCH  16  17
ATOM     17  N   UNL     1      -0.715  -1.238   0.000  0.00  0.00    -0.270 NA
ATOM     18  C   UNL     1      -1.429  -1.650   0.000  0.00  0.00    +0.094 C 
ATOM     19  C   UNL     1      -2.143  -1.238   0.000  0.00  0.00    +0.109 C 
ATOM     20  N   UNL     1      -2.143  -0.412   0.000  0.00  0.00    -0.290 N 
ATOM     21  C   UNL     1      -1.429   0.000   0.000  0.00  0.00    +0.109 C 
ATOM     22  C   UNL     1      -0.715  -0.412   0.000  0.00  0.00    +0.094 C 
ATOM     23  C   UNL     1      -2.858   0.000   0.000  0.00  0.00    +0.132 A 
ATOM     24  N   UNL     1      -3.572  -0.412   0.000  0.00  0.00    -0.229 NA
ATOM     25  C   UNL     1      -4.287   0.000   0.000  0.00  0.00    +0.100 A 
ATOM     26  C   UNL     1      -4.287   0.825   0.000  0.00  0.00    +0.021 A 
ATOM     27  C   UNL     1      -3.572   1.238   0.000  0.00  0.00    +0.004 A 
ATOM     28  C   UNL     1      -2.858   0.825   0.000  0.00  0.00    +0.034 A 
ENDBRANCH  16  17
ENDBRANCH  15  16
ENDBRANCH  14  15
TORSDOF 10
