MODEL 1
REMARK VINA RESULT:      -8.9      0.000      0.000
REMARK  Name = 
REMARK  7 active torsions:
REMARK  status: ('A' for Active; 'I' for Inactive)
REMARK    1  A    between atoms: C_6  and  C_7
REMARK    2  A    between atoms: C_7  and  N_8
REMARK    3  A    between atoms: N_8  and  C_9
REMARK    4  A    between atoms: C_12  and  C_13
REMARK    5  A    between atoms: C_13  and  N_14
REMARK    6  A    between atoms: N_14  and  S_15
REMARK    7  A    between atoms: S_15  and  C_18
REMARK                            x       y       z     vdW  Elec       q    Type
REMARK                         _______ _______ _______ _____ _____    ______ ____
ROOT
ATOM      9  C   UNL     1      -4.033   0.461  24.456  0.00  0.00    +0.136 C 
ATOM     10  C   UNL     1      -4.506   0.811  25.033  0.00  0.00    +0.162 C 
ATOM     11  O   UNL     1      -4.256   1.592  25.129  0.00  0.00    -0.350 OA
ATOM     12  C   UNL     1      -3.628   1.724  24.610  0.00  0.00    +0.166 C 
ATOM     24  C   UNL     1      -3.490   1.025  24.194  0.00  0.00    +0.199 C 
ATOM     25  O   UNL     1      -2.911   0.910  23.618  0.00  0.00    -0.219 OA
ENDROOT
BRANCH   9   8
ATOM      8  N   UNL     1      -4.092  -0.317  24.187  0.00  0.00    -0.206 NA
BRANCH   8   7
ATOM      7  C   UNL     1      -4.041  -0.943  24.722  0.00  0.00    +0.152 C 
BRANCH   7   6
ATOM      1  C   UNL     1      -3.205  -2.306  25.537  0.00  0.00    +0.132 C 
ATOM      2  N   UNL     1      -3.611  -2.345  24.820  0.00  0.00    -0.311 N 
ATOM      3  C   UNL     1      -3.704  -3.019  24.352  0.00  0.00    +0.098 A 
ATOM      4  C   UNL     1      -4.146  -2.808  23.687  0.00  0.00    +0.119 A 
ATOM      5  N   UNL     1      -4.326  -2.005  23.745  0.00  0.00    -0.228 NA
ATOM      6  C   UNL     1      -3.995  -1.719  24.445  0.00  0.00    +0.138 A 
ENDBRANCH   7   6
ENDBRANCH   8   7
ENDBRANCH   9   8
BRANCH  12  13
ATOM     13  C   UNL     1      -3.212   2.431  24.523  0.00  0.00    +0.148 C 
BRANCH  13  14
ATOM     14  N   UNL     1      -3.046   2.896  25.183  0.00  0.00    -0.075 NA
BRANCH  14  15
ATOM     15  S   UNL     1      -2.493   3.505  25.130  0.00  0.00    +0.077 S 
ATOM     16  O   UNL     1      -2.006   3.109  25.665  0.00  0.00    -0.152 OA
ATOM     17  O   UNL     1      -2.981   3.902  24.595  0.00  0.00    -0.152 OA
BRANCH  15  18
ATOM     18  C   UNL     1      -1.939   4.115  25.078  0.00  0.00    +0.124 A 
ATOM     19  C   UNL     1      -2.171   4.895  25.215  0.00  0.00    +0.020 A 
ATOM     20  C   UNL     1      -1.617   5.505  25.163  0.00  0.00    +0.001 A 
ATOM     21  C   UNL     1      -0.833   5.334  24.973  0.00  0.00    +0.000 A 
ATOM     22  C   UNL     1      -0.601   4.554  24.836  0.00  0.00    +0.001 A 
ATOM     23  C   UNL     1      -1.155   3.945  24.888  0.00  0.00    +0.020 A 
ENDBRANCH  15  18
ENDBRANCH  14  15
ENDBRANCH  13  14
ENDBRANCH  12  13
TORSDOF 7
ENDMDL
MODEL 2
REMARK VINA RESULT:      -8.8      1.959      5.949
REMARK  Name = 
REMARK  7 active torsions:
REMARK  status: ('A' for Active; 'I' for Inactive)
REMARK    1  A    between atoms: C_6  and  C_7
REMARK    2  A    between atoms: C_7  and  N_8
REMARK    3  A    between atoms: N_8  and  C_9
REMARK    4  A    between atoms: C_12  and  C_13
REMARK    5  A    between atoms: C_13  and  N_14
REMARK    6  A    between atoms: N_14  and  S_15
REMARK    7  A    between atoms: S_15  and  C_18
REMARK                            x       y       z     vdW  Elec       q    Type
REMARK                         _______ _______ _______ _____ _____    ______ ____
ROOT
ATOM      9  C   UNL     1      -1.044   1.924  25.105  0.00  0.00    +0.136 C 
ATOM     10  C   UNL     1      -0.785   1.515  25.773  0.00  0.00    +0.162 C 
ATOM     11  O   UNL     1      -1.017   0.727  25.695  0.00  0.00    -0.350 OA
ATOM     12  C   UNL     1      -1.420   0.649  24.979  0.00  0.00    +0.166 C 
ATOM     24  C   UNL     1      -1.437   1.389  24.614  0.00  0.00    +0.199 C 
ATOM     25  O   UNL     1      -1.785   1.563  23.887  0.00  0.00    -0.219 OA
ENDROOT
BRANCH   9   8
ATOM      8  N   UNL     1      -0.931   2.727  24.954  0.00  0.00    -0.206 NA
BRANCH   8   7
ATOM      7  C   UNL     1      -1.263   3.292  25.456  0.00  0.00    +0.152 C 
BRANCH   7   6
ATOM      1  C   UNL     1      -2.523   4.521  25.806  0.00  0.00    +0.132 C 
ATOM      2  N   UNL     1      -1.808   4.656  25.418  0.00  0.00    -0.311 N 
ATOM      3  C   UNL     1      -1.546   5.381  25.122  0.00  0.00    +0.098 A 
ATOM      4  C   UNL     1      -0.805   5.264  24.778  0.00  0.00    +0.119 A 
ATOM      5  N   UNL     1      -0.609   4.467  24.862  0.00  0.00    -0.228 NA
ATOM      6  C   UNL     1      -1.228   4.092  25.257  0.00  0.00    +0.138 A 
ENDBRANCH   7   6
ENDBRANCH   8   7
ENDBRANCH   9   8
BRANCH  12  13
ATOM     13  C   UNL     1      -1.748  -0.047  24.681  0.00  0.00    +0.148 C 
BRANCH  13  14
ATOM     14  N   UNL     1      -2.094  -0.592  25.193  0.00  0.00    -0.075 NA
BRANCH  14  15
ATOM     15  S   UNL     1      -2.610  -1.165  24.899  0.00  0.00    +0.077 S 
ATOM     16  O   UNL     1      -3.223  -0.842  25.346  0.00  0.00    -0.152 OA
ATOM     17  O   UNL     1      -1.996  -1.488  24.451  0.00  0.00    -0.152 OA
BRANCH  15  18
ATOM     18  C   UNL     1      -3.126  -1.738  24.605  0.00  0.00    +0.124 A 
ATOM     19  C   UNL     1      -2.989  -2.536  24.763  0.00  0.00    +0.020 A 
ATOM     20  C   UNL     1      -3.505  -3.109  24.469  0.00  0.00    +0.001 A 
ATOM     21  C   UNL     1      -4.158  -2.883  24.018  0.00  0.00    +0.000 A 
ATOM     22  C   UNL     1      -4.295  -2.085  23.860  0.00  0.00    +0.001 A 
ATOM     23  C   UNL     1      -3.778  -1.512  24.154  0.00  0.00    +0.020 A 
ENDBRANCH  15  18
ENDBRANCH  14  15
ENDBRANCH  13  14
ENDBRANCH  12  13
TORSDOF 7
ENDMDL
MODEL 3
REMARK VINA RESULT:      -7.9      1.513      1.853
REMARK  Name = 
REMARK  7 active torsions:
REMARK  status: ('A' for Active; 'I' for Inactive)
REMARK    1  A    between atoms: C_6  and  C_7
REMARK    2  A    between atoms: C_7  and  N_8
REMARK    3  A    between atoms: N_8  and  C_9
REMARK    4  A    between atoms: C_12  and  C_13
REMARK    5  A    between atoms: C_13  and  N_14
REMARK    6  A    between atoms: N_14  and  S_15
REMARK    7  A    between atoms: S_15  and  C_18
REMARK                            x       y       z     vdW  Elec       q    Type
REMARK                         _______ _______ _______ _____ _____    ______ ____
ROOT
ATOM      9  C   UNL     1      -1.674  -0.279  25.014  0.00  0.00    +0.136 C 
ATOM     10  C   UNL     1      -1.390  -0.218  25.786  0.00  0.00    +0.162 C 
ATOM     11  O   UNL     1      -1.111   0.551  25.895  0.00  0.00    -0.350 OA
ATOM     12  C   UNL     1      -1.222   0.965  25.189  0.00  0.00    +0.166 C 
ATOM     24  C   UNL     1      -1.570   0.452  24.645  0.00  0.00    +0.199 C 
ATOM     25  O   UNL     1      -1.778   0.636  23.869  0.00  0.00    -0.219 OA
ENDROOT
BRANCH   9   8
ATOM      8  N   UNL     1      -2.004  -0.954  24.671  0.00  0.00    -0.206 NA
BRANCH   8   7
ATOM      7  C   UNL     1      -2.762  -1.196  24.886  0.00  0.00    +0.152 C 
BRANCH   7   6
ATOM      1  C   UNL     1      -4.389  -1.464  24.177  0.00  0.00    +0.132 C 
ATOM      2  N   UNL     1      -3.806  -2.038  24.283  0.00  0.00    -0.311 N 
ATOM      3  C   UNL     1      -3.869  -2.836  24.083  0.00  0.00    +0.098 A 
ATOM      4  C   UNL     1      -3.160  -3.206  24.284  0.00  0.00    +0.119 A 
ATOM      5  N   UNL     1      -2.659  -2.637  24.610  0.00  0.00    -0.228 NA
ATOM      6  C   UNL     1      -3.058  -1.915  24.609  0.00  0.00    +0.138 A 
ENDBRANCH   7   6
ENDBRANCH   8   7
ENDBRANCH   9   8
BRANCH  12  13
ATOM     13  C   UNL     1      -1.021   1.753  25.053  0.00  0.00    +0.148 C 
BRANCH  13  14
ATOM     14  N   UNL     1      -1.090   2.307  25.659  0.00  0.00    -0.075 NA
BRANCH  14  15
ATOM     15  S   UNL     1      -1.141   3.111  25.480  0.00  0.00    +0.077 S 
ATOM     16  O   UNL     1      -0.355   3.105  25.230  0.00  0.00    -0.152 OA
ATOM     17  O   UNL     1      -1.928   3.118  25.730  0.00  0.00    -0.152 OA
BRANCH  15  18
ATOM     18  C   UNL     1      -1.191   3.915  25.301  0.00  0.00    +0.124 A 
ATOM     19  C   UNL     1      -0.572   4.287  24.901  0.00  0.00    +0.020 A 
ATOM     20  C   UNL     1      -0.622   5.091  24.722  0.00  0.00    +0.001 A 
ATOM     21  C   UNL     1      -1.290   5.522  24.941  0.00  0.00    +0.000 A 
ATOM     22  C   UNL     1      -1.909   5.150  25.341  0.00  0.00    +0.001 A 
ATOM     23  C   UNL     1      -1.858   4.346  25.520  0.00  0.00    +0.020 A 
ENDBRANCH  15  18
ENDBRANCH  14  15
ENDBRANCH  13  14
ENDBRANCH  12  13
TORSDOF 7
ENDMDL
MODEL 4
REMARK VINA RESULT:      -7.5      3.572      4.750
REMARK  Name = 
REMARK  7 active torsions:
REMARK  status: ('A' for Active; 'I' for Inactive)
REMARK    1  A    between atoms: C_6  and  C_7
REMARK    2  A    between atoms: C_7  and  N_8
REMARK    3  A    between atoms: N_8  and  C_9
REMARK    4  A    between atoms: C_12  and  C_13
REMARK    5  A    between atoms: C_13  and  N_14
REMARK    6  A    between atoms: N_14  and  S_15
REMARK    7  A    between atoms: S_15  and  C_18
REMARK                            x       y       z     vdW  Elec       q    Type
REMARK                         _______ _______ _______ _____ _____    ______ ____
ROOT
ATOM      9  C   UNL     1      -0.218   0.545  23.885  0.00  0.00    +0.136 C 
ATOM     10  C   UNL     1      -0.600  -0.171  24.033  0.00  0.00    +0.162 C 
ATOM     11  O   UNL     1      -1.374  -0.004  24.267  0.00  0.00    -0.350 OA
ATOM     12  C   UNL     1      -1.470   0.816  24.263  0.00  0.00    +0.166 C 
ATOM     24  C   UNL     1      -0.756   1.155  24.027  0.00  0.00    +0.199 C 
ATOM     25  O   UNL     1      -0.605   1.962  23.947  0.00  0.00    -0.219 OA
ENDROOT
BRANCH   9   8
ATOM      8  N   UNL     1       0.564   0.635  23.639  0.00  0.00    -0.206 NA
BRANCH   8   7
ATOM      7  C   UNL     1       0.895   0.094  23.111  0.00  0.00    +0.152 C 
BRANCH   7   6
ATOM      1  C   UNL     1       1.585  -0.519  21.572  0.00  0.00    +0.132 C 
ATOM      2  N   UNL     1       1.991  -0.092  22.149  0.00  0.00    -0.311 N 
ATOM      3  C   UNL     1       2.786   0.128  22.120  0.00  0.00    +0.098 A 
ATOM      4  C   UNL     1       2.960   0.546  22.811  0.00  0.00    +0.119 A 
ATOM      5  N   UNL     1       2.273   0.583  23.266  0.00  0.00    -0.228 NA
ATOM      6  C   UNL     1       1.674   0.189  22.857  0.00  0.00    +0.138 A 
ENDBRANCH   7   6
ENDBRANCH   8   7
ENDBRANCH   9   8
BRANCH  12  13
ATOM     13  C   UNL     1      -2.159   1.225  24.460  0.00  0.00    +0.148 C 
BRANCH  13  14
ATOM     14  N   UNL     1      -2.893   0.857  24.382  0.00  0.00    -0.075 NA
BRANCH  14  15
ATOM     15  S   UNL     1      -3.581   1.264  24.585  0.00  0.00    +0.077 S 
ATOM     16  O   UNL     1      -3.478   1.045  25.373  0.00  0.00    -0.152 OA
ATOM     17  O   UNL     1      -3.685   1.483  23.796  0.00  0.00    -0.152 OA
BRANCH  15  18
ATOM     18  C   UNL     1      -4.270   1.670  24.789  0.00  0.00    +0.124 A 
ATOM     19  C   UNL     1      -4.971   1.253  24.920  0.00  0.00    +0.020 A 
ATOM     20  C   UNL     1      -5.660   1.660  25.124  0.00  0.00    +0.001 A 
ATOM     21  C   UNL     1      -5.647   2.481  25.196  0.00  0.00    +0.000 A 
ATOM     22  C   UNL     1      -4.948   2.897  25.065  0.00  0.00    +0.001 A 
ATOM     23  C   UNL     1      -4.259   2.491  24.861  0.00  0.00    +0.020 A 
ENDBRANCH  15  18
ENDBRANCH  14  15
ENDBRANCH  13  14
ENDBRANCH  12  13
TORSDOF 7
ENDMDL
MODEL 5
REMARK VINA RESULT:      -6.4     17.437     19.069
REMARK  Name = 
REMARK  7 active torsions:
REMARK  status: ('A' for Active; 'I' for Inactive)
REMARK    1  A    between atoms: C_6  and  C_7
REMARK    2  A    between atoms: C_7  and  N_8
REMARK    3  A    between atoms: N_8  and  C_9
REMARK    4  A    between atoms: C_12  and  C_13
REMARK    5  A    between atoms: C_13  and  N_14
REMARK    6  A    between atoms: N_14  and  S_15
REMARK    7  A    between atoms: S_15  and  C_18
REMARK                            x       y       z     vdW  Elec       q    Type
REMARK                         _______ _______ _______ _____ _____    ______ ____
ROOT
ATOM      9  C   UNL     1      14.109   7.125  20.074  0.00  0.00    +0.136 C 
ATOM     10  C   UNL     1      13.598   6.486  19.969  0.00  0.00    +0.162 C 
ATOM     11  O   UNL     1      12.965   6.740  19.504  0.00  0.00    -0.350 OA
ATOM     12  C   UNL     1      13.085   7.536  19.322  0.00  0.00    +0.166 C 
ATOM     24  C   UNL     1      13.792   7.774  19.674  0.00  0.00    +0.199 C 
ATOM     25  O   UNL     1      14.125   8.527  19.634  0.00  0.00    -0.219 OA
ENDROOT
BRANCH   9   8
ATOM      8  N   UNL     1      14.814   7.116  20.504  0.00  0.00    -0.206 NA
BRANCH   8   7
ATOM      7  C   UNL     1      15.441   6.642  20.256  0.00  0.00    +0.152 C 
BRANCH   7   6
ATOM      1  C   UNL     1      17.090   6.270  19.650  0.00  0.00    +0.132 C 
ATOM      2  N   UNL     1      16.884   6.423  20.435  0.00  0.00    -0.311 N 
ATOM      3  C   UNL     1      17.401   6.432  21.078  0.00  0.00    +0.098 A 
ATOM      4  C   UNL     1      16.962   6.608  21.755  0.00  0.00    +0.119 A 
ATOM      5  N   UNL     1      16.175   6.708  21.529  0.00  0.00    -0.228 NA
ATOM      6  C   UNL     1      16.127   6.593  20.713  0.00  0.00    +0.138 A 
ENDBRANCH   7   6
ENDBRANCH   8   7
ENDBRANCH   9   8
BRANCH  12  13
ATOM     13  C   UNL     1      12.586   8.010  18.868  0.00  0.00    +0.148 C 
BRANCH  13  14
ATOM     14  N   UNL     1      11.932   7.678  18.491  0.00  0.00    -0.075 NA
BRANCH  14  15
ATOM     15  S   UNL     1      11.631   8.025  17.806  0.00  0.00    +0.077 S 
ATOM     16  O   UNL     1      11.963   7.420  17.354  0.00  0.00    -0.152 OA
ATOM     17  O   UNL     1      11.298   8.630  18.258  0.00  0.00    -0.152 OA
BRANCH  15  18
ATOM     18  C   UNL     1      11.329   8.371  17.120  0.00  0.00    +0.124 A 
ATOM     19  C   UNL     1      10.519   8.340  16.964  0.00  0.00    +0.020 A 
ATOM     20  C   UNL     1      10.218   8.686  16.278  0.00  0.00    +0.001 A 
ATOM     21  C   UNL     1      10.726   9.062  15.749  0.00  0.00    +0.000 A 
ATOM     22  C   UNL     1      11.535   9.094  15.905  0.00  0.00    +0.001 A 
ATOM     23  C   UNL     1      11.837   8.747  16.591  0.00  0.00    +0.020 A 
ENDBRANCH  15  18
ENDBRANCH  14  15
ENDBRANCH  13  14
ENDBRANCH  12  13
TORSDOF 7
ENDMDL
