MODEL 1
REMARK VINA RESULT:     -11.7      0.000      0.000
REMARK  Name = 
REMARK  4 active torsions:
REMARK  status: ('A' for Active; 'I' for Inactive)
REMARK    1  A    between atoms: C_5  and  C_6
REMARK    2  A    between atoms: C_6  and  N_7
REMARK    3  A    between atoms: N_11  and  C_12
REMARK    4  A    between atoms: C_12  and  C_13
REMARK                            x       y       z     vdW  Elec       q    Type
REMARK                         _______ _______ _______ _____ _____    ______ ____
ROOT
ATOM      7  N   UNL     1      -3.375   3.068  25.479  0.00  0.00    -0.258 N 
ATOM      8  C   UNL     1      -2.906   2.497  25.111  0.00  0.00    +0.116 C 
ATOM      9  C   UNL     1      -3.396   1.876  24.879  0.00  0.00    +0.113 C 
ATOM     10  C   UNL     1      -3.241   1.164  24.492  0.00  0.00    +0.094 C 
ATOM     11  N   UNL     1      -3.856   0.640  24.329  0.00  0.00    -0.266 NA
ATOM     20  C   UNL     1      -4.628   0.827  24.554  0.00  0.00    +0.094 C 
ATOM     21  C   UNL     1      -4.784   1.538  24.940  0.00  0.00    +0.112 C 
ATOM     22  N   UNL     1      -4.168   2.063  25.103  0.00  0.00    -0.261 N 
ATOM     23  C   UNL     1      -4.154   2.799  25.474  0.00  0.00    +0.308 C 
ATOM     24  O   UNL     1      -4.806   3.198  25.785  0.00  0.00    -0.252 OA
ENDROOT
BRANCH   7   6
ATOM      6  C   UNL     1      -3.109   3.782  25.796  0.00  0.00    +0.122 C 
BRANCH   6   5
ATOM      1  F   UNL     1      -0.255   5.085  24.774  0.00  0.00    -0.204 F 
ATOM      2  C   UNL     1      -0.968   4.758  25.030  0.00  0.00    +0.140 A 
ATOM      3  C   UNL     1      -0.967   4.108  25.536  0.00  0.00    +0.029 A 
ATOM      4  C   UNL     1      -1.680   3.782  25.792  0.00  0.00    -0.000 A 
ATOM      5  C   UNL     1      -2.395   4.107  25.541  0.00  0.00    -0.002 A 
ATOM     25  C   UNL     1      -2.397   4.758  25.034  0.00  0.00    -0.000 A 
ATOM     26  C   UNL     1      -1.683   5.084  24.779  0.00  0.00    +0.029 A 
ENDBRANCH   6   5
ENDBRANCH   7   6
BRANCH  11  12
ATOM     12  C   UNL     1      -3.701  -0.073  23.942  0.00  0.00    +0.102 C 
BRANCH  12  13
ATOM     13  C   UNL     1      -3.661  -0.776  24.371  0.00  0.00    +0.024 A 
ATOM     14  C   UNL     1      -3.316  -0.784  25.120  0.00  0.00    +0.020 A 
ATOM     15  C   UNL     1      -3.277  -1.487  25.549  0.00  0.00    +0.099 A 
ATOM     16  N   UNL     1      -3.583  -2.183  25.229  0.00  0.00    -0.240 NA
ATOM     17  C   UNL     1      -3.929  -2.176  24.480  0.00  0.00    +0.128 A 
ATOM     18  C   UNL     1      -3.968  -1.471  24.051  0.00  0.00    +0.157 A 
ATOM     19  F   UNL     1      -4.314  -1.464  23.302  0.00  0.00    -0.203 F 
ENDBRANCH  12  13
ENDBRANCH  11  12
TORSDOF 4
ENDMDL
MODEL 2
REMARK VINA RESULT:     -11.7      1.508      4.877
REMARK  Name = 
REMARK  4 active torsions:
REMARK  status: ('A' for Active; 'I' for Inactive)
REMARK    1  A    between atoms: C_5  and  C_6
REMARK    2  A    between atoms: C_6  and  N_7
REMARK    3  A    between atoms: N_11  and  C_12
REMARK    4  A    between atoms: C_12  and  C_13
REMARK                            x       y       z     vdW  Elec       q    Type
REMARK                         _______ _______ _______ _____ _____    ______ ____
ROOT
ATOM      7  N   UNL     1      -4.119   0.412  24.550  0.00  0.00    -0.258 N 
ATOM      8  C   UNL     1      -3.333   0.495  24.311  0.00  0.00    +0.116 C 
ATOM      9  C   UNL     1      -3.104   1.274  24.456  0.00  0.00    +0.113 C 
ATOM     10  C   UNL     1      -2.392   1.672  24.332  0.00  0.00    +0.094 C 
ATOM     11  N   UNL     1      -2.323   2.468  24.536  0.00  0.00    -0.266 NA
ATOM     20  C   UNL     1      -2.967   2.867  24.864  0.00  0.00    +0.094 C 
ATOM     21  C   UNL     1      -3.679   2.469  24.989  0.00  0.00    +0.112 C 
ATOM     22  N   UNL     1      -3.747   1.672  24.785  0.00  0.00    -0.261 N 
ATOM     23  C   UNL     1      -4.374   1.140  24.843  0.00  0.00    +0.308 C 
ATOM     24  O   UNL     1      -5.126   1.306  25.141  0.00  0.00    -0.252 OA
ENDROOT
BRANCH   7   6
ATOM      6  C   UNL     1      -4.569  -0.277  24.504  0.00  0.00    +0.122 C 
BRANCH   6   5
ATOM      1  F   UNL     1      -3.107  -3.226  24.746  0.00  0.00    -0.204 F 
ATOM      2  C   UNL     1      -3.473  -2.488  24.686  0.00  0.00    +0.140 A 
ATOM      3  C   UNL     1      -3.506  -1.990  25.342  0.00  0.00    +0.029 A 
ATOM      4  C   UNL     1      -3.871  -1.252  25.282  0.00  0.00    -0.000 A 
ATOM      5  C   UNL     1      -4.204  -1.014  24.565  0.00  0.00    -0.002 A 
ATOM     25  C   UNL     1      -4.171  -1.514  23.909  0.00  0.00    -0.000 A 
ATOM     26  C   UNL     1      -3.805  -2.250  23.970  0.00  0.00    +0.029 A 
ENDBRANCH   6   5
ENDBRANCH   7   6
BRANCH  11  12
ATOM     12  C   UNL     1      -1.612   2.867  24.412  0.00  0.00    +0.102 C 
BRANCH  12  13
ATOM     13  C   UNL     1      -0.971   2.734  24.913  0.00  0.00    +0.024 A 
ATOM     14  C   UNL     1      -1.056   2.835  25.728  0.00  0.00    +0.020 A 
ATOM     15  C   UNL     1      -0.415   2.702  26.229  0.00  0.00    +0.099 A 
ATOM     16  N   UNL     1       0.312   2.468  25.916  0.00  0.00    -0.240 NA
ATOM     17  C   UNL     1       0.398   2.367  25.102  0.00  0.00    +0.128 A 
ATOM     18  C   UNL     1      -0.244   2.500  24.600  0.00  0.00    +0.157 A 
ATOM     19  F   UNL     1      -0.158   2.399  23.786  0.00  0.00    -0.203 F 
ENDBRANCH  12  13
ENDBRANCH  11  12
TORSDOF 4
ENDMDL
MODEL 3
REMARK VINA RESULT:     -11.6      1.802      5.494
REMARK  Name = 
REMARK  4 active torsions:
REMARK  status: ('A' for Active; 'I' for Inactive)
REMARK    1  A    between atoms: C_5  and  C_6
REMARK    2  A    between atoms: C_6  and  N_7
REMARK    3  A    between atoms: N_11  and  C_12
REMARK    4  A    between atoms: C_12  and  C_13
REMARK                            x       y       z     vdW  Elec       q    Type
REMARK                         _______ _______ _______ _____ _____    ______ ____
ROOT
ATOM      7  N   UNL     1      -2.458  -0.349  25.457  0.00  0.00    -0.258 N 
ATOM      8  C   UNL     1      -2.710   0.280  24.986  0.00  0.00    +0.116 C 
ATOM      9  C   UNL     1      -2.094   0.826  24.940  0.00  0.00    +0.113 C 
ATOM     10  C   UNL     1      -2.026   1.551  24.552  0.00  0.00    +0.094 C 
ATOM     11  N   UNL     1      -1.327   1.985  24.607  0.00  0.00    -0.266 NA
ATOM     20  C   UNL     1      -0.694   1.693  25.049  0.00  0.00    +0.094 C 
ATOM     21  C   UNL     1      -0.761   0.968  25.436  0.00  0.00    +0.112 C 
ATOM     22  N   UNL     1      -1.461   0.534  25.382  0.00  0.00    -0.261 N 
ATOM     23  C   UNL     1      -1.687  -0.192  25.701  0.00  0.00    +0.308 C 
ATOM     24  O   UNL     1      -1.222  -0.676  26.181  0.00  0.00    -0.252 OA
ENDROOT
BRANCH   7   6
ATOM      6  C   UNL     1      -2.901  -1.018  25.649  0.00  0.00    +0.122 C 
BRANCH   6   5
ATOM      1  F   UNL     1      -4.509  -2.671  23.288  0.00  0.00    -0.204 F 
ATOM      2  C   UNL     1      -4.107  -2.257  23.878  0.00  0.00    +0.140 A 
ATOM      3  C   UNL     1      -4.397  -1.533  24.145  0.00  0.00    +0.029 A 
ATOM      4  C   UNL     1      -3.995  -1.119  24.735  0.00  0.00    -0.000 A 
ATOM      5  C   UNL     1      -3.303  -1.431  25.059  0.00  0.00    -0.002 A 
ATOM     25  C   UNL     1      -3.013  -2.156  24.792  0.00  0.00    -0.000 A 
ATOM     26  C   UNL     1      -3.415  -2.569  24.201  0.00  0.00    +0.029 A 
ENDBRANCH   6   5
ENDBRANCH   7   6
BRANCH  11  12
ATOM     12  C   UNL     1      -1.259   2.710  24.219  0.00  0.00    +0.102 C 
BRANCH  12  13
ATOM     13  C   UNL     1      -1.392   3.412  24.631  0.00  0.00    +0.024 A 
ATOM     14  C   UNL     1      -2.065   3.494  25.102  0.00  0.00    +0.020 A 
ATOM     15  C   UNL     1      -2.197   4.196  25.513  0.00  0.00    +0.099 A 
ATOM     16  N   UNL     1      -1.657   4.817  25.455  0.00  0.00    -0.240 NA
ATOM     17  C   UNL     1      -0.984   4.736  24.984  0.00  0.00    +0.128 A 
ATOM     18  C   UNL     1      -0.852   4.033  24.572  0.00  0.00    +0.157 A 
ATOM     19  F   UNL     1      -0.179   3.952  24.102  0.00  0.00    -0.203 F 
ENDBRANCH  12  13
ENDBRANCH  11  12
TORSDOF 4
ENDMDL
MODEL 4
REMARK VINA RESULT:     -11.2      2.222      2.738
REMARK  Name = 
REMARK  4 active torsions:
REMARK  status: ('A' for Active; 'I' for Inactive)
REMARK    1  A    between atoms: C_5  and  C_6
REMARK    2  A    between atoms: C_6  and  N_7
REMARK    3  A    between atoms: N_11  and  C_12
REMARK    4  A    between atoms: C_12  and  C_13
REMARK                            x       y       z     vdW  Elec       q    Type
REMARK                         _______ _______ _______ _____ _____    ______ ____
ROOT
ATOM      7  N   UNL     1      -0.445   1.405  25.091  0.00  0.00    -0.258 N 
ATOM      8  C   UNL     1      -1.096   1.129  25.518  0.00  0.00    +0.116 C 
ATOM      9  C   UNL     1      -1.264   0.365  25.259  0.00  0.00    +0.113 C 
ATOM     10  C   UNL     1      -1.844  -0.178  25.481  0.00  0.00    +0.094 C 
ATOM     11  N   UNL     1      -1.878  -0.918  25.118  0.00  0.00    -0.266 NA
ATOM     20  C   UNL     1      -1.332  -1.115  24.532  0.00  0.00    +0.094 C 
ATOM     21  C   UNL     1      -0.752  -0.572  24.308  0.00  0.00    +0.112 C 
ATOM     22  N   UNL     1      -0.718   0.168  24.673  0.00  0.00    -0.261 N 
ATOM     23  C   UNL     1      -0.212   0.811  24.569  0.00  0.00    +0.308 C 
ATOM     24  O   UNL     1       0.417   0.852  24.036  0.00  0.00    -0.252 OA
ENDROOT
BRANCH   7   6
ATOM      6  C   UNL     1      -0.090   2.146  25.172  0.00  0.00    +0.122 C 
BRANCH   6   5
ATOM      1  F   UNL     1      -1.956   4.863  25.333  0.00  0.00    -0.204 F 
ATOM      2  C   UNL     1      -1.490   4.183  25.293  0.00  0.00    +0.140 A 
ATOM      3  C   UNL     1      -1.364   3.729  25.970  0.00  0.00    +0.029 A 
ATOM      4  C   UNL     1      -0.897   3.050  25.930  0.00  0.00    -0.000 A 
ATOM      5  C   UNL     1      -0.557   2.825  25.213  0.00  0.00    -0.002 A 
ATOM     25  C   UNL     1      -0.683   3.279  24.535  0.00  0.00    -0.000 A 
ATOM     26  C   UNL     1      -1.149   3.958  24.576  0.00  0.00    +0.029 A 
ENDBRANCH   6   5
ENDBRANCH   7   6
BRANCH  11  12
ATOM     12  C   UNL     1      -2.458  -1.461  25.340  0.00  0.00    +0.102 C 
BRANCH  12  13
ATOM     13  C   UNL     1      -3.099  -1.607  24.843  0.00  0.00    +0.024 A 
ATOM     14  C   UNL     1      -3.534  -0.978  24.533  0.00  0.00    +0.020 A 
ATOM     15  C   UNL     1      -4.175  -1.124  24.036  0.00  0.00    +0.099 A 
ATOM     16  N   UNL     1      -4.382  -1.900  23.848  0.00  0.00    -0.240 NA
ATOM     17  C   UNL     1      -3.949  -2.530  24.157  0.00  0.00    +0.128 A 
ATOM     18  C   UNL     1      -3.306  -2.383  24.655  0.00  0.00    +0.157 A 
ATOM     19  F   UNL     1      -2.873  -3.013  24.964  0.00  0.00    -0.203 F 
ENDBRANCH  12  13
ENDBRANCH  11  12
TORSDOF 4
ENDMDL
MODEL 5
REMARK VINA RESULT:     -11.1      2.069      5.217
REMARK  Name = 
REMARK  4 active torsions:
REMARK  status: ('A' for Active; 'I' for Inactive)
REMARK    1  A    between atoms: C_5  and  C_6
REMARK    2  A    between atoms: C_6  and  N_7
REMARK    3  A    between atoms: N_11  and  C_12
REMARK    4  A    between atoms: C_12  and  C_13
REMARK                            x       y       z     vdW  Elec       q    Type
REMARK                         _______ _______ _______ _____ _____    ______ ____
ROOT
ATOM      7  N   UNL     1      -1.802  -0.368  25.084  0.00  0.00    -0.258 N 
ATOM      8  C   UNL     1      -2.499   0.058  24.965  0.00  0.00    +0.116 C 
ATOM      9  C   UNL     1      -2.295   0.820  24.726  0.00  0.00    +0.113 C 
ATOM     10  C   UNL     1      -2.751   1.479  24.530  0.00  0.00    +0.094 C 
ATOM     11  N   UNL     1      -2.385   2.183  24.306  0.00  0.00    -0.266 NA
ATOM     20  C   UNL     1      -1.562   2.229  24.278  0.00  0.00    +0.094 C 
ATOM     21  C   UNL     1      -1.105   1.571  24.473  0.00  0.00    +0.112 C 
ATOM     22  N   UNL     1      -1.471   0.866  24.697  0.00  0.00    -0.261 N 
ATOM     23  C   UNL     1      -1.167   0.132  24.919  0.00  0.00    +0.308 C 
ATOM     24  O   UNL     1      -0.368  -0.067  24.966  0.00  0.00    -0.252 OA
ENDROOT
BRANCH   7   6
ATOM      6  C   UNL     1      -1.749  -1.155  25.326  0.00  0.00    +0.122 C 
BRANCH   6   5
ATOM      1  F   UNL     1      -3.986  -3.353  24.297  0.00  0.00    -0.204 F 
ATOM      2  C   UNL     1      -3.427  -2.803  24.555  0.00  0.00    +0.140 A 
ATOM      3  C   UNL     1      -3.578  -2.342  25.221  0.00  0.00    +0.029 A 
ATOM      4  C   UNL     1      -3.020  -1.792  25.479  0.00  0.00    -0.000 A 
ATOM      5  C   UNL     1      -2.309  -1.704  25.069  0.00  0.00    -0.002 A 
ATOM     25  C   UNL     1      -2.157  -2.166  24.402  0.00  0.00    -0.000 A 
ATOM     26  C   UNL     1      -2.716  -2.715  24.146  0.00  0.00    +0.029 A 
ENDBRANCH   6   5
ENDBRANCH   7   6
BRANCH  11  12
ATOM     12  C   UNL     1      -2.842   2.842  24.111  0.00  0.00    +0.102 C 
BRANCH  12  13
ATOM     13  C   UNL     1      -3.236   3.261  24.701  0.00  0.00    +0.024 A 
ATOM     14  C   UNL     1      -2.818   3.551  25.351  0.00  0.00    +0.020 A 
ATOM     15  C   UNL     1      -3.211   3.971  25.941  0.00  0.00    +0.099 A 
ATOM     16  N   UNL     1      -4.024   4.101  25.882  0.00  0.00    -0.240 NA
ATOM     17  C   UNL     1      -4.443   3.812  25.233  0.00  0.00    +0.128 A 
ATOM     18  C   UNL     1      -4.048   3.391  24.642  0.00  0.00    +0.157 A 
ATOM     19  F   UNL     1      -4.467   3.102  23.993  0.00  0.00    -0.203 F 
ENDBRANCH  12  13
ENDBRANCH  11  12
TORSDOF 4
ENDMDL
