MODEL 1
REMARK VINA RESULT:      -8.4      0.000      0.000
REMARK  Name = 
REMARK  7 active torsions:
REMARK  status: ('A' for Active; 'I' for Inactive)
REMARK    1  A    between atoms: O_2  and  C_3
REMARK    2  A    between atoms: C_3  and  C_4
REMARK    3  A    between atoms: N_6  and  C_7
REMARK    4  A    between atoms: C_7  and  C_8
REMARK    5  A    between atoms: C_11  and  N_12
REMARK    6  A    between atoms: N_12  and  C_13
REMARK    7  A    between atoms: C_13  and  C_14
REMARK                            x       y       z     vdW  Elec       q    Type
REMARK                         _______ _______ _______ _____ _____    ______ ____
ROOT
ATOM      8  C   UNL     1      -3.260   2.089  24.579  0.00  0.00    +0.169 C 
ATOM      9  O   UNL     1      -2.755   1.904  23.952  0.00  0.00    -0.350 OA
ATOM     10  C   UNL     1      -2.859   1.107  23.767  0.00  0.00    +0.162 C 
ATOM     11  C   UNL     1      -3.427   0.799  24.279  0.00  0.00    +0.135 C 
ATOM     21  C   UNL     1      -3.675   1.405  24.780  0.00  0.00    +0.199 C 
ATOM     22  O   UNL     1      -4.239   1.338  25.379  0.00  0.00    -0.219 OA
ENDROOT
BRANCH   8   7
ATOM      7  C   UNL     1      -3.336   2.826  24.939  0.00  0.00    +0.147 C 
BRANCH   7   6
ATOM      4  C   UNL     1      -2.727   4.088  25.223  0.00  0.00    +0.272 C 
ATOM      5  O   UNL     1      -3.106   4.105  25.956  0.00  0.00    -0.271 OA
ATOM      6  N   UNL     1      -2.842   3.448  24.715  0.00  0.00    -0.201 NA
BRANCH   4   3
ATOM      3  C   UNL     1      -2.234   4.709  25.000  0.00  0.00    +0.229 C 
BRANCH   3   2
ATOM      1  C   UNL     1      -0.907   5.238  24.980  0.00  0.00    +0.175 C 
ATOM      2  O   UNL     1      -1.495   4.799  25.355  0.00  0.00    -0.342 OA
ENDBRANCH   3   2
ENDBRANCH   4   3
ENDBRANCH   7   6
ENDBRANCH   8   7
BRANCH  11  12
ATOM     12  N   UNL     1      -3.699   0.019  24.287  0.00  0.00    -0.209 NA
BRANCH  12  13
ATOM     13  C   UNL     1      -3.162  -0.606  24.310  0.00  0.00    +0.118 C 
BRANCH  13  14
ATOM     14  C   UNL     1      -3.433  -1.384  24.281  0.00  0.00    +0.034 A 
ATOM     15  C   UNL     1      -3.018  -1.980  24.672  0.00  0.00    +0.193 A 
ATOM     16  O   UNL     1      -2.332  -1.797  25.093  0.00  0.00    -0.287 OA
ATOM     17  C   UNL     1      -3.289  -2.758  24.643  0.00  0.00    +0.042 A 
ATOM     18  C   UNL     1      -3.975  -2.941  24.222  0.00  0.00    +0.003 A 
ATOM     19  C   UNL     1      -4.390  -2.345  23.831  0.00  0.00    -0.000 A 
ATOM     20  C   UNL     1      -4.119  -1.567  23.860  0.00  0.00    +0.000 A 
ENDBRANCH  13  14
ENDBRANCH  12  13
ENDBRANCH  11  12
TORSDOF 7
ENDMDL
MODEL 2
REMARK VINA RESULT:      -8.1      0.929      1.216
REMARK  Name = 
REMARK  7 active torsions:
REMARK  status: ('A' for Active; 'I' for Inactive)
REMARK    1  A    between atoms: O_2  and  C_3
REMARK    2  A    between atoms: C_3  and  C_4
REMARK    3  A    between atoms: N_6  and  C_7
REMARK    4  A    between atoms: C_7  and  C_8
REMARK    5  A    between atoms: C_11  and  N_12
REMARK    6  A    between atoms: N_12  and  C_13
REMARK    7  A    between atoms: C_13  and  C_14
REMARK                            x       y       z     vdW  Elec       q    Type
REMARK                         _______ _______ _______ _____ _____    ______ ____
ROOT
ATOM      8  C   UNL     1      -2.388   1.930  24.694  0.00  0.00    +0.169 C 
ATOM      9  O   UNL     1      -3.171   2.036  24.934  0.00  0.00    -0.350 OA
ATOM     10  C   UNL     1      -3.575   1.328  24.807  0.00  0.00    +0.162 C 
ATOM     11  C   UNL     1      -3.043   0.784  24.489  0.00  0.00    +0.135 C 
ATOM     21  C   UNL     1      -2.309   1.156  24.419  0.00  0.00    +0.199 C 
ATOM     22  O   UNL     1      -1.618   0.814  24.126  0.00  0.00    -0.219 OA
ENDROOT
BRANCH   8   7
ATOM      7  C   UNL     1      -1.791   2.497  24.725  0.00  0.00    +0.147 C 
BRANCH   7   6
ATOM      4  C   UNL     1      -1.360   3.824  25.033  0.00  0.00    +0.272 C 
ATOM      5  O   UNL     1      -0.584   3.615  24.848  0.00  0.00    -0.271 OA
ATOM      6  N   UNL     1      -1.963   3.265  24.971  0.00  0.00    -0.201 NA
BRANCH   4   3
ATOM      3  C   UNL     1      -1.532   4.592  25.280  0.00  0.00    +0.229 C 
BRANCH   3   2
ATOM      1  C   UNL     1      -1.426   5.982  24.967  0.00  0.00    +0.175 C 
ATOM      2  O   UNL     1      -1.094   5.228  24.989  0.00  0.00    -0.342 OA
ENDBRANCH   3   2
ENDBRANCH   4   3
ENDBRANCH   7   6
ENDBRANCH   8   7
BRANCH  11  12
ATOM     12  N   UNL     1      -3.214   0.005  24.277  0.00  0.00    -0.209 NA
BRANCH  12  13
ATOM     13  C   UNL     1      -3.573  -0.501  24.821  0.00  0.00    +0.118 C 
BRANCH  13  14
ATOM     14  C   UNL     1      -3.703  -1.291  24.625  0.00  0.00    +0.034 A 
ATOM     15  C   UNL     1      -3.483  -1.888  25.150  0.00  0.00    +0.193 A 
ATOM     16  O   UNL     1      -3.133  -1.694  25.872  0.00  0.00    -0.287 OA
ATOM     17  C   UNL     1      -3.613  -2.678  24.955  0.00  0.00    +0.042 A 
ATOM     18  C   UNL     1      -3.964  -2.873  24.233  0.00  0.00    +0.003 A 
ATOM     19  C   UNL     1      -4.183  -2.276  23.708  0.00  0.00    -0.000 A 
ATOM     20  C   UNL     1      -4.053  -1.486  23.903  0.00  0.00    +0.000 A 
ENDBRANCH  13  14
ENDBRANCH  12  13
ENDBRANCH  11  12
TORSDOF 7
ENDMDL
MODEL 3
REMARK VINA RESULT:      -8.1      1.698      5.774
REMARK  Name = 
REMARK  7 active torsions:
REMARK  status: ('A' for Active; 'I' for Inactive)
REMARK    1  A    between atoms: O_2  and  C_3
REMARK    2  A    between atoms: C_3  and  C_4
REMARK    3  A    between atoms: N_6  and  C_7
REMARK    4  A    between atoms: C_7  and  C_8
REMARK    5  A    between atoms: C_11  and  N_12
REMARK    6  A    between atoms: N_12  and  C_13
REMARK    7  A    between atoms: C_13  and  C_14
REMARK                            x       y       z     vdW  Elec       q    Type
REMARK                         _______ _______ _______ _____ _____    ______ ____
ROOT
ATOM      8  C   UNL     1      -1.040   0.271  24.937  0.00  0.00    +0.169 C 
ATOM      9  O   UNL     1      -0.909   0.418  25.739  0.00  0.00    -0.350 OA
ATOM     10  C   UNL     1      -0.861   1.235  25.844  0.00  0.00    +0.162 C 
ATOM     11  C   UNL     1      -0.962   1.593  25.108  0.00  0.00    +0.135 C 
ATOM     21  C   UNL     1      -1.072   0.997  24.548  0.00  0.00    +0.199 C 
ATOM     22  O   UNL     1      -1.194   1.109  23.739  0.00  0.00    -0.219 OA
ENDROOT
BRANCH   8   7
ATOM      7  C   UNL     1      -1.123  -0.471  24.588  0.00  0.00    +0.147 C 
BRANCH   7   6
ATOM      4  C   UNL     1      -1.759  -1.750  24.546  0.00  0.00    +0.272 C 
ATOM      5  O   UNL     1      -1.186  -2.018  24.016  0.00  0.00    -0.271 OA
ATOM      6  N   UNL     1      -1.726  -0.977  24.832  0.00  0.00    -0.201 NA
BRANCH   4   3
ATOM      3  C   UNL     1      -2.362  -2.256  24.791  0.00  0.00    +0.229 C 
BRANCH   3   2
ATOM      1  C   UNL     1      -3.603  -2.905  24.505  0.00  0.00    +0.175 C 
ATOM      2  O   UNL     1      -2.914  -2.536  24.244  0.00  0.00    -0.342 OA
ENDBRANCH   3   2
ENDBRANCH   4   3
ENDBRANCH   7   6
ENDBRANCH   8   7
BRANCH  11  12
ATOM     12  N   UNL     1      -0.954   2.404  24.958  0.00  0.00    -0.209 NA
BRANCH  12  13
ATOM     13  C   UNL     1      -1.359   2.920  25.458  0.00  0.00    +0.118 C 
BRANCH  13  14
ATOM     14  C   UNL     1      -1.355   3.731  25.306  0.00  0.00    +0.034 A 
ATOM     15  C   UNL     1      -1.999   4.195  25.526  0.00  0.00    +0.193 A 
ATOM     16  O   UNL     1      -2.650   3.849  25.898  0.00  0.00    -0.287 OA
ATOM     17  C   UNL     1      -1.995   5.006  25.374  0.00  0.00    +0.042 A 
ATOM     18  C   UNL     1      -1.345   5.352  25.002  0.00  0.00    +0.003 A 
ATOM     19  C   UNL     1      -0.700   4.888  24.782  0.00  0.00    -0.000 A 
ATOM     20  C   UNL     1      -0.704   4.077  24.934  0.00  0.00    +0.000 A 
ENDBRANCH  13  14
ENDBRANCH  12  13
ENDBRANCH  11  12
TORSDOF 7
ENDMDL
MODEL 4
REMARK VINA RESULT:      -8.0      2.601      4.462
REMARK  Name = 
REMARK  7 active torsions:
REMARK  status: ('A' for Active; 'I' for Inactive)
REMARK    1  A    between atoms: O_2  and  C_3
REMARK    2  A    between atoms: C_3  and  C_4
REMARK    3  A    between atoms: N_6  and  C_7
REMARK    4  A    between atoms: C_7  and  C_8
REMARK    5  A    between atoms: C_11  and  N_12
REMARK    6  A    between atoms: N_12  and  C_13
REMARK    7  A    between atoms: C_13  and  C_14
REMARK                            x       y       z     vdW  Elec       q    Type
REMARK                         _______ _______ _______ _____ _____    ______ ____
ROOT
ATOM      8  C   UNL     1      -1.542   0.859  23.924  0.00  0.00    +0.169 C 
ATOM      9  O   UNL     1      -1.664   1.506  23.425  0.00  0.00    -0.350 OA
ATOM     10  C   UNL     1      -2.403   1.828  23.600  0.00  0.00    +0.162 C 
ATOM     11  C   UNL     1      -2.738   1.382  24.207  0.00  0.00    +0.135 C 
ATOM     21  C   UNL     1      -2.206   0.783  24.407  0.00  0.00    +0.199 C 
ATOM     22  O   UNL     1      -2.319   0.210  24.989  0.00  0.00    -0.219 OA
ENDROOT
BRANCH   8   7
ATOM      7  C   UNL     1      -0.875   0.376  23.937  0.00  0.00    +0.147 C 
BRANCH   7   6
ATOM      4  C   UNL     1       0.452   0.101  23.482  0.00  0.00    +0.272 C 
ATOM      5  O   UNL     1       0.380  -0.678  23.743  0.00  0.00    -0.271 OA
ATOM      6  N   UNL     1      -0.176   0.628  23.579  0.00  0.00    -0.201 NA
BRANCH   4   3
ATOM      3  C   UNL     1       1.151   0.353  23.124  0.00  0.00    +0.229 C 
BRANCH   3   2
ATOM      1  C   UNL     1       2.347   0.057  22.402  0.00  0.00    +0.175 C 
ATOM      2  O   UNL     1       1.637  -0.191  22.739  0.00  0.00    -0.342 OA
ENDBRANCH   3   2
ENDBRANCH   4   3
ENDBRANCH   7   6
ENDBRANCH   8   7
BRANCH  11  12
ATOM     12  N   UNL     1      -3.476   1.511  24.554  0.00  0.00    -0.209 NA
BRANCH  12  13
ATOM     13  C   UNL     1      -3.791   2.273  24.581  0.00  0.00    +0.118 C 
BRANCH  13  14
ATOM     14  C   UNL     1      -4.534   2.400  24.915  0.00  0.00    +0.034 A 
ATOM     15  C   UNL     1      -4.693   3.104  25.314  0.00  0.00    +0.193 A 
ATOM     16  O   UNL     1      -4.107   3.682  25.379  0.00  0.00    -0.287 OA
ATOM     17  C   UNL     1      -5.436   3.232  25.647  0.00  0.00    +0.042 A 
ATOM     18  C   UNL     1      -6.022   2.654  25.582  0.00  0.00    +0.003 A 
ATOM     19  C   UNL     1      -5.864   1.950  25.183  0.00  0.00    -0.000 A 
ATOM     20  C   UNL     1      -5.120   1.822  24.850  0.00  0.00    +0.000 A 
ENDBRANCH  13  14
ENDBRANCH  12  13
ENDBRANCH  11  12
TORSDOF 7
ENDMDL
MODEL 5
REMARK VINA RESULT:      -7.9      1.197      5.506
REMARK  Name = 
REMARK  7 active torsions:
REMARK  status: ('A' for Active; 'I' for Inactive)
REMARK    1  A    between atoms: O_2  and  C_3
REMARK    2  A    between atoms: C_3  and  C_4
REMARK    3  A    between atoms: N_6  and  C_7
REMARK    4  A    between atoms: C_7  and  C_8
REMARK    5  A    between atoms: C_11  and  N_12
REMARK    6  A    between atoms: N_12  and  C_13
REMARK    7  A    between atoms: C_13  and  C_14
REMARK                            x       y       z     vdW  Elec       q    Type
REMARK                         _______ _______ _______ _____ _____    ______ ____
ROOT
ATOM      8  C   UNL     1      -3.127   0.656  24.578  0.00  0.00    +0.169 C 
ATOM      9  O   UNL     1      -2.384   0.519  24.911  0.00  0.00    -0.350 OA
ATOM     10  C   UNL     1      -2.033   1.250  25.060  0.00  0.00    +0.162 C 
ATOM     11  C   UNL     1      -2.557   1.839  24.820  0.00  0.00    +0.135 C 
ATOM     21  C   UNL     1      -3.233   1.472  24.522  0.00  0.00    +0.199 C 
ATOM     22  O   UNL     1      -3.899   1.855  24.221  0.00  0.00    -0.219 OA
ENDROOT
BRANCH   8   7
ATOM      7  C   UNL     1      -3.668   0.079  24.343  0.00  0.00    +0.147 C 
BRANCH   7   6
ATOM      4  C   UNL     1      -3.983  -1.298  24.129  0.00  0.00    +0.272 C 
ATOM      5  O   UNL     1      -4.784  -1.106  24.075  0.00  0.00    -0.271 OA
ATOM      6  N   UNL     1      -3.425  -0.705  24.263  0.00  0.00    -0.201 NA
BRANCH   4   3
ATOM      3  C   UNL     1      -3.741  -2.082  24.049  0.00  0.00    +0.229 C 
BRANCH   3   2
ATOM      1  C   UNL     1      -3.378  -3.317  24.670  0.00  0.00    +0.175 C 
ATOM      2  O   UNL     1      -3.767  -2.591  24.698  0.00  0.00    -0.342 OA
ENDBRANCH   3   2
ENDBRANCH   4   3
ENDBRANCH   7   6
ENDBRANCH   8   7
BRANCH  11  12
ATOM     12  N   UNL     1      -2.428   2.653  24.870  0.00  0.00    -0.209 NA
BRANCH  12  13
ATOM     13  C   UNL     1      -1.671   2.942  25.025  0.00  0.00    +0.118 C 
BRANCH  13  14
ATOM     14  C   UNL     1      -1.535   3.755  25.040  0.00  0.00    +0.034 A 
ATOM     15  C   UNL     1      -0.840   4.063  24.720  0.00  0.00    +0.193 A 
ATOM     16  O   UNL     1      -0.280   3.557  24.385  0.00  0.00    -0.287 OA
ATOM     17  C   UNL     1      -0.704   4.876  24.735  0.00  0.00    +0.042 A 
ATOM     18  C   UNL     1      -1.263   5.382  25.070  0.00  0.00    +0.003 A 
ATOM     19  C   UNL     1      -1.958   5.074  25.390  0.00  0.00    -0.000 A 
ATOM     20  C   UNL     1      -2.094   4.261  25.375  0.00  0.00    +0.000 A 
ENDBRANCH  13  14
ENDBRANCH  12  13
ENDBRANCH  11  12
TORSDOF 7
ENDMDL
MODEL 6
REMARK VINA RESULT:      -7.4      3.907      4.673
REMARK  Name = 
REMARK  7 active torsions:
REMARK  status: ('A' for Active; 'I' for Inactive)
REMARK    1  A    between atoms: O_2  and  C_3
REMARK    2  A    between atoms: C_3  and  C_4
REMARK    3  A    between atoms: N_6  and  C_7
REMARK    4  A    between atoms: C_7  and  C_8
REMARK    5  A    between atoms: C_11  and  N_12
REMARK    6  A    between atoms: N_12  and  C_13
REMARK    7  A    between atoms: C_13  and  C_14
REMARK                            x       y       z     vdW  Elec       q    Type
REMARK                         _______ _______ _______ _____ _____    ______ ____
ROOT
ATOM      8  C   UNL     1       0.557   0.293  23.472  0.00  0.00    +0.169 C 
ATOM      9  O   UNL     1       0.349   1.029  23.783  0.00  0.00    -0.350 OA
ATOM     10  C   UNL     1      -0.348   0.936  24.214  0.00  0.00    +0.162 C 
ATOM     11  C   UNL     1      -0.572   0.144  24.169  0.00  0.00    +0.135 C 
ATOM     21  C   UNL     1      -0.013  -0.254  23.711  0.00  0.00    +0.199 C 
ATOM     22  O   UNL     1      -0.022  -1.058  23.525  0.00  0.00    -0.219 OA
ENDROOT
BRANCH   8   7
ATOM      7  C   UNL     1       1.217   0.132  23.005  0.00  0.00    +0.147 C 
BRANCH   7   6
ATOM      4  C   UNL     1       2.582   0.388  22.667  0.00  0.00    +0.272 C 
ATOM      5  O   UNL     1       2.502  -0.079  21.991  0.00  0.00    -0.271 OA
ATOM      6  N   UNL     1       1.939   0.493  23.174  0.00  0.00    -0.201 NA
BRANCH   4   3
ATOM      3  C   UNL     1       3.304   0.748  22.835  0.00  0.00    +0.229 C 
BRANCH   3   2
ATOM      1  C   UNL     1       4.703   0.595  23.081  0.00  0.00    +0.175 C 
ATOM      2  O   UNL     1       4.009   0.336  22.720  0.00  0.00    -0.342 OA
ENDBRANCH   3   2
ENDBRANCH   4   3
ENDBRANCH   7   6
ENDBRANCH   8   7
BRANCH  11  12
ATOM     12  N   UNL     1      -1.239  -0.192  24.522  0.00  0.00    -0.209 NA
BRANCH  12  13
ATOM     13  C   UNL     1      -1.961   0.206  24.503  0.00  0.00    +0.118 C 
BRANCH  13  14
ATOM     14  C   UNL     1      -2.637  -0.151  24.811  0.00  0.00    +0.034 A 
ATOM     15  C   UNL     1      -3.379   0.041  24.508  0.00  0.00    +0.193 A 
ATOM     16  O   UNL     1      -3.445   0.589  23.895  0.00  0.00    -0.287 OA
ATOM     17  C   UNL     1      -4.056  -0.316  24.817  0.00  0.00    +0.042 A 
ATOM     18  C   UNL     1      -3.990  -0.865  25.430  0.00  0.00    +0.003 A 
ATOM     19  C   UNL     1      -3.247  -1.056  25.733  0.00  0.00    -0.000 A 
ATOM     20  C   UNL     1      -2.571  -0.699  25.424  0.00  0.00    +0.000 A 
ENDBRANCH  13  14
ENDBRANCH  12  13
ENDBRANCH  11  12
TORSDOF 7
ENDMDL
MODEL 7
REMARK VINA RESULT:      -6.1     13.750     14.534
REMARK  Name = 
REMARK  7 active torsions:
REMARK  status: ('A' for Active; 'I' for Inactive)
REMARK    1  A    between atoms: O_2  and  C_3
REMARK    2  A    between atoms: C_3  and  C_4
REMARK    3  A    between atoms: N_6  and  C_7
REMARK    4  A    between atoms: C_7  and  C_8
REMARK    5  A    between atoms: C_11  and  N_12
REMARK    6  A    between atoms: N_12  and  C_13
REMARK    7  A    between atoms: C_13  and  C_14
REMARK                            x       y       z     vdW  Elec       q    Type
REMARK                         _______ _______ _______ _____ _____    ______ ____
ROOT
ATOM      8  C   UNL     1      -6.127 -10.001  16.515  0.00  0.00    +0.169 C 
ATOM      9  O   UNL     1      -6.109 -10.060  15.692  0.00  0.00    -0.350 OA
ATOM     10  C   UNL     1      -5.337 -10.243  15.466  0.00  0.00    +0.162 C 
ATOM     11  C   UNL     1      -4.878 -10.298  16.149  0.00  0.00    +0.135 C 
ATOM     21  C   UNL     1      -5.366 -10.148  16.797  0.00  0.00    +0.199 C 
ATOM     22  O   UNL     1      -5.133 -10.146  17.588  0.00  0.00    -0.219 OA
ENDROOT
BRANCH   8   7
ATOM      7  C   UNL     1      -6.789  -9.826  16.974  0.00  0.00    +0.147 C 
BRANCH   7   6
ATOM      4  C   UNL     1      -8.077  -9.221  17.105  0.00  0.00    +0.272 C 
ATOM      5  O   UNL     1      -8.168  -9.574  17.845  0.00  0.00    -0.271 OA
ATOM      6  N   UNL     1      -7.387  -9.347  16.670  0.00  0.00    -0.201 NA
BRANCH   4   3
ATOM      3  C   UNL     1      -8.674  -8.741  16.801  0.00  0.00    +0.229 C 
BRANCH   3   2
ATOM      1  C   UNL     1      -9.822  -7.917  17.013  0.00  0.00    +0.175 C 
ATOM      2  O   UNL     1      -9.176  -8.331  17.313  0.00  0.00    -0.342 OA
ENDBRANCH   3   2
ENDBRANCH   4   3
ENDBRANCH   7   6
ENDBRANCH   8   7
BRANCH  11  12
ATOM     12  N   UNL     1      -4.071 -10.471  16.178  0.00  0.00    -0.209 NA
BRANCH  12  13
ATOM     13  C   UNL     1      -3.654 -10.613  15.481  0.00  0.00    +0.118 C 
BRANCH  13  14
ATOM     14  C   UNL     1      -2.831 -10.666  15.496  0.00  0.00    +0.034 A 
ATOM     15  C   UNL     1      -2.404 -10.658  14.791  0.00  0.00    +0.193 A 
ATOM     16  O   UNL     1      -2.800 -10.596  14.069  0.00  0.00    -0.287 OA
ATOM     17  C   UNL     1      -1.581 -10.711  14.806  0.00  0.00    +0.042 A 
ATOM     18  C   UNL     1      -1.185 -10.772  15.527  0.00  0.00    +0.003 A 
ATOM     19  C   UNL     1      -1.612 -10.781  16.233  0.00  0.00    -0.000 A 
ATOM     20  C   UNL     1      -2.435 -10.728  16.218  0.00  0.00    +0.000 A 
ENDBRANCH  13  14
ENDBRANCH  12  13
ENDBRANCH  11  12
TORSDOF 7
ENDMDL
MODEL 8
REMARK VINA RESULT:      -5.7     13.867     16.375
REMARK  Name = 
REMARK  7 active torsions:
REMARK  status: ('A' for Active; 'I' for Inactive)
REMARK    1  A    between atoms: O_2  and  C_3
REMARK    2  A    between atoms: C_3  and  C_4
REMARK    3  A    between atoms: N_6  and  C_7
REMARK    4  A    between atoms: C_7  and  C_8
REMARK    5  A    between atoms: C_11  and  N_12
REMARK    6  A    between atoms: N_12  and  C_13
REMARK    7  A    between atoms: C_13  and  C_14
REMARK                            x       y       z     vdW  Elec       q    Type
REMARK                         _______ _______ _______ _____ _____    ______ ____
ROOT
ATOM      8  C   UNL     1      -4.414 -10.562  14.368  0.00  0.00    +0.169 C 
ATOM      9  O   UNL     1      -5.201 -10.527  14.123  0.00  0.00    -0.350 OA
ATOM     10  C   UNL     1      -5.209 -10.391  13.309  0.00  0.00    +0.162 C 
ATOM     11  C   UNL     1      -4.428 -10.342  13.051  0.00  0.00    +0.135 C 
ATOM     21  C   UNL     1      -3.936 -10.447  13.706  0.00  0.00    +0.199 C 
ATOM     22  O   UNL     1      -3.111 -10.439  13.698  0.00  0.00    -0.219 OA
ENDROOT
BRANCH   8   7
ATOM      7  C   UNL     1      -4.151 -10.688  15.140  0.00  0.00    +0.147 C 
BRANCH   7   6
ATOM      4  C   UNL     1      -4.426 -10.757  16.540  0.00  0.00    +0.272 C 
ATOM      5  O   UNL     1      -3.616 -10.778  16.698  0.00  0.00    -0.271 OA
ATOM      6  N   UNL     1      -4.693 -10.712  15.761  0.00  0.00    -0.201 NA
BRANCH   4   3
ATOM      3  C   UNL     1      -4.967 -10.781  17.162  0.00  0.00    +0.229 C 
BRANCH   3   2
ATOM      1  C   UNL     1      -5.244 -10.741  18.563  0.00  0.00    +0.175 C 
ATOM      2  O   UNL     1      -4.709 -10.680  17.939  0.00  0.00    -0.342 OA
ENDBRANCH   3   2
ENDBRANCH   4   3
ENDBRANCH   7   6
ENDBRANCH   8   7
BRANCH  11  12
ATOM     12  N   UNL     1      -4.181 -10.211  12.275  0.00  0.00    -0.209 NA
BRANCH  12  13
ATOM     13  C   UNL     1      -4.650  -9.767  11.762  0.00  0.00    +0.118 C 
BRANCH  13  14
ATOM     14  C   UNL     1      -4.364  -9.559  11.017  0.00  0.00    +0.034 A 
ATOM     15  C   UNL     1      -4.660  -8.892  10.633  0.00  0.00    +0.193 A 
ATOM     16  O   UNL     1      -5.243  -8.433  10.994  0.00  0.00    -0.287 OA
ATOM     17  C   UNL     1      -4.375  -8.684   9.888  0.00  0.00    +0.042 A 
ATOM     18  C   UNL     1      -3.792  -9.143   9.526  0.00  0.00    +0.003 A 
ATOM     19  C   UNL     1      -3.495  -9.810   9.911  0.00  0.00    -0.000 A 
ATOM     20  C   UNL     1      -3.781 -10.018  10.656  0.00  0.00    +0.000 A 
ENDBRANCH  13  14
ENDBRANCH  12  13
ENDBRANCH  11  12
TORSDOF 7
ENDMDL
MODEL 9
REMARK VINA RESULT:      -5.4     14.924     17.140
REMARK  Name = 
REMARK  7 active torsions:
REMARK  status: ('A' for Active; 'I' for Inactive)
REMARK    1  A    between atoms: O_2  and  C_3
REMARK    2  A    between atoms: C_3  and  C_4
REMARK    3  A    between atoms: N_6  and  C_7
REMARK    4  A    between atoms: C_7  and  C_8
REMARK    5  A    between atoms: C_11  and  N_12
REMARK    6  A    between atoms: N_12  and  C_13
REMARK    7  A    between atoms: C_13  and  C_14
REMARK                            x       y       z     vdW  Elec       q    Type
REMARK                         _______ _______ _______ _____ _____    ______ ____
ROOT
ATOM      8  C   UNL     1      -3.862 -10.305  11.579  0.00  0.00    +0.169 C 
ATOM      9  O   UNL     1      -4.504 -10.441  12.080  0.00  0.00    -0.350 OA
ATOM     10  C   UNL     1      -4.211 -10.574  12.840  0.00  0.00    +0.162 C 
ATOM     11  C   UNL     1      -3.389 -10.520  12.809  0.00  0.00    +0.135 C 
ATOM     21  C   UNL     1      -3.173 -10.354  12.031  0.00  0.00    +0.199 C 
ATOM     22  O   UNL     1      -2.403 -10.255  11.753  0.00  0.00    -0.219 OA
ENDROOT
BRANCH   8   7
ATOM      7  C   UNL     1      -3.902 -10.148  10.771  0.00  0.00    +0.147 C 
BRANCH   7   6
ATOM      4  C   UNL     1      -4.661  -9.775   9.619  0.00  0.00    +0.272 C 
ATOM      5  O   UNL     1      -3.977  -9.808   9.158  0.00  0.00    -0.271 OA
ATOM      6  N   UNL     1      -4.623  -9.945  10.425  0.00  0.00    -0.201 NA
BRANCH   4   3
ATOM      3  C   UNL     1      -5.381  -9.572   9.273  0.00  0.00    +0.229 C 
BRANCH   3   2
ATOM      1  C   UNL     1      -6.230  -9.521   8.125  0.00  0.00    +0.175 C 
ATOM      2  O   UNL     1      -5.532  -9.769   8.486  0.00  0.00    -0.342 OA
ENDBRANCH   3   2
ENDBRANCH   4   3
ENDBRANCH   7   6
ENDBRANCH   8   7
BRANCH  11  12
ATOM     12  N   UNL     1      -2.873 -10.616  13.447  0.00  0.00    -0.209 NA
BRANCH  12  13
ATOM     13  C   UNL     1      -3.167 -10.630  14.217  0.00  0.00    +0.118 C 
BRANCH  13  14
ATOM     14  C   UNL     1      -2.648 -10.676  14.856  0.00  0.00    +0.034 A 
ATOM     15  C   UNL     1      -2.941 -10.675  15.627  0.00  0.00    +0.193 A 
ATOM     16  O   UNL     1      -3.754 -10.628  15.759  0.00  0.00    -0.287 OA
ATOM     17  C   UNL     1      -2.421 -10.720  16.266  0.00  0.00    +0.042 A 
ATOM     18  C   UNL     1      -1.608 -10.766  16.134  0.00  0.00    +0.003 A 
ATOM     19  C   UNL     1      -1.315 -10.767  15.363  0.00  0.00    -0.000 A 
ATOM     20  C   UNL     1      -1.834 -10.722  14.724  0.00  0.00    +0.000 A 
ENDBRANCH  13  14
ENDBRANCH  12  13
ENDBRANCH  11  12
TORSDOF 7
ENDMDL
MODEL 10
REMARK VINA RESULT:      -5.4     17.202     18.373
REMARK  Name = 
REMARK  7 active torsions:
REMARK  status: ('A' for Active; 'I' for Inactive)
REMARK    1  A    between atoms: O_2  and  C_3
REMARK    2  A    between atoms: C_3  and  C_4
REMARK    3  A    between atoms: N_6  and  C_7
REMARK    4  A    between atoms: C_7  and  C_8
REMARK    5  A    between atoms: C_11  and  N_12
REMARK    6  A    between atoms: N_12  and  C_13
REMARK    7  A    between atoms: C_13  and  C_14
REMARK                            x       y       z     vdW  Elec       q    Type
REMARK                         _______ _______ _______ _____ _____    ______ ____
ROOT
ATOM      8  C   UNL     1      -5.597  -8.593   9.286  0.00  0.00    +0.169 C 
ATOM      9  O   UNL     1      -5.325  -9.224   8.828  0.00  0.00    -0.350 OA
ATOM     10  C   UNL     1      -4.577  -9.436   9.106  0.00  0.00    +0.162 C 
ATOM     11  C   UNL     1      -4.388  -8.937   9.735  0.00  0.00    +0.135 C 
ATOM     21  C   UNL     1      -5.018  -8.417   9.846  0.00  0.00    +0.199 C 
ATOM     22  O   UNL     1      -5.061  -7.823  10.417  0.00  0.00    -0.219 OA
ENDROOT
BRANCH   8   7
ATOM      7  C   UNL     1      -6.321  -8.208   9.198  0.00  0.00    +0.147 C 
BRANCH   7   6
ATOM      4  C   UNL     1      -7.644  -8.175   8.660  0.00  0.00    +0.272 C 
ATOM      5  O   UNL     1      -7.717  -7.385   8.886  0.00  0.00    -0.271 OA
ATOM      6  N   UNL     1      -6.946  -8.586   8.816  0.00  0.00    -0.201 NA
BRANCH   4   3
ATOM      3  C   UNL     1      -8.269  -8.553   8.277  0.00  0.00    +0.229 C 
BRANCH   3   2
ATOM      1  C   UNL     1      -9.663  -8.857   8.192  0.00  0.00    +0.175 C 
ATOM      2  O   UNL     1      -9.044  -8.430   8.532  0.00  0.00    -0.342 OA
ENDBRANCH   3   2
ENDBRANCH   4   3
ENDBRANCH   7   6
ENDBRANCH   8   7
BRANCH  11  12
ATOM     12  N   UNL     1      -3.690  -8.956  10.175  0.00  0.00    -0.209 NA
BRANCH  12  13
ATOM     13  C   UNL     1      -3.378  -9.678  10.423  0.00  0.00    +0.118 C 
BRANCH  13  14
ATOM     14  C   UNL     1      -2.670  -9.698  10.846  0.00  0.00    +0.034 A 
ATOM     15  C   UNL     1      -2.567 -10.247  11.452  0.00  0.00    +0.193 A 
ATOM     16  O   UNL     1      -3.173 -10.777  11.636  0.00  0.00    -0.287 OA
ATOM     17  C   UNL     1      -1.859 -10.267  11.875  0.00  0.00    +0.042 A 
ATOM     18  C   UNL     1      -1.253  -9.737  11.691  0.00  0.00    +0.003 A 
ATOM     19  C   UNL     1      -1.357  -9.188  11.084  0.00  0.00    -0.000 A 
ATOM     20  C   UNL     1      -2.064  -9.168  10.662  0.00  0.00    +0.000 A 
ENDBRANCH  13  14
ENDBRANCH  12  13
ENDBRANCH  11  12
TORSDOF 7
ENDMDL
