MODEL 1
REMARK VINA RESULT:     -11.2      0.000      0.000
REMARK  Name = 
REMARK  5 active torsions:
REMARK  status: ('A' for Active; 'I' for Inactive)
REMARK    1  A    between atoms: S_2  and  N_5
REMARK    2  A    between atoms: C_10  and  C_11
REMARK    3  A    between atoms: C_13  and  C_16
REMARK    4  A    between atoms: C_19  and  O_20
REMARK    5  A    between atoms: O_20  and  C_21
REMARK                            x       y       z     vdW  Elec       q    Type
REMARK                         _______ _______ _______ _____ _____    ______ ____
ROOT
ATOM     11  C   UNL     1      -2.649   2.318  24.421  0.00  0.00    +0.158 A 
ATOM     12  N   UNL     1      -2.755   1.604  24.820  0.00  0.00    -0.228 NA
ATOM     13  C   UNL     1      -3.112   1.072  24.299  0.00  0.00    +0.102 A 
ATOM     14  C   UNL     1      -3.226   1.458  23.579  0.00  0.00    +0.119 A 
ATOM     15  N   UNL     1      -2.939   2.228  23.654  0.00  0.00    -0.226 NA
ENDROOT
BRANCH  11  10
ATOM      5  N   UNL     1      -2.793   3.608  25.018  0.00  0.00    -0.148 NA
ATOM      6  C   UNL     1      -2.455   4.293  25.331  0.00  0.00    +0.128 C 
ATOM      7  C   UNL     1      -1.634   4.372  25.360  0.00  0.00    +0.161 C 
ATOM      8  O   UNL     1      -1.152   3.766  25.075  0.00  0.00    -0.350 OA
ATOM      9  C   UNL     1      -1.490   3.081  24.762  0.00  0.00    +0.168 C 
ATOM     10  C   UNL     1      -2.310   3.003  24.734  0.00  0.00    +0.167 C 
BRANCH   5   2
ATOM      1  C   UNL     1      -4.435   3.452  24.963  0.00  0.00    +0.196 C 
ATOM      2  S   UNL     1      -3.614   3.530  24.990  0.00  0.00    +0.046 S 
ATOM      3  O   UNL     1      -3.610   3.215  25.753  0.00  0.00    -0.157 OA
ATOM      4  O   UNL     1      -3.619   3.845  24.228  0.00  0.00    -0.157 OA
ENDBRANCH   5   2
ENDBRANCH  11  10
BRANCH  13  16
ATOM     16  C   UNL     1      -3.319   0.292  24.469  0.00  0.00    +0.019 A 
ATOM     17  C   UNL     1      -3.980  -0.047  24.110  0.00  0.00    +0.005 A 
ATOM     18  C   UNL     1      -4.186  -0.827  24.280  0.00  0.00    +0.037 A 
ATOM     19  C   UNL     1      -3.733  -1.268  24.809  0.00  0.00    +0.147 A 
ATOM     25  C   UNL     1      -3.072  -0.930  25.169  0.00  0.00    +0.037 A 
ATOM     26  C   UNL     1      -2.865  -0.149  24.999  0.00  0.00    +0.005 A 
BRANCH  19  20
ATOM     20  O   UNL     1      -3.940  -2.049  24.979  0.00  0.00    -0.404 OA
BRANCH  20  21
ATOM     21  C   UNL     1      -3.648  -2.664  24.514  0.00  0.00    +0.575 C 
ATOM     22  F   UNL     1      -3.355  -3.279  24.048  0.00  0.00    -0.133 F 
ATOM     23  F   UNL     1      -3.018  -2.760  25.038  0.00  0.00    -0.133 F 
ATOM     24  F   UNL     1      -4.278  -2.568  23.990  0.00  0.00    -0.133 F 
ENDBRANCH  20  21
ENDBRANCH  19  20
ENDBRANCH  13  16
TORSDOF 5
ENDMDL
