MODEL 1
REMARK VINA RESULT:     -12.2      0.000      0.000
REMARK  Name = 
REMARK  5 active torsions:
REMARK  status: ('A' for Active; 'I' for Inactive)
REMARK    1  A    between atoms: C_5  and  N_8
REMARK    2  A    between atoms: C_12  and  C_13
REMARK    3  A    between atoms: C_15  and  C_18
REMARK    4  A    between atoms: C_21  and  O_22
REMARK    5  A    between atoms: O_22  and  C_23
REMARK                            x       y       z     vdW  Elec       q    Type
REMARK                         _______ _______ _______ _____ _____    ______ ____
ROOT
ATOM     13  C   UNL     1      -2.736   3.151  24.542  0.00  0.00    +0.251 A 
ATOM     14  N   UNL     1      -2.993   2.423  24.833  0.00  0.00    -0.190 NA
ATOM     15  C   UNL     1      -3.320   1.998  24.208  0.00  0.00    +0.205 A 
ATOM     16  N   UNL     1      -3.266   2.463  23.528  0.00  0.00    -0.056 NA
ATOM     17  O   UNL     1      -2.905   3.176  23.734  0.00  0.00    -0.336 OA
ENDROOT
BRANCH  15  18
ATOM     18  C   UNL     1      -3.645   1.241  24.252  0.00  0.00    +0.058 A 
ATOM     19  C   UNL     1      -4.142   1.042  24.879  0.00  0.00    +0.010 A 
ATOM     20  C   UNL     1      -4.468   0.286  24.924  0.00  0.00    +0.058 A 
ATOM     21  C   UNL     1      -4.296  -0.272  24.342  0.00  0.00    +0.225 A 
ATOM     29  N   UNL     1      -3.799  -0.074  23.714  0.00  0.00    -0.210 NA
ATOM     30  C   UNL     1      -3.474   0.683  23.669  0.00  0.00    +0.105 A 
BRANCH  21  22
ATOM     22  O   UNL     1      -4.622  -1.029  24.386  0.00  0.00    -0.464 OA
BRANCH  22  23
ATOM     23  C   UNL     1      -4.133  -1.681  24.515  0.00  0.00    +0.168 C 
ATOM     24  C   UNL     1      -4.022  -2.238  23.916  0.00  0.00    +0.044 C 
ATOM     25  C   UNL     1      -3.533  -2.890  24.045  0.00  0.00    +0.004 C 
ATOM     26  C   UNL     1      -3.156  -2.986  24.773  0.00  0.00    +0.000 C 
ATOM     27  C   UNL     1      -3.268  -2.429  25.372  0.00  0.00    +0.004 C 
ATOM     28  C   UNL     1      -3.757  -1.777  25.243  0.00  0.00    +0.044 C 
ENDBRANCH  22  23
ENDBRANCH  21  22
ENDBRANCH  15  18
BRANCH  13  12
ATOM      8  N   UNL     1      -1.571   3.799  25.163  0.00  0.00    -0.268 NA
ATOM      9  C   UNL     1      -1.453   4.484  25.607  0.00  0.00    +0.072 C 
ATOM     10  C   UNL     1      -2.184   4.858  25.698  0.00  0.00    +0.019 C 
ATOM     11  C   UNL     1      -2.753   4.404  25.310  0.00  0.00    +0.027 C 
ATOM     12  C   UNL     1      -2.374   3.749  24.979  0.00  0.00    +0.138 C 
BRANCH   8   5
ATOM      1  C   UNL     1       0.759   1.637  24.274  0.00  0.00    +0.090 C 
ATOM      2  N   UNL     1       0.175   2.178  24.497  0.00  0.00    -0.271 NA
ATOM      3  C   UNL     1      -0.041   2.786  23.983  0.00  0.00    +0.074 C 
ATOM      4  C   UNL     1      -0.623   3.326  24.205  0.00  0.00    +0.033 C 
ATOM      5  C   UNL     1      -0.989   3.259  24.941  0.00  0.00    +0.061 C 
ATOM      6  C   UNL     1      -0.773   2.651  25.455  0.00  0.00    +0.033 C 
ATOM      7  C   UNL     1      -0.190   2.110  25.233  0.00  0.00    +0.074 C 
ENDBRANCH   8   5
ENDBRANCH  13  12
TORSDOF 5
ENDMDL
MODEL 2
REMARK VINA RESULT:     -12.0      1.639      2.710
REMARK  Name = 
REMARK  5 active torsions:
REMARK  status: ('A' for Active; 'I' for Inactive)
REMARK    1  A    between atoms: C_5  and  N_8
REMARK    2  A    between atoms: C_12  and  C_13
REMARK    3  A    between atoms: C_15  and  C_18
REMARK    4  A    between atoms: C_21  and  O_22
REMARK    5  A    between atoms: O_22  and  C_23
REMARK                            x       y       z     vdW  Elec       q    Type
REMARK                         _______ _______ _______ _____ _____    ______ ____
ROOT
ATOM     13  C   UNL     1      -1.094   3.027  25.423  0.00  0.00    +0.251 A 
ATOM     14  N   UNL     1      -1.269   2.375  24.949  0.00  0.00    -0.190 NA
ATOM     15  C   UNL     1      -1.186   1.696  25.408  0.00  0.00    +0.205 A 
ATOM     16  N   UNL     1      -0.959   1.927  26.167  0.00  0.00    -0.056 NA
ATOM     17  O   UNL     1      -0.902   2.750  26.176  0.00  0.00    -0.336 OA
ENDROOT
BRANCH  15  18
ATOM     18  C   UNL     1      -1.308   0.920  25.155  0.00  0.00    +0.058 A 
ATOM     19  C   UNL     1      -1.287   0.300  25.700  0.00  0.00    +0.010 A 
ATOM     20  C   UNL     1      -1.409  -0.475  25.448  0.00  0.00    +0.058 A 
ATOM     21  C   UNL     1      -1.553  -0.632  24.651  0.00  0.00    +0.225 A 
ATOM     29  N   UNL     1      -1.574  -0.013  24.106  0.00  0.00    -0.210 NA
ATOM     30  C   UNL     1      -1.452   0.763  24.358  0.00  0.00    +0.105 A 
BRANCH  21  22
ATOM     22  O   UNL     1      -1.675  -1.408  24.398  0.00  0.00    -0.464 OA
BRANCH  22  23
ATOM     23  C   UNL     1      -2.425  -1.747  24.454  0.00  0.00    +0.168 C 
ATOM     24  C   UNL     1      -3.029  -1.497  23.949  0.00  0.00    +0.044 C 
ATOM     25  C   UNL     1      -3.779  -1.836  24.004  0.00  0.00    +0.004 C 
ATOM     26  C   UNL     1      -3.925  -2.424  24.565  0.00  0.00    +0.000 C 
ATOM     27  C   UNL     1      -3.322  -2.673  25.069  0.00  0.00    +0.004 C 
ATOM     28  C   UNL     1      -2.571  -2.334  25.014  0.00  0.00    +0.044 C 
ENDBRANCH  22  23
ENDBRANCH  21  22
ENDBRANCH  15  18
BRANCH  13  12
ATOM      8  N   UNL     1      -1.775   4.299  25.142  0.00  0.00    -0.268 NA
ATOM      9  C   UNL     1      -1.535   5.044  24.881  0.00  0.00    +0.072 C 
ATOM     10  C   UNL     1      -0.718   5.022  24.765  0.00  0.00    +0.019 C 
ATOM     11  C   UNL     1      -0.454   4.264  24.954  0.00  0.00    +0.027 C 
ATOM     12  C   UNL     1      -1.107   3.817  25.187  0.00  0.00    +0.138 C 
BRANCH   8   5
ATOM      1  C   UNL     1      -4.865   3.405  25.877  0.00  0.00    +0.090 C 
ATOM      2  N   UNL     1      -4.092   3.629  25.693  0.00  0.00    -0.271 NA
ATOM      3  C   UNL     1      -3.585   3.887  26.290  0.00  0.00    +0.074 C 
ATOM      4  C   UNL     1      -2.812   4.111  26.106  0.00  0.00    +0.033 C 
ATOM      5  C   UNL     1      -2.547   4.076  25.326  0.00  0.00    +0.061 C 
ATOM      6  C   UNL     1      -3.055   3.817  24.729  0.00  0.00    +0.033 C 
ATOM      7  C   UNL     1      -3.828   3.593  24.912  0.00  0.00    +0.074 C 
ENDBRANCH   8   5
ENDBRANCH  13  12
TORSDOF 5
ENDMDL
MODEL 3
REMARK VINA RESULT:     -10.7      1.520      4.906
REMARK  Name = 
REMARK  5 active torsions:
REMARK  status: ('A' for Active; 'I' for Inactive)
REMARK    1  A    between atoms: C_5  and  N_8
REMARK    2  A    between atoms: C_12  and  C_13
REMARK    3  A    between atoms: C_15  and  C_18
REMARK    4  A    between atoms: C_21  and  O_22
REMARK    5  A    between atoms: O_22  and  C_23
REMARK                            x       y       z     vdW  Elec       q    Type
REMARK                         _______ _______ _______ _____ _____    ______ ____
ROOT
ATOM     13  C   UNL     1      -3.520  -1.145  24.200  0.00  0.00    +0.251 A 
ATOM     14  N   UNL     1      -3.550  -0.420  24.593  0.00  0.00    -0.190 NA
ATOM     15  C   UNL     1      -3.728   0.164  24.040  0.00  0.00    +0.205 A 
ATOM     16  N   UNL     1      -3.808  -0.199  23.303  0.00  0.00    -0.056 NA
ATOM     17  O   UNL     1      -3.679  -1.008  23.402  0.00  0.00    -0.336 OA
ENDROOT
BRANCH  15  18
ATOM     18  C   UNL     1      -3.812   0.970  24.194  0.00  0.00    +0.058 A 
ATOM     19  C   UNL     1      -4.317   1.225  24.795  0.00  0.00    +0.010 A 
ATOM     20  C   UNL     1      -4.402   2.030  24.950  0.00  0.00    +0.058 A 
ATOM     21  C   UNL     1      -3.981   2.582  24.504  0.00  0.00    +0.225 A 
ATOM     29  N   UNL     1      -3.475   2.329  23.903  0.00  0.00    -0.210 NA
ATOM     30  C   UNL     1      -3.391   1.522  23.748  0.00  0.00    +0.105 A 
BRANCH  21  22
ATOM     22  O   UNL     1      -4.065   3.388  24.659  0.00  0.00    -0.464 OA
BRANCH  22  23
ATOM     23  C   UNL     1      -3.486   3.788  25.089  0.00  0.00    +0.168 C 
ATOM     24  C   UNL     1      -3.550   3.847  25.910  0.00  0.00    +0.044 C 
ATOM     25  C   UNL     1      -2.971   4.247  26.341  0.00  0.00    +0.004 C 
ATOM     26  C   UNL     1      -2.329   4.589  25.951  0.00  0.00    +0.000 C 
ATOM     27  C   UNL     1      -2.266   4.530  25.130  0.00  0.00    +0.004 C 
ATOM     28  C   UNL     1      -2.844   4.130  24.699  0.00  0.00    +0.044 C 
ENDBRANCH  22  23
ENDBRANCH  21  22
ENDBRANCH  15  18
BRANCH  13  12
ATOM      8  N   UNL     1      -2.612  -2.164  24.747  0.00  0.00    -0.268 NA
ATOM      9  C   UNL     1      -2.709  -2.916  25.072  0.00  0.00    +0.072 C 
ATOM     10  C   UNL     1      -3.515  -3.094  25.069  0.00  0.00    +0.019 C 
ATOM     11  C   UNL     1      -3.916  -2.452  24.743  0.00  0.00    +0.027 C 
ATOM     12  C   UNL     1      -3.359  -1.877  24.543  0.00  0.00    +0.138 C 
BRANCH   8   5
ATOM      1  C   UNL     1       0.254  -0.582  24.333  0.00  0.00    +0.090 C 
ATOM      2  N   UNL     1      -0.463  -0.978  24.436  0.00  0.00    -0.271 NA
ATOM      3  C   UNL     1      -0.774  -1.435  23.824  0.00  0.00    +0.074 C 
ATOM      4  C   UNL     1      -1.491  -1.830  23.928  0.00  0.00    +0.033 C 
ATOM      5  C   UNL     1      -1.896  -1.769  24.643  0.00  0.00    +0.061 C 
ATOM      6  C   UNL     1      -1.585  -1.312  25.256  0.00  0.00    +0.033 C 
ATOM      7  C   UNL     1      -0.868  -0.917  25.153  0.00  0.00    +0.074 C 
ENDBRANCH   8   5
ENDBRANCH  13  12
TORSDOF 5
ENDMDL
