MODEL 1
REMARK VINA RESULT:     -11.5      0.000      0.000
REMARK  Name = 
REMARK  3 active torsions:
REMARK  status: ('A' for Active; 'I' for Inactive)
REMARK    1  A    between atoms: C_7  and  N_10
REMARK    2  A    between atoms: C_14  and  C_15
REMARK    3  A    between atoms: C_17  and  C_20
REMARK                            x       y       z     vdW  Elec       q    Type
REMARK                         _______ _______ _______ _____ _____    ______ ____
ROOT
ATOM     10  N   UNL     1      -4.571   0.943  24.785  0.00  0.00    -0.268 NA
ATOM     11  C   UNL     1      -5.300   1.218  25.056  0.00  0.00    +0.072 C 
ATOM     12  C   UNL     1      -5.321   2.036  24.941  0.00  0.00    +0.019 C 
ATOM     13  C   UNL     1      -4.605   2.264  24.600  0.00  0.00    +0.027 C 
ATOM     14  C   UNL     1      -4.142   1.588  24.504  0.00  0.00    +0.138 C 
ENDROOT
BRANCH  10   7
ATOM      1  C   UNL     1      -3.660  -2.673  24.161  0.00  0.00    +0.095 C 
ATOM      2  C   UNL     1      -3.550  -2.196  24.824  0.00  0.00    +0.226 C 
ATOM      3  O   UNL     1      -3.185  -2.502  25.498  0.00  0.00    -0.275 OA
ATOM      4  N   UNL     1      -3.806  -1.411  24.814  0.00  0.00    -0.279 N 
ATOM      5  C   UNL     1      -3.695  -0.933  25.478  0.00  0.00    +0.095 C 
ATOM      6  C   UNL     1      -3.950  -0.149  25.469  0.00  0.00    +0.038 C 
ATOM      7  C   UNL     1      -4.316   0.159  24.795  0.00  0.00    +0.061 C 
ATOM      8  C   UNL     1      -4.425  -0.320  24.132  0.00  0.00    +0.038 C 
ATOM      9  C   UNL     1      -4.170  -1.104  24.142  0.00  0.00    +0.095 C 
ENDBRANCH  10   7
BRANCH  14  15
ATOM     15  C   UNL     1      -3.383   1.562  24.182  0.00  0.00    +0.251 A 
ATOM     16  N   UNL     1      -2.683   1.759  24.574  0.00  0.00    -0.189 NA
ATOM     17  C   UNL     1      -2.058   1.654  24.046  0.00  0.00    +0.208 A 
ATOM     18  N   UNL     1      -2.370   1.393  23.329  0.00  0.00    -0.056 NA
ATOM     19  O   UNL     1      -3.188   1.337  23.413  0.00  0.00    -0.336 OA
BRANCH  17  20
ATOM     20  C   UNL     1      -1.260   1.787  24.208  0.00  0.00    +0.093 A 
ATOM     21  C   UNL     1      -0.710   1.182  24.093  0.00  0.00    +0.176 A 
ATOM     22  N   UNL     1      -0.958   0.446  23.817  0.00  0.00    -0.107 NA
ATOM     23  N   UNL     1       0.088   1.315  24.255  0.00  0.00    -0.206 NA
ATOM     24  C   UNL     1       0.336   2.052  24.531  0.00  0.00    +0.200 A 
ATOM     25  N   UNL     1      -0.213   2.656  24.646  0.00  0.00    -0.222 NA
ATOM     26  C   UNL     1      -1.012   2.523  24.484  0.00  0.00    +0.107 A 
ENDBRANCH  17  20
ENDBRANCH  14  15
TORSDOF 3
ENDMDL
MODEL 2
REMARK VINA RESULT:     -11.1      1.454      3.974
REMARK  Name = 
REMARK  3 active torsions:
REMARK  status: ('A' for Active; 'I' for Inactive)
REMARK    1  A    between atoms: C_7  and  N_10
REMARK    2  A    between atoms: C_14  and  C_15
REMARK    3  A    between atoms: C_17  and  C_20
REMARK                            x       y       z     vdW  Elec       q    Type
REMARK                         _______ _______ _______ _____ _____    ______ ____
ROOT
ATOM     10  N   UNL     1      -2.359  -0.521  24.732  0.00  0.00    -0.268 NA
ATOM     11  C   UNL     1      -2.236  -1.330  24.837  0.00  0.00    +0.072 C 
ATOM     12  C   UNL     1      -2.958  -1.713  24.721  0.00  0.00    +0.019 C 
ATOM     13  C   UNL     1      -3.525  -1.140  24.545  0.00  0.00    +0.027 C 
ATOM     14  C   UNL     1      -3.154  -0.403  24.552  0.00  0.00    +0.138 C 
ENDROOT
BRANCH  10   7
ATOM      1  C   UNL     1       0.088   2.187  25.722  0.00  0.00    +0.095 C 
ATOM      2  C   UNL     1      -0.061   1.835  24.991  0.00  0.00    +0.226 C 
ATOM      3  O   UNL     1       0.364   2.071  24.325  0.00  0.00    -0.275 OA
ATOM      4  N   UNL     1      -0.636   1.246  24.927  0.00  0.00    -0.279 N 
ATOM      5  C   UNL     1      -0.784   0.894  24.195  0.00  0.00    +0.095 C 
ATOM      6  C   UNL     1      -1.359   0.305  24.130  0.00  0.00    +0.038 C 
ATOM      7  C   UNL     1      -1.784   0.068  24.797  0.00  0.00    +0.061 C 
ATOM      8  C   UNL     1      -1.635   0.421  25.528  0.00  0.00    +0.038 C 
ATOM      9  C   UNL     1      -1.060   1.009  25.592  0.00  0.00    +0.095 C 
ENDBRANCH  10   7
BRANCH  14  15
ATOM     15  C   UNL     1      -3.516   0.323  24.405  0.00  0.00    +0.251 A 
ATOM     16  N   UNL     1      -3.936   0.775  24.953  0.00  0.00    -0.189 NA
ATOM     17  C   UNL     1      -4.201   1.457  24.571  0.00  0.00    +0.208 A 
ATOM     18  N   UNL     1      -3.944   1.426  23.788  0.00  0.00    -0.056 NA
ATOM     19  O   UNL     1      -3.521   0.726  23.686  0.00  0.00    -0.336 OA
BRANCH  17  20
ATOM     20  C   UNL     1      -4.645   2.063  24.913  0.00  0.00    +0.093 A 
ATOM     21  C   UNL     1      -4.395   2.846  24.844  0.00  0.00    +0.176 A 
ATOM     22  N   UNL     1      -3.701   3.023  24.435  0.00  0.00    -0.107 NA
ATOM     23  N   UNL     1      -4.838   3.452  25.186  0.00  0.00    -0.206 NA
ATOM     24  C   UNL     1      -5.532   3.275  25.596  0.00  0.00    +0.200 A 
ATOM     25  N   UNL     1      -5.782   2.492  25.665  0.00  0.00    -0.222 NA
ATOM     26  C   UNL     1      -5.339   1.885  25.323  0.00  0.00    +0.107 A 
ENDBRANCH  17  20
ENDBRANCH  14  15
TORSDOF 3
ENDMDL
MODEL 3
REMARK VINA RESULT:     -11.0      1.985      4.027
REMARK  Name = 
REMARK  3 active torsions:
REMARK  status: ('A' for Active; 'I' for Inactive)
REMARK    1  A    between atoms: C_7  and  N_10
REMARK    2  A    between atoms: C_14  and  C_15
REMARK    3  A    between atoms: C_17  and  C_20
REMARK                            x       y       z     vdW  Elec       q    Type
REMARK                         _______ _______ _______ _____ _____    ______ ____
ROOT
ATOM     10  N   UNL     1      -1.205   3.308  24.933  0.00  0.00    -0.268 NA
ATOM     11  C   UNL     1      -0.611   3.859  25.088  0.00  0.00    +0.072 C 
ATOM     12  C   UNL     1      -0.956   4.608  25.099  0.00  0.00    +0.019 C 
ATOM     13  C   UNL     1      -1.763   4.520  24.950  0.00  0.00    +0.027 C 
ATOM     14  C   UNL     1      -1.916   3.715  24.848  0.00  0.00    +0.138 C 
ENDROOT
BRANCH  10   7
ATOM      1  C   UNL     1      -0.853  -0.431  25.369  0.00  0.00    +0.095 C 
ATOM      2  C   UNL     1      -0.803   0.040  24.695  0.00  0.00    +0.226 C 
ATOM      3  O   UNL     1      -0.652  -0.304  23.960  0.00  0.00    -0.275 OA
ATOM      4  N   UNL     1      -0.904   0.858  24.754  0.00  0.00    -0.279 N 
ATOM      5  C   UNL     1      -0.853   1.329  24.079  0.00  0.00    +0.095 C 
ATOM      6  C   UNL     1      -0.954   2.146  24.139  0.00  0.00    +0.038 C 
ATOM      7  C   UNL     1      -1.105   2.491  24.873  0.00  0.00    +0.061 C 
ATOM      8  C   UNL     1      -1.155   2.019  25.548  0.00  0.00    +0.038 C 
ATOM      9  C   UNL     1      -1.054   1.202  25.488  0.00  0.00    +0.095 C 
ENDBRANCH  10   7
BRANCH  14  15
ATOM     15  C   UNL     1      -2.652   3.379  24.689  0.00  0.00    +0.251 A 
ATOM     16  N   UNL     1      -3.241   3.215  25.243  0.00  0.00    -0.189 NA
ATOM     17  C   UNL     1      -3.881   2.882  24.844  0.00  0.00    +0.208 A 
ATOM     18  N   UNL     1      -3.688   2.840  24.044  0.00  0.00    -0.056 NA
ATOM     19  O   UNL     1      -2.930   3.146  23.948  0.00  0.00    -0.336 OA
BRANCH  17  20
ATOM     20  C   UNL     1      -4.590   2.634  25.186  0.00  0.00    +0.093 A 
ATOM     21  C   UNL     1      -4.869   1.870  25.048  0.00  0.00    +0.176 A 
ATOM     22  N   UNL     1      -4.440   1.354  24.569  0.00  0.00    -0.107 NA
ATOM     23  N   UNL     1      -5.578   1.622  25.391  0.00  0.00    -0.206 NA
ATOM     24  C   UNL     1      -6.007   2.139  25.870  0.00  0.00    +0.200 A 
ATOM     25  N   UNL     1      -5.728   2.902  26.008  0.00  0.00    -0.222 NA
ATOM     26  C   UNL     1      -5.019   3.150  25.666  0.00  0.00    +0.107 A 
ENDBRANCH  17  20
ENDBRANCH  14  15
TORSDOF 3
ENDMDL
MODEL 4
REMARK VINA RESULT:     -11.0      2.402      3.737
REMARK  Name = 
REMARK  3 active torsions:
REMARK  status: ('A' for Active; 'I' for Inactive)
REMARK    1  A    between atoms: C_7  and  N_10
REMARK    2  A    between atoms: C_14  and  C_15
REMARK    3  A    between atoms: C_17  and  C_20
REMARK                            x       y       z     vdW  Elec       q    Type
REMARK                         _______ _______ _______ _____ _____    ______ ____
ROOT
ATOM     10  N   UNL     1      -2.089   4.257  25.069  0.00  0.00    -0.268 NA
ATOM     11  C   UNL     1      -1.995   5.070  24.965  0.00  0.00    +0.072 C 
ATOM     12  C   UNL     1      -1.187   5.238  24.995  0.00  0.00    +0.019 C 
ATOM     13  C   UNL     1      -0.784   4.529  25.119  0.00  0.00    +0.027 C 
ATOM     14  C   UNL     1      -1.342   3.923  25.165  0.00  0.00    +0.138 C 
ENDROOT
BRANCH  10   7
ATOM      1  C   UNL     1      -5.370   2.530  25.810  0.00  0.00    +0.095 C 
ATOM      2  C   UNL     1      -4.960   2.628  25.101  0.00  0.00    +0.226 C 
ATOM      3  O   UNL     1      -5.266   2.319  24.400  0.00  0.00    -0.275 OA
ATOM      4  N   UNL     1      -4.241   3.035  25.093  0.00  0.00    -0.279 N 
ATOM      5  C   UNL     1      -3.831   3.134  24.384  0.00  0.00    +0.095 C 
ATOM      6  C   UNL     1      -3.114   3.541  24.376  0.00  0.00    +0.038 C 
ATOM      7  C   UNL     1      -2.806   3.850  25.077  0.00  0.00    +0.061 C 
ATOM      8  C   UNL     1      -3.217   3.751  25.786  0.00  0.00    +0.038 C 
ATOM      9  C   UNL     1      -3.935   3.344  25.794  0.00  0.00    +0.095 C 
ENDBRANCH  10   7
BRANCH  14  15
ATOM     15  C   UNL     1      -1.180   3.123  25.285  0.00  0.00    +0.251 A 
ATOM     16  N   UNL     1      -0.979   2.576  24.700  0.00  0.00    -0.189 NA
ATOM     17  C   UNL     1      -0.866   1.845  25.064  0.00  0.00    +0.208 A 
ATOM     18  N   UNL     1      -0.996   1.940  25.873  0.00  0.00    -0.056 NA
ATOM     19  O   UNL     1      -1.190   2.729  26.009  0.00  0.00    -0.336 OA
BRANCH  17  20
ATOM     20  C   UNL     1      -0.658   1.141  24.685  0.00  0.00    +0.093 A 
ATOM     21  C   UNL     1      -1.065   0.445  24.858  0.00  0.00    +0.176 A 
ATOM     22  N   UNL     1      -1.680   0.451  25.408  0.00  0.00    -0.107 NA
ATOM     23  N   UNL     1      -0.858  -0.258  24.479  0.00  0.00    -0.206 NA
ATOM     24  C   UNL     1      -0.243  -0.265  23.928  0.00  0.00    +0.200 A 
ATOM     25  N   UNL     1       0.164   0.432  23.756  0.00  0.00    -0.222 NA
ATOM     26  C   UNL     1      -0.044   1.135  24.135  0.00  0.00    +0.107 A 
ENDBRANCH  17  20
ENDBRANCH  14  15
TORSDOF 3
ENDMDL
MODEL 5
REMARK VINA RESULT:     -10.9      1.159      2.949
REMARK  Name = 
REMARK  3 active torsions:
REMARK  status: ('A' for Active; 'I' for Inactive)
REMARK    1  A    between atoms: C_7  and  N_10
REMARK    2  A    between atoms: C_14  and  C_15
REMARK    3  A    between atoms: C_17  and  C_20
REMARK                            x       y       z     vdW  Elec       q    Type
REMARK                         _______ _______ _______ _____ _____    ______ ____
ROOT
ATOM     10  N   UNL     1      -3.581  -1.081  24.528  0.00  0.00    -0.268 NA
ATOM     11  C   UNL     1      -3.988  -1.757  24.289  0.00  0.00    +0.072 C 
ATOM     12  C   UNL     1      -3.460  -2.391  24.305  0.00  0.00    +0.019 C 
ATOM     13  C   UNL     1      -2.727  -2.106  24.554  0.00  0.00    +0.027 C 
ATOM     14  C   UNL     1      -2.802  -1.296  24.692  0.00  0.00    +0.138 C 
ENDROOT
BRANCH  10   7
ATOM      1  C   UNL     1      -5.208   2.194  25.486  0.00  0.00    +0.095 C 
ATOM      2  C   UNL     1      -4.849   1.956  24.783  0.00  0.00    +0.226 C 
ATOM      3  O   UNL     1      -4.805   2.475  24.144  0.00  0.00    -0.275 OA
ATOM      4  N   UNL     1      -4.531   1.196  24.719  0.00  0.00    -0.279 N 
ATOM      5  C   UNL     1      -4.171   0.957  24.016  0.00  0.00    +0.095 C 
ATOM      6  C   UNL     1      -3.854   0.198  23.952  0.00  0.00    +0.038 C 
ATOM      7  C   UNL     1      -3.897  -0.322  24.592  0.00  0.00    +0.061 C 
ATOM      8  C   UNL     1      -4.258  -0.083  25.294  0.00  0.00    +0.038 C 
ATOM      9  C   UNL     1      -4.575   0.676  25.358  0.00  0.00    +0.095 C 
ENDBRANCH  10   7
BRANCH  14  15
ATOM     15  C   UNL     1      -2.203  -0.790  24.948  0.00  0.00    +0.251 A 
ATOM     16  N   UNL     1      -1.707  -0.342  24.465  0.00  0.00    -0.189 NA
ATOM     17  C   UNL     1      -1.192   0.082  24.951  0.00  0.00    +0.208 A 
ATOM     18  N   UNL     1      -1.370  -0.105  25.734  0.00  0.00    -0.056 NA
ATOM     19  O   UNL     1      -1.994  -0.643  25.733  0.00  0.00    -0.336 OA
BRANCH  17  20
ATOM     20  C   UNL     1      -0.603   0.601  24.698  0.00  0.00    +0.093 A 
ATOM     21  C   UNL     1      -0.516   1.336  25.062  0.00  0.00    +0.176 A 
ATOM     22  N   UNL     1      -1.019   1.552  25.679  0.00  0.00    -0.107 NA
ATOM     23  N   UNL     1       0.073   1.855  24.809  0.00  0.00    -0.206 NA
ATOM     24  C   UNL     1       0.576   1.638  24.191  0.00  0.00    +0.200 A 
ATOM     25  N   UNL     1       0.490   0.903  23.827  0.00  0.00    -0.222 NA
ATOM     26  C   UNL     1      -0.100   0.384  24.080  0.00  0.00    +0.107 A 
ENDBRANCH  17  20
ENDBRANCH  14  15
TORSDOF 3
ENDMDL
MODEL 6
REMARK VINA RESULT:     -10.6      1.530      3.863
REMARK  Name = 
REMARK  3 active torsions:
REMARK  status: ('A' for Active; 'I' for Inactive)
REMARK    1  A    between atoms: C_7  and  N_10
REMARK    2  A    between atoms: C_14  and  C_15
REMARK    3  A    between atoms: C_17  and  C_20
REMARK                            x       y       z     vdW  Elec       q    Type
REMARK                         _______ _______ _______ _____ _____    ______ ____
ROOT
ATOM     10  N   UNL     1      -4.209   2.613  25.051  0.00  0.00    -0.268 NA
ATOM     11  C   UNL     1      -4.788   3.141  25.311  0.00  0.00    +0.072 C 
ATOM     12  C   UNL     1      -5.517   2.756  25.274  0.00  0.00    +0.019 C 
ATOM     13  C   UNL     1      -5.389   1.993  24.989  0.00  0.00    +0.027 C 
ATOM     14  C   UNL     1      -4.580   1.905  24.852  0.00  0.00    +0.138 C 
ENDROOT
BRANCH  10   7
ATOM      1  C   UNL     1      -0.492   3.138  25.502  0.00  0.00    +0.095 C 
ATOM      2  C   UNL     1      -0.974   3.236  24.840  0.00  0.00    +0.226 C 
ATOM      3  O   UNL     1      -0.649   3.489  24.126  0.00  0.00    -0.275 OA
ATOM      4  N   UNL     1      -1.784   3.080  24.893  0.00  0.00    -0.279 N 
ATOM      5  C   UNL     1      -2.266   3.178  24.231  0.00  0.00    +0.095 C 
ATOM      6  C   UNL     1      -3.075   3.022  24.283  0.00  0.00    +0.038 C 
ATOM      7  C   UNL     1      -3.401   2.769  24.998  0.00  0.00    +0.061 C 
ATOM      8  C   UNL     1      -2.918   2.671  25.659  0.00  0.00    +0.038 C 
ATOM      9  C   UNL     1      -2.109   2.827  25.607  0.00  0.00    +0.095 C 
ENDBRANCH  10   7
BRANCH  14  15
ATOM     15  C   UNL     1      -4.208   1.227  24.566  0.00  0.00    +0.251 A 
ATOM     16  N   UNL     1      -4.066   0.534  24.992  0.00  0.00    -0.189 NA
ATOM     17  C   UNL     1      -3.683   0.001  24.493  0.00  0.00    +0.208 A 
ATOM     18  N   UNL     1      -3.587   0.364  23.758  0.00  0.00    -0.056 NA
ATOM     19  O   UNL     1      -3.911   1.120  23.803  0.00  0.00    -0.336 OA
BRANCH  17  20
ATOM     20  C   UNL     1      -3.438  -0.761  24.693  0.00  0.00    +0.093 A 
ATOM     21  C   UNL     1      -3.865  -1.414  24.427  0.00  0.00    +0.176 A 
ATOM     22  N   UNL     1      -4.538  -1.306  23.961  0.00  0.00    -0.107 NA
ATOM     23  N   UNL     1      -3.620  -2.176  24.628  0.00  0.00    -0.206 NA
ATOM     24  C   UNL     1      -2.948  -2.285  25.094  0.00  0.00    +0.200 A 
ATOM     25  N   UNL     1      -2.521  -1.631  25.360  0.00  0.00    -0.222 NA
ATOM     26  C   UNL     1      -2.766  -0.869  25.159  0.00  0.00    +0.107 A 
ENDBRANCH  17  20
ENDBRANCH  14  15
TORSDOF 3
ENDMDL
MODEL 7
REMARK VINA RESULT:     -10.5      1.206      3.167
REMARK  Name = 
REMARK  3 active torsions:
REMARK  status: ('A' for Active; 'I' for Inactive)
REMARK    1  A    between atoms: C_7  and  N_10
REMARK    2  A    between atoms: C_14  and  C_15
REMARK    3  A    between atoms: C_17  and  C_20
REMARK                            x       y       z     vdW  Elec       q    Type
REMARK                         _______ _______ _______ _____ _____    ______ ____
ROOT
ATOM     10  N   UNL     1      -1.365   0.584  24.745  0.00  0.00    -0.268 NA
ATOM     11  C   UNL     1      -0.545   0.591  24.832  0.00  0.00    +0.072 C 
ATOM     12  C   UNL     1      -0.282   1.362  24.697  0.00  0.00    +0.019 C 
ATOM     13  C   UNL     1      -0.940   1.829  24.527  0.00  0.00    +0.027 C 
ATOM     14  C   UNL     1      -1.610   1.348  24.557  0.00  0.00    +0.138 C 
ENDROOT
BRANCH  10   7
ATOM      1  C   UNL     1      -3.532  -2.499  24.431  0.00  0.00    +0.095 C 
ATOM      2  C   UNL     1      -3.326  -2.050  25.091  0.00  0.00    +0.226 C 
ATOM      3  O   UNL     1      -3.608  -2.258  25.838  0.00  0.00    -0.275 OA
ATOM      4  N   UNL     1      -2.835  -1.391  25.004  0.00  0.00    -0.279 N 
ATOM      5  C   UNL     1      -2.628  -0.942  25.665  0.00  0.00    +0.095 C 
ATOM      6  C   UNL     1      -2.138  -0.283  25.578  0.00  0.00    +0.038 C 
ATOM      7  C   UNL     1      -1.855  -0.075  24.831  0.00  0.00    +0.061 C 
ATOM      8  C   UNL     1      -2.062  -0.525  24.172  0.00  0.00    +0.038 C 
ATOM      9  C   UNL     1      -2.552  -1.183  24.258  0.00  0.00    +0.095 C 
ENDBRANCH  10   7
BRANCH  14  15
ATOM     15  C   UNL     1      -2.387   1.589  24.422  0.00  0.00    +0.251 A 
ATOM     16  N   UNL     1      -2.873   1.983  24.960  0.00  0.00    -0.189 NA
ATOM     17  C   UNL     1      -3.601   2.116  24.596  0.00  0.00    +0.208 A 
ATOM     18  N   UNL     1      -3.565   1.804  23.834  0.00  0.00    -0.056 NA
ATOM     19  O   UNL     1      -2.816   1.478  23.726  0.00  0.00    -0.336 OA
BRANCH  17  20
ATOM     20  C   UNL     1      -4.251   2.495  24.935  0.00  0.00    +0.093 A 
ATOM     21  C   UNL     1      -4.968   2.095  25.010  0.00  0.00    +0.176 A 
ATOM     22  N   UNL     1      -5.036   1.317  24.745  0.00  0.00    -0.107 NA
ATOM     23  N   UNL     1      -5.618   2.474  25.349  0.00  0.00    -0.206 NA
ATOM     24  C   UNL     1      -5.550   3.252  25.614  0.00  0.00    +0.200 A 
ATOM     25  N   UNL     1      -4.832   3.652  25.539  0.00  0.00    -0.222 NA
ATOM     26  C   UNL     1      -4.182   3.273  25.200  0.00  0.00    +0.107 A 
ENDBRANCH  17  20
ENDBRANCH  14  15
TORSDOF 3
ENDMDL
