MODEL 1
REMARK VINA RESULT:      -9.7      0.000      0.000
REMARK  Name = 
REMARK  4 active torsions:
REMARK  status: ('A' for Active; 'I' for Inactive)
REMARK    1  A    between atoms: N_3  and  C_4
REMARK    2  A    between atoms: C_4  and  C_5
REMARK    3  A    between atoms: N_14  and  C_15
REMARK    4  A    between atoms: C_15  and  C_16
REMARK                            x       y       z     vdW  Elec       q    Type
REMARK                         _______ _______ _______ _____ _____    ______ ____
ROOT
ATOM      1  O   UNL     1      -5.151   1.336  24.745  0.00  0.00    -0.252 OA
ATOM      2  C   UNL     1      -4.336   1.214  24.787  0.00  0.00    +0.308 C 
ATOM      3  N   UNL     1      -3.962   0.514  25.011  0.00  0.00    -0.257 N 
ATOM     11  C   UNL     1      -3.146   0.637  24.974  0.00  0.00    +0.117 C 
ATOM     12  C   UNL     1      -3.017   1.413  24.727  0.00  0.00    +0.113 C 
ATOM     13  C   UNL     1      -2.325   1.842  24.593  0.00  0.00    +0.094 C 
ATOM     14  N   UNL     1      -2.368   2.626  24.343  0.00  0.00    -0.270 NA
ATOM     19  C   UNL     1      -3.103   2.983  24.227  0.00  0.00    +0.094 C 
ATOM     20  C   UNL     1      -3.795   2.555  24.361  0.00  0.00    +0.112 C 
ATOM     21  N   UNL     1      -3.752   1.769  24.611  0.00  0.00    -0.261 N 
ENDROOT
BRANCH   3   4
ATOM      4  C   UNL     1      -4.337  -0.187  25.233  0.00  0.00    +0.141 C 
BRANCH   4   5
ATOM      5  C   UNL     1      -4.083  -0.908  24.922  0.00  0.00    +0.079 A 
ATOM      6  N   UNL     1      -4.330  -1.142  24.170  0.00  0.00    -0.246 NA
ATOM      7  C   UNL     1      -4.076  -1.863  23.860  0.00  0.00    +0.099 A 
ATOM      8  C   UNL     1      -3.576  -2.349  24.299  0.00  0.00    +0.021 A 
ATOM      9  C   UNL     1      -3.329  -2.115  25.050  0.00  0.00    +0.003 A 
ATOM     10  C   UNL     1      -3.582  -1.394  25.362  0.00  0.00    +0.016 A 
ENDBRANCH   4   5
ENDBRANCH   3   4
BRANCH  14  15
ATOM     15  C   UNL     1      -1.676   3.055  24.208  0.00  0.00    +0.072 C 
BRANCH  15  16
ATOM     16  C   UNL     1      -1.376   3.550  24.795  0.00  0.00    +0.016 C 
ATOM     17  C   UNL     1      -1.468   4.193  25.303  0.00  0.00    +0.001 C 
ATOM     18  C   UNL     1      -0.763   3.763  25.306  0.00  0.00    +0.001 C 
ENDBRANCH  15  16
ENDBRANCH  14  15
TORSDOF 4
ENDMDL
MODEL 2
REMARK VINA RESULT:      -9.5      0.652      4.401
REMARK  Name = 
REMARK  4 active torsions:
REMARK  status: ('A' for Active; 'I' for Inactive)
REMARK    1  A    between atoms: N_3  and  C_4
REMARK    2  A    between atoms: C_4  and  C_5
REMARK    3  A    between atoms: N_14  and  C_15
REMARK    4  A    between atoms: C_15  and  C_16
REMARK                            x       y       z     vdW  Elec       q    Type
REMARK                         _______ _______ _______ _____ _____    ______ ____
ROOT
ATOM      1  O   UNL     1      -4.754   2.428  24.471  0.00  0.00    -0.252 OA
ATOM      2  C   UNL     1      -4.082   1.955  24.547  0.00  0.00    +0.308 C 
ATOM      3  N   UNL     1      -3.303   2.195  24.423  0.00  0.00    -0.257 N 
ATOM     11  C   UNL     1      -2.811   1.547  24.560  0.00  0.00    +0.117 C 
ATOM     12  C   UNL     1      -3.287   0.906  24.768  0.00  0.00    +0.113 C 
ATOM     13  C   UNL     1      -3.107   0.125  24.964  0.00  0.00    +0.094 C 
ATOM     14  N   UNL     1      -3.711  -0.404  25.151  0.00  0.00    -0.270 NA
ATOM     19  C   UNL     1      -4.497  -0.151  25.143  0.00  0.00    +0.094 C 
ATOM     20  C   UNL     1      -4.678   0.629  24.947  0.00  0.00    +0.112 C 
ATOM     21  N   UNL     1      -4.072   1.158  24.760  0.00  0.00    -0.261 N 
ENDROOT
BRANCH   3   4
ATOM      4  C   UNL     1      -3.058   2.951  24.202  0.00  0.00    +0.141 C 
BRANCH   4   5
ATOM      5  C   UNL     1      -2.427   3.312  24.592  0.00  0.00    +0.079 A 
ATOM      6  N   UNL     1      -1.653   3.171  24.342  0.00  0.00    -0.246 NA
ATOM      7  C   UNL     1      -1.022   3.531  24.732  0.00  0.00    +0.099 A 
ATOM      8  C   UNL     1      -1.164   4.032  25.372  0.00  0.00    +0.021 A 
ATOM      9  C   UNL     1      -1.937   4.172  25.622  0.00  0.00    +0.003 A 
ATOM     10  C   UNL     1      -2.569   3.812  25.233  0.00  0.00    +0.016 A 
ENDBRANCH   4   5
ENDBRANCH   3   4
BRANCH  14  15
ATOM     15  C   UNL     1      -3.532  -1.185  25.347  0.00  0.00    +0.072 C 
BRANCH  15  16
ATOM     16  C   UNL     1      -3.624  -1.783  24.787  0.00  0.00    +0.016 C 
ATOM     17  C   UNL     1      -3.979  -2.069  24.099  0.00  0.00    +0.001 C 
ATOM     18  C   UNL     1      -3.430  -2.534  24.504  0.00  0.00    +0.001 C 
ENDBRANCH  15  16
ENDBRANCH  14  15
TORSDOF 4
ENDMDL
MODEL 3
REMARK VINA RESULT:      -9.3      1.551      4.696
REMARK  Name = 
REMARK  4 active torsions:
REMARK  status: ('A' for Active; 'I' for Inactive)
REMARK    1  A    between atoms: N_3  and  C_4
REMARK    2  A    between atoms: C_4  and  C_5
REMARK    3  A    between atoms: N_14  and  C_15
REMARK    4  A    between atoms: C_15  and  C_16
REMARK                            x       y       z     vdW  Elec       q    Type
REMARK                         _______ _______ _______ _____ _____    ______ ____
ROOT
ATOM      1  O   UNL     1      -0.405   0.999  24.218  0.00  0.00    -0.252 OA
ATOM      2  C   UNL     1      -1.207   0.942  24.406  0.00  0.00    +0.308 C 
ATOM      3  N   UNL     1      -1.751   1.561  24.403  0.00  0.00    -0.257 N 
ATOM     11  C   UNL     1      -2.485   1.256  24.625  0.00  0.00    +0.117 C 
ATOM     12  C   UNL     1      -2.394   0.449  24.766  0.00  0.00    +0.113 C 
ATOM     13  C   UNL     1      -2.928  -0.135  25.000  0.00  0.00    +0.094 C 
ATOM     14  N   UNL     1      -2.672  -0.912  25.098  0.00  0.00    -0.270 NA
ATOM     19  C   UNL     1      -1.882  -1.107  24.963  0.00  0.00    +0.094 C 
ATOM     20  C   UNL     1      -1.347  -0.524  24.729  0.00  0.00    +0.112 C 
ATOM     21  N   UNL     1      -1.604   0.255  24.630  0.00  0.00    -0.261 N 
ENDROOT
BRANCH   3   4
ATOM      4  C   UNL     1      -1.590   2.347  24.211  0.00  0.00    +0.141 C 
BRANCH   4   5
ATOM      5  C   UNL     1      -1.881   2.956  24.686  0.00  0.00    +0.079 A 
ATOM      6  N   UNL     1      -2.632   3.267  24.544  0.00  0.00    -0.246 NA
ATOM      7  C   UNL     1      -2.922   3.876  25.019  0.00  0.00    +0.099 A 
ATOM      8  C   UNL     1      -2.462   4.174  25.636  0.00  0.00    +0.021 A 
ATOM      9  C   UNL     1      -1.712   3.863  25.777  0.00  0.00    +0.003 A 
ATOM     10  C   UNL     1      -1.420   3.254  25.303  0.00  0.00    +0.016 A 
ENDBRANCH   4   5
ENDBRANCH   3   4
BRANCH  14  15
ATOM     15  C   UNL     1      -3.206  -1.497  25.332  0.00  0.00    +0.072 C 
BRANCH  15  16
ATOM     16  C   UNL     1      -3.540  -2.000  24.771  0.00  0.00    +0.016 C 
ATOM     17  C   UNL     1      -4.011  -2.114  24.103  0.00  0.00    +0.001 C 
ATOM     18  C   UNL     1      -3.646  -2.760  24.465  0.00  0.00    +0.001 C 
ENDBRANCH  15  16
ENDBRANCH  14  15
TORSDOF 4
ENDMDL
MODEL 4
REMARK VINA RESULT:      -9.2      2.016      2.505
REMARK  Name = 
REMARK  4 active torsions:
REMARK  status: ('A' for Active; 'I' for Inactive)
REMARK    1  A    between atoms: N_3  and  C_4
REMARK    2  A    between atoms: C_4  and  C_5
REMARK    3  A    between atoms: N_14  and  C_15
REMARK    4  A    between atoms: C_15  and  C_16
REMARK                            x       y       z     vdW  Elec       q    Type
REMARK                         _______ _______ _______ _____ _____    ______ ____
ROOT
ATOM      1  O   UNL     1      -0.164  -0.235  23.843  0.00  0.00    -0.252 OA
ATOM      2  C   UNL     1      -0.556   0.169  24.446  0.00  0.00    +0.308 C 
ATOM      3  N   UNL     1      -1.142  -0.141  24.936  0.00  0.00    -0.257 N 
ATOM     11  C   UNL     1      -1.379   0.453  25.458  0.00  0.00    +0.117 C 
ATOM     12  C   UNL     1      -0.939   1.130  25.289  0.00  0.00    +0.113 C 
ATOM     13  C   UNL     1      -0.935   1.884  25.624  0.00  0.00    +0.094 C 
ATOM     14  N   UNL     1      -0.423   2.462  25.335  0.00  0.00    -0.270 NA
ATOM     19  C   UNL     1       0.085   2.286  24.709  0.00  0.00    +0.094 C 
ATOM     20  C   UNL     1       0.082   1.533  24.374  0.00  0.00    +0.112 C 
ATOM     21  N   UNL     1      -0.430   0.954  24.664  0.00  0.00    -0.261 N 
ENDROOT
BRANCH   3   4
ATOM      4  C   UNL     1      -1.440  -0.910  24.910  0.00  0.00    +0.141 C 
BRANCH   4   5
ATOM      5  C   UNL     1      -2.253  -1.040  24.958  0.00  0.00    +0.079 A 
ATOM      6  N   UNL     1      -2.723  -0.960  24.284  0.00  0.00    -0.246 NA
ATOM      7  C   UNL     1      -3.536  -1.090  24.332  0.00  0.00    +0.099 A 
ATOM      8  C   UNL     1      -3.879  -1.300  25.053  0.00  0.00    +0.021 A 
ATOM      9  C   UNL     1      -3.409  -1.379  25.725  0.00  0.00    +0.003 A 
ATOM     10  C   UNL     1      -2.596  -1.250  25.679  0.00  0.00    +0.016 A 
ENDBRANCH   4   5
ENDBRANCH   3   4
BRANCH  14  15
ATOM     15  C   UNL     1      -0.419   3.216  25.670  0.00  0.00    +0.072 C 
BRANCH  15  16
ATOM     16  C   UNL     1      -0.899   3.809  25.357  0.00  0.00    +0.016 C 
ATOM     17  C   UNL     1      -1.650   4.112  25.199  0.00  0.00    +0.001 C 
ATOM     18  C   UNL     1      -0.979   4.536  24.973  0.00  0.00    +0.001 C 
ENDBRANCH  15  16
ENDBRANCH  14  15
TORSDOF 4
ENDMDL
