MODEL 1
REMARK VINA RESULT:      -9.7      0.000      0.000
REMARK  Name = 
REMARK  7 active torsions:
REMARK  status: ('A' for Active; 'I' for Inactive)
REMARK    1  A    between atoms: C_3  and  C_4
REMARK    2  A    between atoms: C_4  and  N_5
REMARK    3  A    between atoms: N_5  and  S_6
REMARK    4  A    between atoms: S_6  and  C_9
REMARK    5  A    between atoms: C_17  and  N_18
REMARK    6  A    between atoms: N_18  and  C_19
REMARK    7  A    between atoms: C_19  and  C_20
REMARK                            x       y       z     vdW  Elec       q    Type
REMARK                         _______ _______ _______ _____ _____    ______ ____
ROOT
ATOM      1  O   UNL     1      -2.785   1.017  23.637  0.00  0.00    -0.219 OA
ATOM      2  C   UNL     1      -3.385   1.118  24.194  0.00  0.00    +0.199 C 
ATOM      3  C   UNL     1      -3.563   1.816  24.595  0.00  0.00    +0.166 C 
ATOM     15  O   UNL     1      -4.200   1.668  25.097  0.00  0.00    -0.350 OA
ATOM     16  C   UNL     1      -4.417   0.877  25.006  0.00  0.00    +0.162 C 
ATOM     17  C   UNL     1      -3.914   0.537  24.449  0.00  0.00    +0.135 C 
ENDROOT
BRANCH   3   4
ATOM      4  C   UNL     1      -3.171   2.538  24.509  0.00  0.00    +0.148 C 
BRANCH   4   5
ATOM      5  N   UNL     1      -2.996   2.994  25.173  0.00  0.00    -0.075 NA
BRANCH   5   6
ATOM      6  S   UNL     1      -2.446   3.608  25.119  0.00  0.00    +0.077 S 
ATOM      7  O   UNL     1      -2.912   3.975  24.546  0.00  0.00    -0.152 OA
ATOM      8  O   UNL     1      -1.981   3.240  25.693  0.00  0.00    -0.152 OA
BRANCH   6   9
ATOM      9  C   UNL     1      -1.898   4.220  25.066  0.00  0.00    +0.124 A 
ATOM     10  C   UNL     1      -2.134   5.000  25.199  0.00  0.00    +0.020 A 
ATOM     11  C   UNL     1      -1.585   5.612  25.146  0.00  0.00    +0.001 A 
ATOM     12  C   UNL     1      -0.798   5.447  24.958  0.00  0.00    +0.000 A 
ATOM     13  C   UNL     1      -0.562   4.668  24.824  0.00  0.00    +0.001 A 
ATOM     14  C   UNL     1      -1.112   4.054  24.878  0.00  0.00    +0.020 A 
ENDBRANCH   6   9
ENDBRANCH   5   6
ENDBRANCH   4   5
ENDBRANCH   3   4
BRANCH  17  18
ATOM     18  N   UNL     1      -3.934  -0.246  24.191  0.00  0.00    -0.209 NA
BRANCH  18  19
ATOM     19  C   UNL     1      -4.177  -0.843  24.705  0.00  0.00    +0.117 C 
BRANCH  19  20
ATOM     20  C   UNL     1      -3.988  -1.630  24.543  0.00  0.00    +0.014 A 
ATOM     21  C   UNL     1      -3.482  -2.045  25.045  0.00  0.00    +0.000 A 
ATOM     22  C   UNL     1      -3.293  -2.832  24.883  0.00  0.00    +0.020 A 
ATOM     23  C   UNL     1      -3.610  -3.203  24.217  0.00  0.00    +0.099 A 
ATOM     24  N   UNL     1      -4.115  -2.788  23.714  0.00  0.00    -0.243 NA
ATOM     25  C   UNL     1      -4.304  -2.001  23.877  0.00  0.00    +0.096 A 
ENDBRANCH  19  20
ENDBRANCH  18  19
ENDBRANCH  17  18
TORSDOF 7
ENDMDL
MODEL 2
REMARK VINA RESULT:      -9.4      1.387      5.851
REMARK  Name = 
REMARK  7 active torsions:
REMARK  status: ('A' for Active; 'I' for Inactive)
REMARK    1  A    between atoms: C_3  and  C_4
REMARK    2  A    between atoms: C_4  and  N_5
REMARK    3  A    between atoms: N_5  and  S_6
REMARK    4  A    between atoms: S_6  and  C_9
REMARK    5  A    between atoms: C_17  and  N_18
REMARK    6  A    between atoms: N_18  and  C_19
REMARK    7  A    between atoms: C_19  and  C_20
REMARK                            x       y       z     vdW  Elec       q    Type
REMARK                         _______ _______ _______ _____ _____    ______ ____
ROOT
ATOM      1  O   UNL     1      -2.528   1.691  23.713  0.00  0.00    -0.219 OA
ATOM      2  C   UNL     1      -3.104   1.881  24.272  0.00  0.00    +0.199 C 
ATOM      3  C   UNL     1      -3.704   1.382  24.539  0.00  0.00    +0.166 C 
ATOM     15  O   UNL     1      -4.152   1.797  25.093  0.00  0.00    -0.350 OA
ATOM     16  C   UNL     1      -3.830   2.552  25.169  0.00  0.00    +0.162 C 
ATOM     17  C   UNL     1      -3.182   2.605  24.661  0.00  0.00    +0.135 C 
ENDROOT
BRANCH   3   4
ATOM      4  C   UNL     1      -3.833   0.605  24.295  0.00  0.00    +0.148 C 
BRANCH   4   5
ATOM      5  N   UNL     1      -4.146   0.053  24.822  0.00  0.00    -0.075 NA
BRANCH   5   6
ATOM      6  S   UNL     1      -4.025  -0.754  24.696  0.00  0.00    +0.077 S 
ATOM      7  O   UNL     1      -4.354  -0.685  23.942  0.00  0.00    -0.152 OA
ATOM      8  O   UNL     1      -3.697  -0.823  25.450  0.00  0.00    -0.152 OA
BRANCH   6   9
ATOM      9  C   UNL     1      -3.905  -1.559  24.569  0.00  0.00    +0.124 A 
ATOM     10  C   UNL     1      -3.432  -1.993  25.088  0.00  0.00    +0.020 A 
ATOM     11  C   UNL     1      -3.312  -2.799  24.961  0.00  0.00    +0.001 A 
ATOM     12  C   UNL     1      -3.664  -3.173  24.315  0.00  0.00    +0.000 A 
ATOM     13  C   UNL     1      -4.137  -2.739  23.797  0.00  0.00    +0.001 A 
ATOM     14  C   UNL     1      -4.258  -1.932  23.924  0.00  0.00    +0.020 A 
ENDBRANCH   6   9
ENDBRANCH   5   6
ENDBRANCH   4   5
ENDBRANCH   3   4
BRANCH  17  18
ATOM     18  N   UNL     1      -2.697   3.264  24.560  0.00  0.00    -0.209 NA
BRANCH  18  19
ATOM     19  C   UNL     1      -2.379   3.646  25.218  0.00  0.00    +0.117 C 
BRANCH  19  20
ATOM     20  C   UNL     1      -1.819   4.245  25.117  0.00  0.00    +0.014 A 
ATOM     21  C   UNL     1      -2.051   5.036  25.151  0.00  0.00    +0.000 A 
ATOM     22  C   UNL     1      -1.491   5.634  25.050  0.00  0.00    +0.020 A 
ATOM     23  C   UNL     1      -0.701   5.441  24.915  0.00  0.00    +0.099 A 
ATOM     24  N   UNL     1      -0.469   4.650  24.881  0.00  0.00    -0.243 NA
ATOM     25  C   UNL     1      -1.029   4.051  24.982  0.00  0.00    +0.096 A 
ENDBRANCH  19  20
ENDBRANCH  18  19
ENDBRANCH  17  18
TORSDOF 7
ENDMDL
MODEL 3
REMARK VINA RESULT:      -7.7      3.474      4.671
REMARK  Name = 
REMARK  7 active torsions:
REMARK  status: ('A' for Active; 'I' for Inactive)
REMARK    1  A    between atoms: C_3  and  C_4
REMARK    2  A    between atoms: C_4  and  N_5
REMARK    3  A    between atoms: N_5  and  S_6
REMARK    4  A    between atoms: S_6  and  C_9
REMARK    5  A    between atoms: C_17  and  N_18
REMARK    6  A    between atoms: N_18  and  C_19
REMARK    7  A    between atoms: C_19  and  C_20
REMARK                            x       y       z     vdW  Elec       q    Type
REMARK                         _______ _______ _______ _____ _____    ______ ____
ROOT
ATOM      1  O   UNL     1      -0.807   1.999  23.793  0.00  0.00    -0.219 OA
ATOM      2  C   UNL     1      -0.937   1.198  23.943  0.00  0.00    +0.199 C 
ATOM      3  C   UNL     1      -1.620   0.871  24.270  0.00  0.00    +0.166 C 
ATOM     15  O   UNL     1      -1.512   0.055  24.321  0.00  0.00    -0.350 OA
ATOM     16  C   UNL     1      -0.763  -0.123  24.025  0.00  0.00    +0.162 C 
ATOM     17  C   UNL     1      -0.407   0.583  23.791  0.00  0.00    +0.135 C 
ENDROOT
BRANCH   3   4
ATOM      4  C   UNL     1      -2.292   1.287  24.506  0.00  0.00    +0.148 C 
BRANCH   4   5
ATOM      5  N   UNL     1      -3.040   0.954  24.406  0.00  0.00    -0.075 NA
BRANCH   5   6
ATOM      6  S   UNL     1      -3.712   1.371  24.641  0.00  0.00    +0.077 S 
ATOM      7  O   UNL     1      -3.818   1.636  23.866  0.00  0.00    -0.152 OA
ATOM      8  O   UNL     1      -3.607   1.105  25.415  0.00  0.00    -0.152 OA
BRANCH   6   9
ATOM      9  C   UNL     1      -4.384   1.787  24.875  0.00  0.00    +0.124 A 
ATOM     10  C   UNL     1      -5.103   1.393  24.970  0.00  0.00    +0.020 A 
ATOM     11  C   UNL     1      -5.775   1.809  25.204  0.00  0.00    +0.001 A 
ATOM     12  C   UNL     1      -5.729   2.622  25.343  0.00  0.00    +0.000 A 
ATOM     13  C   UNL     1      -5.011   3.016  25.248  0.00  0.00    +0.001 A 
ATOM     14  C   UNL     1      -4.338   2.599  25.014  0.00  0.00    +0.020 A 
ENDBRANCH   6   9
ENDBRANCH   5   6
ENDBRANCH   4   5
ENDBRANCH   3   4
BRANCH  17  18
ATOM     18  N   UNL     1       0.345   0.662  23.463  0.00  0.00    -0.209 NA
BRANCH  18  19
ATOM     19  C   UNL     1       0.794  -0.009  23.297  0.00  0.00    +0.117 C 
BRANCH  19  20
ATOM     20  C   UNL     1       1.515   0.064  22.901  0.00  0.00    +0.014 A 
ATOM     21  C   UNL     1       2.155   0.427  23.273  0.00  0.00    +0.000 A 
ATOM     22  C   UNL     1       2.876   0.500  22.878  0.00  0.00    +0.020 A 
ATOM     23  C   UNL     1       2.955   0.210  22.109  0.00  0.00    +0.099 A 
ATOM     24  N   UNL     1       2.315  -0.153  21.737  0.00  0.00    -0.243 NA
ATOM     25  C   UNL     1       1.594  -0.226  22.133  0.00  0.00    +0.096 A 
ENDBRANCH  19  20
ENDBRANCH  18  19
ENDBRANCH  17  18
TORSDOF 7
ENDMDL
MODEL 4
REMARK VINA RESULT:      -7.0      3.445      4.647
REMARK  Name = 
REMARK  7 active torsions:
REMARK  status: ('A' for Active; 'I' for Inactive)
REMARK    1  A    between atoms: C_3  and  C_4
REMARK    2  A    between atoms: C_4  and  N_5
REMARK    3  A    between atoms: N_5  and  S_6
REMARK    4  A    between atoms: S_6  and  C_9
REMARK    5  A    between atoms: C_17  and  N_18
REMARK    6  A    between atoms: N_18  and  C_19
REMARK    7  A    between atoms: C_19  and  C_20
REMARK                            x       y       z     vdW  Elec       q    Type
REMARK                         _______ _______ _______ _____ _____    ______ ____
ROOT
ATOM      1  O   UNL     1      -2.066   1.741  23.121  0.00  0.00    -0.219 OA
ATOM      2  C   UNL     1      -1.943   1.371  23.848  0.00  0.00    +0.199 C 
ATOM      3  C   UNL     1      -1.252   0.992  24.089  0.00  0.00    +0.166 C 
ATOM     15  O   UNL     1      -1.372   0.703  24.852  0.00  0.00    -0.350 OA
ATOM     16  C   UNL     1      -2.138   0.904  25.083  0.00  0.00    +0.162 C 
ATOM     17  C   UNL     1      -2.491   1.317  24.463  0.00  0.00    +0.135 C 
ENDROOT
BRANCH   3   4
ATOM      4  C   UNL     1      -0.561   0.914  23.644  0.00  0.00    +0.148 C 
BRANCH   4   5
ATOM      5  N   UNL     1       0.029   0.391  23.885  0.00  0.00    -0.075 NA
BRANCH   5   6
ATOM      6  S   UNL     1       0.721   0.316  23.442  0.00  0.00    +0.077 S 
ATOM      7  O   UNL     1       0.526  -0.467  23.270  0.00  0.00    -0.152 OA
ATOM      8  O   UNL     1       0.916   1.099  23.615  0.00  0.00    -0.152 OA
BRANCH   6   9
ATOM      9  C   UNL     1       1.412   0.241  22.999  0.00  0.00    +0.124 A 
ATOM     10  C   UNL     1       1.405  -0.183  22.291  0.00  0.00    +0.020 A 
ATOM     11  C   UNL     1       2.097  -0.258  21.849  0.00  0.00    +0.001 A 
ATOM     12  C   UNL     1       2.797   0.091  22.113  0.00  0.00    +0.000 A 
ATOM     13  C   UNL     1       2.804   0.514  22.821  0.00  0.00    +0.001 A 
ATOM     14  C   UNL     1       2.111   0.589  23.264  0.00  0.00    +0.020 A 
ENDBRANCH   6   9
ENDBRANCH   5   6
ENDBRANCH   4   5
ENDBRANCH   3   4
BRANCH  17  18
ATOM     18  N   UNL     1      -3.257   1.623  24.458  0.00  0.00    -0.209 NA
BRANCH  18  19
ATOM     19  C   UNL     1      -3.782   1.430  25.065  0.00  0.00    +0.117 C 
BRANCH  19  20
ATOM     20  C   UNL     1      -4.511   1.813  25.117  0.00  0.00    +0.014 A 
ATOM     21  C   UNL     1      -5.204   1.409  24.925  0.00  0.00    +0.000 A 
ATOM     22  C   UNL     1      -5.933   1.792  24.977  0.00  0.00    +0.020 A 
ATOM     23  C   UNL     1      -5.969   2.579  25.222  0.00  0.00    +0.099 A 
ATOM     24  N   UNL     1      -5.276   2.983  25.414  0.00  0.00    -0.243 NA
ATOM     25  C   UNL     1      -4.547   2.600  25.362  0.00  0.00    +0.096 A 
ENDBRANCH  19  20
ENDBRANCH  18  19
ENDBRANCH  17  18
TORSDOF 7
ENDMDL
MODEL 5
REMARK VINA RESULT:      -6.4     14.231     14.968
REMARK  Name = 
REMARK  7 active torsions:
REMARK  status: ('A' for Active; 'I' for Inactive)
REMARK    1  A    between atoms: C_3  and  C_4
REMARK    2  A    between atoms: C_4  and  N_5
REMARK    3  A    between atoms: N_5  and  S_6
REMARK    4  A    between atoms: S_6  and  C_9
REMARK    5  A    between atoms: C_17  and  N_18
REMARK    6  A    between atoms: N_18  and  C_19
REMARK    7  A    between atoms: C_19  and  C_20
REMARK                            x       y       z     vdW  Elec       q    Type
REMARK                         _______ _______ _______ _____ _____    ______ ____
ROOT
ATOM      1  O   UNL     1      -5.647  -9.753  15.517  0.00  0.00    -0.219 OA
ATOM      2  C   UNL     1      -5.484  -9.973  16.295  0.00  0.00    +0.199 C 
ATOM      3  C   UNL     1      -6.031 -10.019  16.911  0.00  0.00    +0.166 C 
ATOM     15  O   UNL     1      -5.631 -10.259  17.590  0.00  0.00    -0.350 OA
ATOM     16  C   UNL     1      -4.836 -10.362  17.395  0.00  0.00    +0.162 C 
ATOM     17  C   UNL     1      -4.745 -10.185  16.595  0.00  0.00    +0.135 C 
ENDROOT
BRANCH   3   4
ATOM      4  C   UNL     1      -6.838  -9.854  16.856  0.00  0.00    +0.148 C 
BRANCH   4   5
ATOM      5  N   UNL     1      -7.282  -9.732  17.541  0.00  0.00    -0.075 NA
BRANCH   5   6
ATOM      6  S   UNL     1      -8.082  -9.538  17.485  0.00  0.00    +0.077 S 
ATOM      7  O   UNL     1      -8.282 -10.331  17.595  0.00  0.00    -0.152 OA
ATOM      8  O   UNL     1      -7.882  -8.745  17.374  0.00  0.00    -0.152 OA
BRANCH   6   9
ATOM      9  C   UNL     1      -8.882  -9.345  17.429  0.00  0.00    +0.124 A 
ATOM     10  C   UNL     1      -9.139  -8.813  16.853  0.00  0.00    +0.020 A 
ATOM     11  C   UNL     1      -9.939  -8.620  16.797  0.00  0.00    +0.001 A 
ATOM     12  C   UNL     1     -10.483  -8.958  17.318  0.00  0.00    +0.000 A 
ATOM     13  C   UNL     1     -10.225  -9.490  17.894  0.00  0.00    +0.001 A 
ATOM     14  C   UNL     1      -9.425  -9.683  17.950  0.00  0.00    +0.020 A 
ENDBRANCH   6   9
ENDBRANCH   5   6
ENDBRANCH   4   5
ENDBRANCH   3   4
BRANCH  17  18
ATOM     18  N   UNL     1      -4.040 -10.214  16.169  0.00  0.00    -0.209 NA
BRANCH  18  19
ATOM     19  C   UNL     1      -3.465 -10.774  16.362  0.00  0.00    +0.117 C 
BRANCH  19  20
ATOM     20  C   UNL     1      -2.739 -10.773  15.968  0.00  0.00    +0.014 A 
ATOM     21  C   UNL     1      -2.718 -10.780  15.143  0.00  0.00    +0.000 A 
ATOM     22  C   UNL     1      -1.993 -10.779  14.749  0.00  0.00    +0.020 A 
ATOM     23  C   UNL     1      -1.289 -10.770  15.181  0.00  0.00    +0.099 A 
ATOM     24  N   UNL     1      -1.311 -10.763  16.005  0.00  0.00    -0.243 NA
ATOM     25  C   UNL     1      -2.036 -10.764  16.399  0.00  0.00    +0.096 A 
ENDBRANCH  19  20
ENDBRANCH  18  19
ENDBRANCH  17  18
TORSDOF 7
ENDMDL
MODEL 6
REMARK VINA RESULT:      -6.3     14.352     16.585
REMARK  Name = 
REMARK  7 active torsions:
REMARK  status: ('A' for Active; 'I' for Inactive)
REMARK    1  A    between atoms: C_3  and  C_4
REMARK    2  A    between atoms: C_4  and  N_5
REMARK    3  A    between atoms: N_5  and  S_6
REMARK    4  A    between atoms: S_6  and  C_9
REMARK    5  A    between atoms: C_17  and  N_18
REMARK    6  A    between atoms: N_18  and  C_19
REMARK    7  A    between atoms: C_19  and  C_20
REMARK                            x       y       z     vdW  Elec       q    Type
REMARK                         _______ _______ _______ _____ _____    ______ ____
ROOT
ATOM      1  O   UNL     1      -6.278  -9.581  12.956  0.00  0.00    -0.219 OA
ATOM      2  C   UNL     1      -5.576  -9.949  13.183  0.00  0.00    +0.199 C 
ATOM      3  C   UNL     1      -5.384 -10.198  13.946  0.00  0.00    +0.166 C 
ATOM     15  O   UNL     1      -4.632 -10.535  13.922  0.00  0.00    -0.350 OA
ATOM     16  C   UNL     1      -4.358 -10.494  13.145  0.00  0.00    +0.162 C 
ATOM     17  C   UNL     1      -4.941 -10.132  12.688  0.00  0.00    +0.135 C 
ENDROOT
BRANCH   3   4
ATOM      4  C   UNL     1      -5.861 -10.123  14.615  0.00  0.00    +0.148 C 
BRANCH   4   5
ATOM      5  N   UNL     1      -5.523 -10.147  15.367  0.00  0.00    -0.075 NA
BRANCH   5   6
ATOM      6  S   UNL     1      -5.999 -10.055  16.036  0.00  0.00    +0.077 S 
ATOM      7  O   UNL     1      -6.359 -10.781  15.879  0.00  0.00    -0.152 OA
ATOM      8  O   UNL     1      -5.638  -9.330  16.193  0.00  0.00    -0.152 OA
BRANCH   6   9
ATOM      9  C   UNL     1      -6.473  -9.964  16.704  0.00  0.00    +0.124 A 
ATOM     10  C   UNL     1      -7.131  -9.467  16.678  0.00  0.00    +0.020 A 
ATOM     11  C   UNL     1      -7.606  -9.376  17.346  0.00  0.00    +0.001 A 
ATOM     12  C   UNL     1      -7.423  -9.782  18.041  0.00  0.00    +0.000 A 
ATOM     13  C   UNL     1      -6.765 -10.279  18.067  0.00  0.00    +0.001 A 
ATOM     14  C   UNL     1      -6.290 -10.370  17.398  0.00  0.00    +0.020 A 
ENDBRANCH   6   9
ENDBRANCH   5   6
ENDBRANCH   4   5
ENDBRANCH   3   4
BRANCH  17  18
ATOM     18  N   UNL     1      -4.899  -9.979  11.879  0.00  0.00    -0.209 NA
BRANCH  18  19
ATOM     19  C   UNL     1      -4.184 -10.078  11.478  0.00  0.00    +0.117 C 
BRANCH  19  20
ATOM     20  C   UNL     1      -4.136  -9.907  10.672  0.00  0.00    +0.014 A 
ATOM     21  C   UNL     1      -3.838  -9.180  10.422  0.00  0.00    +0.000 A 
ATOM     22  C   UNL     1      -3.790  -9.009   9.616  0.00  0.00    +0.020 A 
ATOM     23  C   UNL     1      -4.041  -9.565   9.061  0.00  0.00    +0.099 A 
ATOM     24  N   UNL     1      -4.339 -10.292   9.311  0.00  0.00    -0.243 NA
ATOM     25  C   UNL     1      -4.387 -10.463  10.117  0.00  0.00    +0.096 A 
ENDBRANCH  19  20
ENDBRANCH  18  19
ENDBRANCH  17  18
TORSDOF 7
ENDMDL
MODEL 7
REMARK VINA RESULT:      -6.1     17.791     18.783
REMARK  Name = 
REMARK  7 active torsions:
REMARK  status: ('A' for Active; 'I' for Inactive)
REMARK    1  A    between atoms: C_3  and  C_4
REMARK    2  A    between atoms: C_4  and  N_5
REMARK    3  A    between atoms: N_5  and  S_6
REMARK    4  A    between atoms: S_6  and  C_9
REMARK    5  A    between atoms: C_17  and  N_18
REMARK    6  A    between atoms: N_18  and  C_19
REMARK    7  A    between atoms: C_19  and  C_20
REMARK                            x       y       z     vdW  Elec       q    Type
REMARK                         _______ _______ _______ _____ _____    ______ ____
ROOT
ATOM      1  O   UNL     1      -6.259  -8.324  10.656  0.00  0.00    -0.219 OA
ATOM      2  C   UNL     1      -6.070  -8.576   9.893  0.00  0.00    +0.199 C 
ATOM      3  C   UNL     1      -5.399  -9.004   9.676  0.00  0.00    +0.166 C 
ATOM     15  O   UNL     1      -5.434  -9.136   8.863  0.00  0.00    -0.350 OA
ATOM     16  C   UNL     1      -6.126  -8.790   8.577  0.00  0.00    +0.162 C 
ATOM     17  C   UNL     1      -6.520  -8.444   9.213  0.00  0.00    +0.135 C 
ENDROOT
BRANCH   3   4
ATOM      4  C   UNL     1      -4.799  -9.255  10.183  0.00  0.00    +0.148 C 
BRANCH   4   5
ATOM      5  N   UNL     1      -4.103  -9.572   9.874  0.00  0.00    -0.075 NA
BRANCH   5   6
ATOM      6  S   UNL     1      -3.473  -9.752  10.376  0.00  0.00    +0.077 S 
ATOM      7  O   UNL     1      -3.108  -9.040  10.174  0.00  0.00    -0.152 OA
ATOM      8  O   UNL     1      -3.838 -10.465  10.578  0.00  0.00    -0.152 OA
BRANCH   6   9
ATOM      9  C   UNL     1      -2.844  -9.933  10.877  0.00  0.00    +0.124 A 
ATOM     10  C   UNL     1      -2.890 -10.585  11.380  0.00  0.00    +0.020 A 
ATOM     11  C   UNL     1      -2.260 -10.765  11.882  0.00  0.00    +0.001 A 
ATOM     12  C   UNL     1      -1.583 -10.293  11.880  0.00  0.00    +0.000 A 
ATOM     13  C   UNL     1      -1.537  -9.640  11.377  0.00  0.00    +0.001 A 
ATOM     14  C   UNL     1      -2.167  -9.460  10.876  0.00  0.00    +0.020 A 
ENDBRANCH   6   9
ENDBRANCH   5   6
ENDBRANCH   4   5
ENDBRANCH   3   4
BRANCH  17  18
ATOM     18  N   UNL     1      -7.236  -8.037   9.177  0.00  0.00    -0.209 NA
BRANCH  18  19
ATOM     19  C   UNL     1      -7.551  -7.821   8.446  0.00  0.00    +0.117 C 
BRANCH  19  20
ATOM     20  C   UNL     1      -8.191  -7.301   8.410  0.00  0.00    +0.014 A 
ATOM     21  C   UNL     1      -8.077  -6.523   8.160  0.00  0.00    +0.000 A 
ATOM     22  C   UNL     1      -8.718  -6.004   8.124  0.00  0.00    +0.020 A 
ATOM     23  C   UNL     1      -9.471  -6.263   8.338  0.00  0.00    +0.099 A 
ATOM     24  N   UNL     1      -9.585  -7.040   8.589  0.00  0.00    -0.243 NA
ATOM     25  C   UNL     1      -8.944  -7.560   8.625  0.00  0.00    +0.096 A 
ENDBRANCH  19  20
ENDBRANCH  18  19
ENDBRANCH  17  18
TORSDOF 7
ENDMDL
MODEL 8
REMARK VINA RESULT:      -6.0     17.689     18.709
REMARK  Name = 
REMARK  7 active torsions:
REMARK  status: ('A' for Active; 'I' for Inactive)
REMARK    1  A    between atoms: C_3  and  C_4
REMARK    2  A    between atoms: C_4  and  N_5
REMARK    3  A    between atoms: N_5  and  S_6
REMARK    4  A    between atoms: S_6  and  C_9
REMARK    5  A    between atoms: C_17  and  N_18
REMARK    6  A    between atoms: N_18  and  C_19
REMARK    7  A    between atoms: C_19  and  C_20
REMARK                            x       y       z     vdW  Elec       q    Type
REMARK                         _______ _______ _______ _____ _____    ______ ____
ROOT
ATOM      1  O   UNL     1      -5.465  -8.058  10.805  0.00  0.00    -0.219 OA
ATOM      2  C   UNL     1      -5.328  -8.468  10.103  0.00  0.00    +0.199 C 
ATOM      3  C   UNL     1      -5.789  -8.429   9.420  0.00  0.00    +0.166 C 
ATOM     15  O   UNL     1      -5.451  -8.925   8.855  0.00  0.00    -0.350 OA
ATOM     16  C   UNL     1      -4.781  -9.271   9.188  0.00  0.00    +0.162 C 
ATOM     17  C   UNL     1      -4.704  -8.989   9.959  0.00  0.00    +0.135 C 
ENDROOT
BRANCH   3   4
ATOM      4  C   UNL     1      -6.470  -7.973   9.320  0.00  0.00    +0.148 C 
BRANCH   4   5
ATOM      5  N   UNL     1      -6.998  -8.147   8.711  0.00  0.00    -0.075 NA
BRANCH   5   6
ATOM      6  S   UNL     1      -7.708  -7.731   8.648  0.00  0.00    +0.077 S 
ATOM      7  O   UNL     1      -8.128  -8.429   8.778  0.00  0.00    -0.152 OA
ATOM      8  O   UNL     1      -7.287  -7.033   8.519  0.00  0.00    -0.152 OA
BRANCH   6   9
ATOM      9  C   UNL     1      -8.417  -7.315   8.585  0.00  0.00    +0.124 A 
ATOM     10  C   UNL     1      -8.438  -6.591   8.191  0.00  0.00    +0.020 A 
ATOM     11  C   UNL     1      -9.147  -6.175   8.128  0.00  0.00    +0.001 A 
ATOM     12  C   UNL     1      -9.837  -6.483   8.460  0.00  0.00    +0.000 A 
ATOM     13  C   UNL     1      -9.816  -7.208   8.854  0.00  0.00    +0.001 A 
ATOM     14  C   UNL     1      -9.106  -7.623   8.917  0.00  0.00    +0.020 A 
ENDBRANCH   6   9
ENDBRANCH   5   6
ENDBRANCH   4   5
ENDBRANCH   3   4
BRANCH  17  18
ATOM     18  N   UNL     1      -4.109  -9.191  10.493  0.00  0.00    -0.209 NA
BRANCH  18  19
ATOM     19  C   UNL     1      -3.489  -9.680  10.253  0.00  0.00    +0.117 C 
BRANCH  19  20
ATOM     20  C   UNL     1      -2.889  -9.877  10.785  0.00  0.00    +0.014 A 
ATOM     21  C   UNL     1      -2.978 -10.528  11.283  0.00  0.00    +0.000 A 
ATOM     22  C   UNL     1      -2.378 -10.725  11.815  0.00  0.00    +0.020 A 
ATOM     23  C   UNL     1      -1.691 -10.270  11.849  0.00  0.00    +0.099 A 
ATOM     24  N   UNL     1      -1.603  -9.619  11.351  0.00  0.00    -0.243 NA
ATOM     25  C   UNL     1      -2.202  -9.421  10.819  0.00  0.00    +0.096 A 
ENDBRANCH  19  20
ENDBRANCH  18  19
ENDBRANCH  17  18
TORSDOF 7
ENDMDL
MODEL 9
REMARK VINA RESULT:      -5.9     14.747     16.507
REMARK  Name = 
REMARK  7 active torsions:
REMARK  status: ('A' for Active; 'I' for Inactive)
REMARK    1  A    between atoms: C_3  and  C_4
REMARK    2  A    between atoms: C_4  and  N_5
REMARK    3  A    between atoms: N_5  and  S_6
REMARK    4  A    between atoms: S_6  and  C_9
REMARK    5  A    between atoms: C_17  and  N_18
REMARK    6  A    between atoms: N_18  and  C_19
REMARK    7  A    between atoms: C_19  and  C_20
REMARK                            x       y       z     vdW  Elec       q    Type
REMARK                         _______ _______ _______ _____ _____    ______ ____
ROOT
ATOM      1  O   UNL     1      -4.294 -10.509  14.209  0.00  0.00    -0.219 OA
ATOM      2  C   UNL     1      -5.085 -10.288  14.134  0.00  0.00    +0.199 C 
ATOM      3  C   UNL     1      -5.456 -10.041  13.440  0.00  0.00    +0.166 C 
ATOM     15  O   UNL     1      -6.244  -9.876  13.617  0.00  0.00    -0.350 OA
ATOM     16  C   UNL     1      -6.361 -10.022  14.420  0.00  0.00    +0.162 C 
ATOM     17  C   UNL     1      -5.645 -10.277  14.740  0.00  0.00    +0.135 C 
ENDROOT
BRANCH   3   4
ATOM      4  C   UNL     1      -5.100  -9.971  12.698  0.00  0.00    +0.148 C 
BRANCH   4   5
ATOM      5  N   UNL     1      -5.523  -9.650  12.067  0.00  0.00    -0.075 NA
BRANCH   5   6
ATOM      6  S   UNL     1      -5.137  -9.475  11.358  0.00  0.00    +0.077 S 
ATOM      7  O   UNL     1      -5.061 -10.282  11.200  0.00  0.00    -0.152 OA
ATOM      8  O   UNL     1      -5.212  -8.669  11.516  0.00  0.00    -0.152 OA
BRANCH   6   9
ATOM      9  C   UNL     1      -4.751  -9.301  10.651  0.00  0.00    +0.124 A 
ATOM     10  C   UNL     1      -5.164  -8.941  10.033  0.00  0.00    +0.020 A 
ATOM     11  C   UNL     1      -4.778  -8.767   9.326  0.00  0.00    +0.001 A 
ATOM     12  C   UNL     1      -3.979  -8.952   9.234  0.00  0.00    +0.000 A 
ATOM     13  C   UNL     1      -3.566  -9.312   9.852  0.00  0.00    +0.001 A 
ATOM     14  C   UNL     1      -3.952  -9.486  10.560  0.00  0.00    +0.020 A 
ENDBRANCH   6   9
ENDBRANCH   5   6
ENDBRANCH   4   5
ENDBRANCH   3   4
BRANCH  17  18
ATOM     18  N   UNL     1      -5.512 -10.483  15.527  0.00  0.00    -0.209 NA
BRANCH  18  19
ATOM     19  C   UNL     1      -5.830 -10.023  16.133  0.00  0.00    +0.117 C 
BRANCH  19  20
ATOM     20  C   UNL     1      -5.771 -10.276  16.917  0.00  0.00    +0.014 A 
ATOM     21  C   UNL     1      -5.032 -10.323  17.281  0.00  0.00    +0.000 A 
ATOM     22  C   UNL     1      -4.973 -10.576  18.064  0.00  0.00    +0.020 A 
ATOM     23  C   UNL     1      -5.654 -10.780  18.483  0.00  0.00    +0.099 A 
ATOM     24  N   UNL     1      -6.392 -10.733  18.120  0.00  0.00    -0.243 NA
ATOM     25  C   UNL     1      -6.451 -10.480  17.336  0.00  0.00    +0.096 A 
ENDBRANCH  19  20
ENDBRANCH  18  19
ENDBRANCH  17  18
TORSDOF 7
ENDMDL
