REMARK  Name = 
REMARK  7 active torsions:
REMARK  status: ('A' for Active; 'I' for Inactive)
REMARK    1  A    between atoms: O_2  and  C_3
REMARK    2  A    between atoms: C_8  and  N_9
REMARK    3  A    between atoms: C_15  and  C_17
REMARK    4  A    between atoms: C_17  and  C_18
REMARK    5  A    between atoms: C_20  and  C_21
REMARK    6  A    between atoms: C_21  and  N_22
REMARK    7  A    between atoms: N_22  and  S_23
REMARK                            x       y       z     vdW  Elec       q    Type
REMARK                         _______ _______ _______ _____ _____    ______ ____
ROOT
ATOM      9  N   UNL     1      -0.715   8.416   0.000  0.00  0.00    -0.302 N 
ATOM     10  C   UNL     1       0.000   8.004   0.000  0.00  0.00    +0.112 C 
ATOM     11  C   UNL     1       0.000   7.179   0.000  0.00  0.00    +0.115 C 
ATOM     12  N   UNL     1      -0.715   6.766   0.000  0.00  0.00    -0.276 N 
ATOM     13  C   UNL     1      -1.429   7.179   0.000  0.00  0.00    +0.115 C 
ATOM     14  C   UNL     1      -1.429   8.004   0.000  0.00  0.00    +0.112 C 
ATOM     15  C   UNL     1      -0.715   5.941   0.000  0.00  0.00    +0.228 C 
ATOM     16  O   UNL     1      -1.429   5.529   0.000  0.00  0.00    -0.275 OA
ENDROOT
BRANCH   9   8
ATOM      3  C   UNL     1      -1.429   9.654   0.000  0.00  0.00    +0.152 A 
ATOM      4  C   UNL     1      -1.429  10.479   0.000  0.00  0.00    +0.038 A 
ATOM      5  C   UNL     1      -0.715  10.891   0.000  0.00  0.00    +0.003 A 
ATOM      6  C   UNL     1       0.000  10.479   0.000  0.00  0.00    +0.001 A 
ATOM      7  C   UNL     1       0.000   9.654   0.000  0.00  0.00    +0.018 A 
ATOM      8  C   UNL     1      -0.715   9.241   0.000  0.00  0.00    +0.082 A 
BRANCH   3   2
ATOM      1  C   UNL     1      -2.858   9.654   0.000  0.00  0.00    +0.253 C 
ATOM      2  O   UNL     1      -2.143   9.241   0.000  0.00  0.00    -0.470 OA
ENDBRANCH   3   2
ENDBRANCH   9   8
BRANCH  15  17
ATOM     17  C   UNL     1       0.000   5.529   0.000  0.00  0.00    +0.117 C 
BRANCH  17  18
ATOM     18  C   UNL     1       0.000   4.704   0.000  0.00  0.00    +0.157 C 
ATOM     19  O   UNL     1       0.667   4.219   0.000  0.00  0.00    -0.351 OA
ATOM     20  C   UNL     1       0.412   3.434   0.000  0.00  0.00    +0.167 C 
ATOM     27  C   UNL     1      -0.412   3.434   0.000  0.00  0.00    +0.213 C 
ATOM     28  O   UNL     1      -0.897   2.767   0.000  0.00  0.00    -0.218 OA
ATOM     29  C   UNL     1      -0.667   4.219   0.000  0.00  0.00    +0.212 C 
ATOM     30  O   UNL     1      -1.452   4.474   0.000  0.00  0.00    -0.218 OA
BRANCH  20  21
ATOM     21  C   UNL     1       0.897   2.767   0.000  0.00  0.00    +0.147 C 
BRANCH  21  22
ATOM     22  N   UNL     1       0.562   2.013   0.000  0.00  0.00    -0.079 NA
BRANCH  22  23
ATOM     23  S   UNL     1       1.047   1.345   0.000  0.00  0.00    +0.059 S 
ATOM     24  C   UNL     1       1.532   0.678   0.000  0.00  0.00    +0.197 C 
ATOM     25  O   UNL     1       0.379   0.861   0.000  0.00  0.00    -0.156 OA
ATOM     26  O   UNL     1       1.714   1.830   0.000  0.00  0.00    -0.156 OA
ENDBRANCH  22  23
ENDBRANCH  21  22
ENDBRANCH  20  21
ENDBRANCH  17  18
ENDBRANCH  15  17
TORSDOF 7
