MODEL 1
REMARK VINA RESULT:     -12.5      0.000      0.000
REMARK  Name = 
REMARK  7 active torsions:
REMARK  status: ('A' for Active; 'I' for Inactive)
REMARK    1  A    between atoms: O_2  and  C_3
REMARK    2  A    between atoms: C_6  and  C_9
REMARK    3  A    between atoms: N_11  and  C_12
REMARK    4  A    between atoms: C_12  and  C_13
REMARK    5  A    between atoms: C_15  and  C_16
REMARK    6  A    between atoms: C_16  and  C_17
REMARK    7  A    between atoms: C_20  and  C_22
REMARK                            x       y       z     vdW  Elec       q    Type
REMARK                         _______ _______ _______ _____ _____    ______ ____
ROOT
ATOM     13  C   UNL     1      -1.883  -0.447  24.573  0.00  0.00    +0.167 C 
ATOM     14  O   UNL     1      -1.488   0.240  24.343  0.00  0.00    -0.354 OA
ATOM     15  C   UNL     1      -0.665   0.272  24.369  0.00  0.00    +0.121 C 
ATOM     28  C   UNL     1      -0.235  -0.384  24.626  0.00  0.00    +0.033 C 
ATOM     29  C   UNL     1      -0.629  -1.072  24.856  0.00  0.00    +0.038 C 
ATOM     30  C   UNL     1      -1.453  -1.103  24.829  0.00  0.00    +0.181 C 
ATOM     31  O   UNL     1      -1.847  -1.790  25.059  0.00  0.00    -0.220 OA
ENDROOT
BRANCH  13  12
ATOM     12  C   UNL     1      -2.706  -0.478  24.546  0.00  0.00    +0.147 C 
BRANCH  12  11
ATOM      9  C   UNL     1      -3.955   0.216  24.522  0.00  0.00    +0.265 C 
ATOM     10  O   UNL     1      -4.317  -0.447  24.186  0.00  0.00    -0.268 OA
ATOM     11  N   UNL     1      -3.151   0.199  24.702  0.00  0.00    -0.199 NA
BRANCH   9   6
ATOM      3  C   UNL     1      -5.289   2.249  24.988  0.00  0.00    +0.139 A 
ATOM      4  C   UNL     1      -5.366   1.585  25.472  0.00  0.00    +0.037 A 
ATOM      5  C   UNL     1      -4.921   0.908  25.317  0.00  0.00    +0.008 A 
ATOM      6  C   UNL     1      -4.400   0.893  24.678  0.00  0.00    +0.055 A 
ATOM      7  C   UNL     1      -4.323   1.557  24.194  0.00  0.00    +0.008 A 
ATOM      8  C   UNL     1      -4.767   2.235  24.348  0.00  0.00    +0.037 A 
BRANCH   3   2
ATOM      1  C   UNL     1      -5.484   3.460  25.720  0.00  0.00    +0.252 C 
ATOM      2  O   UNL     1      -5.732   2.926  25.143  0.00  0.00    -0.471 OA
ENDBRANCH   3   2
ENDBRANCH   9   6
ENDBRANCH  12  11
ENDBRANCH  13  12
BRANCH  15  16
ATOM     16  C   UNL     1      -0.270   0.958  24.140  0.00  0.00    +0.079 C 
BRANCH  16  17
ATOM     17  C   UNL     1      -0.310   1.634  24.612  0.00  0.00    +0.103 A 
ATOM     18  N   UNL     1       0.088   1.751  25.325  0.00  0.00    -0.081 NA
ATOM     19  O   UNL     1      -0.110   2.501  25.607  0.00  0.00    -0.354 OA
ATOM     20  C   UNL     1      -0.630   2.847  25.069  0.00  0.00    +0.177 A 
ATOM     21  C   UNL     1      -0.754   2.311  24.453  0.00  0.00    +0.058 A 
BRANCH  20  22
ATOM     22  C   UNL     1      -0.968   3.597  25.134  0.00  0.00    +0.037 A 
ATOM     23  C   UNL     1      -1.683   3.694  25.534  0.00  0.00    +0.003 A 
ATOM     24  C   UNL     1      -2.020   4.444  25.600  0.00  0.00    +0.000 A 
ATOM     25  C   UNL     1      -1.642   5.097  25.265  0.00  0.00    +0.000 A 
ATOM     26  C   UNL     1      -0.928   4.999  24.865  0.00  0.00    +0.000 A 
ATOM     27  C   UNL     1      -0.590   4.249  24.800  0.00  0.00    +0.003 A 
ENDBRANCH  20  22
ENDBRANCH  16  17
ENDBRANCH  15  16
TORSDOF 7
ENDMDL
MODEL 2
REMARK VINA RESULT:     -12.4      0.980      3.810
REMARK  Name = 
REMARK  7 active torsions:
REMARK  status: ('A' for Active; 'I' for Inactive)
REMARK    1  A    between atoms: O_2  and  C_3
REMARK    2  A    between atoms: C_6  and  C_9
REMARK    3  A    between atoms: N_11  and  C_12
REMARK    4  A    between atoms: C_12  and  C_13
REMARK    5  A    between atoms: C_15  and  C_16
REMARK    6  A    between atoms: C_16  and  C_17
REMARK    7  A    between atoms: C_20  and  C_22
REMARK                            x       y       z     vdW  Elec       q    Type
REMARK                         _______ _______ _______ _____ _____    ______ ____
ROOT
ATOM     13  C   UNL     1      -1.094  -0.424  24.917  0.00  0.00    +0.167 C 
ATOM     14  O   UNL     1      -1.861  -0.404  25.222  0.00  0.00    -0.354 OA
ATOM     15  C   UNL     1      -2.344  -1.070  25.168  0.00  0.00    +0.121 C 
ATOM     28  C   UNL     1      -2.062  -1.757  24.809  0.00  0.00    +0.033 C 
ATOM     29  C   UNL     1      -1.296  -1.778  24.503  0.00  0.00    +0.038 C 
ATOM     30  C   UNL     1      -0.812  -1.111  24.558  0.00  0.00    +0.181 C 
ATOM     31  O   UNL     1      -0.046  -1.132  24.252  0.00  0.00    -0.220 OA
ENDROOT
BRANCH  13  12
ATOM     12  C   UNL     1      -0.611   0.241  24.971  0.00  0.00    +0.147 C 
BRANCH  12  11
ATOM      9  C   UNL     1      -0.463   1.654  25.127  0.00  0.00    +0.265 C 
ATOM     10  O   UNL     1       0.358   1.567  25.137  0.00  0.00    -0.268 OA
ATOM     11  N   UNL     1      -0.947   0.991  25.044  0.00  0.00    -0.199 NA
BRANCH   9   6
ATOM      3  C   UNL     1      -1.471   3.904  25.345  0.00  0.00    +0.139 A 
ATOM      4  C   UNL     1      -1.404   3.417  26.007  0.00  0.00    +0.037 A 
ATOM      5  C   UNL     1      -1.068   2.666  25.934  0.00  0.00    +0.008 A 
ATOM      6  C   UNL     1      -0.799   2.404  25.200  0.00  0.00    +0.055 A 
ATOM      7  C   UNL     1      -0.866   2.892  24.538  0.00  0.00    +0.008 A 
ATOM      8  C   UNL     1      -1.201   3.642  24.610  0.00  0.00    +0.037 A 
BRANCH   3   2
ATOM      1  C   UNL     1      -1.435   5.307  25.077  0.00  0.00    +0.252 C 
ATOM      2  O   UNL     1      -1.807   4.654  25.417  0.00  0.00    -0.471 OA
ENDBRANCH   3   2
ENDBRANCH   9   6
ENDBRANCH  12  11
ENDBRANCH  13  12
BRANCH  15  16
ATOM     16  C   UNL     1      -3.110  -1.049  25.473  0.00  0.00    +0.079 C 
BRANCH  16  17
ATOM     17  C   UNL     1      -3.674  -0.547  25.139  0.00  0.00    +0.103 A 
ATOM     18  N   UNL     1      -4.141  -0.713  24.481  0.00  0.00    -0.081 NA
ATOM     19  O   UNL     1      -4.625  -0.059  24.341  0.00  0.00    -0.354 OA
ATOM     20  C   UNL     1      -4.455   0.511  24.913  0.00  0.00    +0.177 A 
ATOM     21  C   UNL     1      -3.867   0.209  25.407  0.00  0.00    +0.058 A 
BRANCH  20  22
ATOM     22  C   UNL     1      -4.812   1.253  24.979  0.00  0.00    +0.037 A 
ATOM     23  C   UNL     1      -5.465   1.353  25.472  0.00  0.00    +0.003 A 
ATOM     24  C   UNL     1      -5.821   2.095  25.538  0.00  0.00    +0.000 A 
ATOM     25  C   UNL     1      -5.523   2.735  25.110  0.00  0.00    +0.000 A 
ATOM     26  C   UNL     1      -4.871   2.633  24.617  0.00  0.00    +0.000 A 
ATOM     27  C   UNL     1      -4.514   1.892  24.551  0.00  0.00    +0.003 A 
ENDBRANCH  20  22
ENDBRANCH  16  17
ENDBRANCH  15  16
TORSDOF 7
ENDMDL
MODEL 3
REMARK VINA RESULT:     -12.3      1.401      3.882
REMARK  Name = 
REMARK  7 active torsions:
REMARK  status: ('A' for Active; 'I' for Inactive)
REMARK    1  A    between atoms: O_2  and  C_3
REMARK    2  A    between atoms: C_6  and  C_9
REMARK    3  A    between atoms: N_11  and  C_12
REMARK    4  A    between atoms: C_12  and  C_13
REMARK    5  A    between atoms: C_15  and  C_16
REMARK    6  A    between atoms: C_16  and  C_17
REMARK    7  A    between atoms: C_20  and  C_22
REMARK                            x       y       z     vdW  Elec       q    Type
REMARK                         _______ _______ _______ _____ _____    ______ ____
ROOT
ATOM     13  C   UNL     1      -0.711   1.759  25.236  0.00  0.00    +0.167 C 
ATOM     14  O   UNL     1      -1.321   2.238  25.519  0.00  0.00    -0.354 OA
ATOM     15  C   UNL     1      -1.336   3.040  25.332  0.00  0.00    +0.121 C 
ATOM     28  C   UNL     1      -0.742   3.366  24.862  0.00  0.00    +0.033 C 
ATOM     29  C   UNL     1      -0.132   2.889  24.579  0.00  0.00    +0.038 C 
ATOM     30  C   UNL     1      -0.116   2.085  24.766  0.00  0.00    +0.181 C 
ATOM     31  O   UNL     1       0.494   1.608  24.483  0.00  0.00    -0.220 OA
ENDROOT
BRANCH  13  12
ATOM     12  C   UNL     1      -0.695   0.956  25.423  0.00  0.00    +0.147 C 
BRANCH  12  11
ATOM      9  C   UNL     1      -1.420  -0.268  25.554  0.00  0.00    +0.265 C 
ATOM     10  O   UNL     1      -0.896  -0.515  26.143  0.00  0.00    -0.268 OA
ATOM     11  N   UNL     1      -1.319   0.467  25.195  0.00  0.00    -0.199 NA
BRANCH   9   6
ATOM      3  C   UNL     1      -3.290  -1.737  24.868  0.00  0.00    +0.139 A 
ATOM      4  C   UNL     1      -3.385  -1.217  25.502  0.00  0.00    +0.037 A 
ATOM      5  C   UNL     1      -2.762  -0.728  25.730  0.00  0.00    +0.008 A 
ATOM      6  C   UNL     1      -2.044  -0.758  25.326  0.00  0.00    +0.055 A 
ATOM      7  C   UNL     1      -1.949  -1.278  24.692  0.00  0.00    +0.008 A 
ATOM      8  C   UNL     1      -2.572  -1.768  24.463  0.00  0.00    +0.037 A 
BRANCH   3   2
ATOM      1  C   UNL     1      -4.298  -2.098  23.922  0.00  0.00    +0.252 C 
ATOM      2  O   UNL     1      -3.913  -2.227  24.639  0.00  0.00    -0.471 OA
ENDBRANCH   3   2
ENDBRANCH   9   6
ENDBRANCH  12  11
ENDBRANCH  13  12
BRANCH  15  16
ATOM     16  C   UNL     1      -1.946   3.518  25.615  0.00  0.00    +0.079 C 
BRANCH  16  17
ATOM     17  C   UNL     1      -2.703   3.455  25.292  0.00  0.00    +0.103 A 
ATOM     18  N   UNL     1      -2.985   3.868  24.636  0.00  0.00    -0.081 NA
ATOM     19  O   UNL     1      -3.767   3.637  24.507  0.00  0.00    -0.354 OA
ATOM     20  C   UNL     1      -3.967   3.081  25.083  0.00  0.00    +0.177 A 
ATOM     21  C   UNL     1      -3.309   2.969  25.568  0.00  0.00    +0.058 A 
BRANCH  20  22
ATOM     22  C   UNL     1      -4.697   2.704  25.160  0.00  0.00    +0.037 A 
ATOM     23  C   UNL     1      -5.238   2.965  25.725  0.00  0.00    +0.003 A 
ATOM     24  C   UNL     1      -5.968   2.587  25.802  0.00  0.00    +0.000 A 
ATOM     25  C   UNL     1      -6.156   1.949  25.313  0.00  0.00    +0.000 A 
ATOM     26  C   UNL     1      -5.615   1.689  24.749  0.00  0.00    +0.000 A 
ATOM     27  C   UNL     1      -4.885   2.067  24.672  0.00  0.00    +0.003 A 
ENDBRANCH  20  22
ENDBRANCH  16  17
ENDBRANCH  15  16
TORSDOF 7
ENDMDL
MODEL 4
REMARK VINA RESULT:     -12.2      1.459      5.367
REMARK  Name = 
REMARK  7 active torsions:
REMARK  status: ('A' for Active; 'I' for Inactive)
REMARK    1  A    between atoms: O_2  and  C_3
REMARK    2  A    between atoms: C_6  and  C_9
REMARK    3  A    between atoms: N_11  and  C_12
REMARK    4  A    between atoms: C_12  and  C_13
REMARK    5  A    between atoms: C_15  and  C_16
REMARK    6  A    between atoms: C_16  and  C_17
REMARK    7  A    between atoms: C_20  and  C_22
REMARK                            x       y       z     vdW  Elec       q    Type
REMARK                         _______ _______ _______ _____ _____    ______ ____
ROOT
ATOM     13  C   UNL     1      -2.737   3.166  25.335  0.00  0.00    +0.167 C 
ATOM     14  O   UNL     1      -3.218   2.631  24.932  0.00  0.00    -0.354 OA
ATOM     15  C   UNL     1      -4.033   2.753  24.896  0.00  0.00    +0.121 C 
ATOM     28  C   UNL     1      -4.367   3.412  25.264  0.00  0.00    +0.033 C 
ATOM     29  C   UNL     1      -3.887   3.948  25.667  0.00  0.00    +0.038 C 
ATOM     30  C   UNL     1      -3.072   3.825  25.703  0.00  0.00    +0.181 C 
ATOM     31  O   UNL     1      -2.592   4.361  26.106  0.00  0.00    -0.220 OA
ENDROOT
BRANCH  13  12
ATOM     12  C   UNL     1      -1.923   3.044  25.371  0.00  0.00    +0.147 C 
BRANCH  12  11
ATOM      9  C   UNL     1      -0.816   2.171  25.136  0.00  0.00    +0.265 C 
ATOM     10  O   UNL     1      -0.395   2.542  25.742  0.00  0.00    -0.268 OA
ATOM     11  N   UNL     1      -1.579   2.422  24.951  0.00  0.00    -0.199 NA
BRANCH   9   6
ATOM      3  C   UNL     1       0.213   0.303  23.879  0.00  0.00    +0.139 A 
ATOM      4  C   UNL     1       0.379   1.083  23.668  0.00  0.00    +0.037 A 
ATOM      5  C   UNL     1       0.036   1.706  24.088  0.00  0.00    +0.008 A 
ATOM      6  C   UNL     1      -0.473   1.548  24.717  0.00  0.00    +0.055 A 
ATOM      7  C   UNL     1      -0.639   0.768  24.928  0.00  0.00    +0.008 A 
ATOM      8  C   UNL     1      -0.296   0.145  24.510  0.00  0.00    +0.037 A 
BRANCH   3   2
ATOM      1  C   UNL     1       1.124  -0.166  22.884  0.00  0.00    +0.252 C 
ATOM      2  O   UNL     1       0.556  -0.320  23.461  0.00  0.00    -0.471 OA
ENDBRANCH   3   2
ENDBRANCH   9   6
ENDBRANCH  12  11
ENDBRANCH  13  12
BRANCH  15  16
ATOM     16  C   UNL     1      -4.513   2.218  24.493  0.00  0.00    +0.079 C 
BRANCH  16  17
ATOM     17  C   UNL     1      -4.578   1.439  24.761  0.00  0.00    +0.103 A 
ATOM     18  N   UNL     1      -5.048   1.180  25.387  0.00  0.00    -0.081 NA
ATOM     19  O   UNL     1      -4.945   0.365  25.462  0.00  0.00    -0.354 OA
ATOM     20  C   UNL     1      -4.411   0.121  24.883  0.00  0.00    +0.177 A 
ATOM     21  C   UNL     1      -4.184   0.785  24.449  0.00  0.00    +0.058 A 
BRANCH  20  22
ATOM     22  C   UNL     1      -4.150  -0.653  24.759  0.00  0.00    +0.037 A 
ATOM     23  C   UNL     1      -4.327  -1.039  24.053  0.00  0.00    +0.003 A 
ATOM     24  C   UNL     1      -4.066  -1.812  23.929  0.00  0.00    +0.000 A 
ATOM     25  C   UNL     1      -3.628  -2.198  24.513  0.00  0.00    +0.000 A 
ATOM     26  C   UNL     1      -3.451  -1.811  25.218  0.00  0.00    +0.000 A 
ATOM     27  C   UNL     1      -3.712  -1.037  25.342  0.00  0.00    +0.003 A 
ENDBRANCH  20  22
ENDBRANCH  16  17
ENDBRANCH  15  16
TORSDOF 7
ENDMDL
MODEL 5
REMARK VINA RESULT:     -12.2      1.316      3.880
REMARK  Name = 
REMARK  7 active torsions:
REMARK  status: ('A' for Active; 'I' for Inactive)
REMARK    1  A    between atoms: O_2  and  C_3
REMARK    2  A    between atoms: C_6  and  C_9
REMARK    3  A    between atoms: N_11  and  C_12
REMARK    4  A    between atoms: C_12  and  C_13
REMARK    5  A    between atoms: C_15  and  C_16
REMARK    6  A    between atoms: C_16  and  C_17
REMARK    7  A    between atoms: C_20  and  C_22
REMARK                            x       y       z     vdW  Elec       q    Type
REMARK                         _______ _______ _______ _____ _____    ______ ____
ROOT
ATOM     13  C   UNL     1      -5.043   1.953  25.133  0.00  0.00    +0.167 C 
ATOM     14  O   UNL     1      -4.443   2.478  24.918  0.00  0.00    -0.354 OA
ATOM     15  C   UNL     1      -4.520   3.282  25.079  0.00  0.00    +0.121 C 
ATOM     28  C   UNL     1      -5.198   3.564  25.456  0.00  0.00    +0.033 C 
ATOM     29  C   UNL     1      -5.798   3.041  25.672  0.00  0.00    +0.038 C 
ATOM     30  C   UNL     1      -5.720   2.235  25.510  0.00  0.00    +0.181 C 
ATOM     31  O   UNL     1      -6.321   1.712  25.726  0.00  0.00    -0.220 OA
ENDROOT
BRANCH  13  12
ATOM     12  C   UNL     1      -4.965   1.149  24.972  0.00  0.00    +0.147 C 
BRANCH  12  11
ATOM      9  C   UNL     1      -4.113   0.014  24.805  0.00  0.00    +0.265 C 
ATOM     10  O   UNL     1      -4.694  -0.355  24.348  0.00  0.00    -0.268 OA
ATOM     11  N   UNL     1      -4.249   0.765  25.116  0.00  0.00    -0.199 NA
BRANCH   9   6
ATOM      3  C   UNL     1      -1.964  -1.136  25.236  0.00  0.00    +0.139 A 
ATOM      4  C   UNL     1      -2.590  -1.220  25.767  0.00  0.00    +0.037 A 
ATOM      5  C   UNL     1      -3.307  -0.837  25.622  0.00  0.00    +0.008 A 
ATOM      6  C   UNL     1      -3.397  -0.369  24.949  0.00  0.00    +0.055 A 
ATOM      7  C   UNL     1      -2.770  -0.285  24.419  0.00  0.00    +0.008 A 
ATOM      8  C   UNL     1      -2.054  -0.668  24.562  0.00  0.00    +0.037 A 
BRANCH   3   2
ATOM      1  C   UNL     1      -0.559  -1.257  25.010  0.00  0.00    +0.252 C 
ATOM      2  O   UNL     1      -1.247  -1.519  25.379  0.00  0.00    -0.471 OA
ENDBRANCH   3   2
ENDBRANCH   9   6
ENDBRANCH  12  11
ENDBRANCH  13  12
BRANCH  15  16
ATOM     16  C   UNL     1      -3.921   3.806  24.864  0.00  0.00    +0.079 C 
BRANCH  16  17
ATOM     17  C   UNL     1      -3.181   3.758  25.228  0.00  0.00    +0.103 A 
ATOM     18  N   UNL     1      -2.942   4.177  25.896  0.00  0.00    -0.081 NA
ATOM     19  O   UNL     1      -2.164   3.961  26.067  0.00  0.00    -0.354 OA
ATOM     20  C   UNL     1      -1.923   3.408  25.505  0.00  0.00    +0.177 A 
ATOM     21  C   UNL     1      -2.552   3.282  24.985  0.00  0.00    +0.058 A 
BRANCH  20  22
ATOM     22  C   UNL     1      -1.183   3.044  25.468  0.00  0.00    +0.037 A 
ATOM     23  C   UNL     1      -0.761   3.039  24.760  0.00  0.00    +0.003 A 
ATOM     24  C   UNL     1      -0.021   2.675  24.724  0.00  0.00    +0.000 A 
ATOM     25  C   UNL     1       0.295   2.316  25.397  0.00  0.00    +0.000 A 
ATOM     26  C   UNL     1      -0.127   2.322  26.104  0.00  0.00    +0.000 A 
ATOM     27  C   UNL     1      -0.867   2.686  26.141  0.00  0.00    +0.003 A 
ENDBRANCH  20  22
ENDBRANCH  16  17
ENDBRANCH  15  16
TORSDOF 7
ENDMDL
MODEL 6
REMARK VINA RESULT:     -12.1      1.338      3.864
REMARK  Name = 
REMARK  7 active torsions:
REMARK  status: ('A' for Active; 'I' for Inactive)
REMARK    1  A    between atoms: O_2  and  C_3
REMARK    2  A    between atoms: C_6  and  C_9
REMARK    3  A    between atoms: N_11  and  C_12
REMARK    4  A    between atoms: C_12  and  C_13
REMARK    5  A    between atoms: C_15  and  C_16
REMARK    6  A    between atoms: C_16  and  C_17
REMARK    7  A    between atoms: C_20  and  C_22
REMARK                            x       y       z     vdW  Elec       q    Type
REMARK                         _______ _______ _______ _____ _____    ______ ____
ROOT
ATOM     13  C   UNL     1      -1.327   2.730  24.975  0.00  0.00    +0.167 C 
ATOM     14  O   UNL     1      -1.264   1.947  24.722  0.00  0.00    -0.354 OA
ATOM     15  C   UNL     1      -0.591   1.507  24.905  0.00  0.00    +0.121 C 
ATOM     28  C   UNL     1       0.021   1.850  25.340  0.00  0.00    +0.033 C 
ATOM     29  C   UNL     1      -0.041   2.632  25.593  0.00  0.00    +0.038 C 
ATOM     30  C   UNL     1      -0.715   3.073  25.410  0.00  0.00    +0.181 C 
ATOM     31  O   UNL     1      -0.777   3.855  25.664  0.00  0.00    -0.220 OA
ENDROOT
BRANCH  13  12
ATOM     12  C   UNL     1      -2.000   3.170  24.793  0.00  0.00    +0.147 C 
BRANCH  12  11
ATOM      9  C   UNL     1      -3.423   3.252  24.696  0.00  0.00    +0.265 C 
ATOM     10  O   UNL     1      -3.351   3.913  24.206  0.00  0.00    -0.268 OA
ATOM     11  N   UNL     1      -2.747   2.881  24.988  0.00  0.00    -0.199 NA
BRANCH   9   6
ATOM      3  C   UNL     1      -5.666   2.387  25.283  0.00  0.00    +0.139 A 
ATOM      4  C   UNL     1      -5.275   2.100  24.615  0.00  0.00    +0.037 A 
ATOM      5  C   UNL     1      -4.528   2.388  24.420  0.00  0.00    +0.008 A 
ATOM      6  C   UNL     1      -4.171   2.963  24.891  0.00  0.00    +0.055 A 
ATOM      7  C   UNL     1      -4.562   3.250  25.558  0.00  0.00    +0.008 A 
ATOM      8  C   UNL     1      -5.309   2.962  25.755  0.00  0.00    +0.037 A 
BRANCH   3   2
ATOM      1  C   UNL     1      -6.527   1.695  26.188  0.00  0.00    +0.252 C 
ATOM      2  O   UNL     1      -6.414   2.099  25.479  0.00  0.00    -0.471 OA
ENDBRANCH   3   2
ENDBRANCH   9   6
ENDBRANCH  12  11
ENDBRANCH  13  12
BRANCH  15  16
ATOM     16  C   UNL     1      -0.528   0.725  24.652  0.00  0.00    +0.079 C 
BRANCH  16  17
ATOM     17  C   UNL     1      -1.050   0.154  24.942  0.00  0.00    +0.103 A 
ATOM     18  N   UNL     1      -1.086  -0.119  25.719  0.00  0.00    -0.081 NA
ATOM     19  O   UNL     1      -1.685  -0.684  25.763  0.00  0.00    -0.354 OA
ATOM     20  C   UNL     1      -2.020  -0.760  25.012  0.00  0.00    +0.177 A 
ATOM     21  C   UNL     1      -1.627  -0.241  24.504  0.00  0.00    +0.058 A 
BRANCH  20  22
ATOM     22  C   UNL     1      -2.638  -1.266  24.806  0.00  0.00    +0.037 A 
ATOM     23  C   UNL     1      -2.496  -2.072  24.708  0.00  0.00    +0.003 A 
ATOM     24  C   UNL     1      -3.115  -2.578  24.502  0.00  0.00    +0.000 A 
ATOM     25  C   UNL     1      -3.876  -2.276  24.393  0.00  0.00    +0.000 A 
ATOM     26  C   UNL     1      -4.017  -1.470  24.490  0.00  0.00    +0.000 A 
ATOM     27  C   UNL     1      -3.398  -0.964  24.697  0.00  0.00    +0.003 A 
ENDBRANCH  20  22
ENDBRANCH  16  17
ENDBRANCH  15  16
TORSDOF 7
ENDMDL
MODEL 7
REMARK VINA RESULT:     -11.9      1.336      2.354
REMARK  Name = 
REMARK  7 active torsions:
REMARK  status: ('A' for Active; 'I' for Inactive)
REMARK    1  A    between atoms: O_2  and  C_3
REMARK    2  A    between atoms: C_6  and  C_9
REMARK    3  A    between atoms: N_11  and  C_12
REMARK    4  A    between atoms: C_12  and  C_13
REMARK    5  A    between atoms: C_15  and  C_16
REMARK    6  A    between atoms: C_16  and  C_17
REMARK    7  A    between atoms: C_20  and  C_22
REMARK                            x       y       z     vdW  Elec       q    Type
REMARK                         _______ _______ _______ _____ _____    ______ ____
ROOT
ATOM     13  C   UNL     1      -3.746  -0.971  24.628  0.00  0.00    +0.167 C 
ATOM     14  O   UNL     1      -3.025  -0.844  25.009  0.00  0.00    -0.354 OA
ATOM     15  C   UNL     1      -2.469  -1.451  25.054  0.00  0.00    +0.121 C 
ATOM     28  C   UNL     1      -2.633  -2.186  24.718  0.00  0.00    +0.033 C 
ATOM     29  C   UNL     1      -3.352  -2.314  24.336  0.00  0.00    +0.038 C 
ATOM     30  C   UNL     1      -3.909  -1.707  24.291  0.00  0.00    +0.181 C 
ATOM     31  O   UNL     1      -4.629  -1.835  23.909  0.00  0.00    -0.220 OA
ENDROOT
BRANCH  13  12
ATOM     12  C   UNL     1      -4.302  -0.365  24.582  0.00  0.00    +0.147 C 
BRANCH  12  11
ATOM      9  C   UNL     1      -4.600   1.032  24.630  0.00  0.00    +0.265 C 
ATOM     10  O   UNL     1      -5.396   0.858  24.765  0.00  0.00    -0.268 OA
ATOM     11  N   UNL     1      -4.054   0.421  24.538  0.00  0.00    -0.199 NA
BRANCH   9   6
ATOM      3  C   UNL     1      -3.856   3.390  24.499  0.00  0.00    +0.139 A 
ATOM      4  C   UNL     1      -3.819   2.908  23.830  0.00  0.00    +0.037 A 
ATOM      5  C   UNL     1      -4.067   2.122  23.874  0.00  0.00    +0.008 A 
ATOM      6  C   UNL     1      -4.352   1.818  24.586  0.00  0.00    +0.055 A 
ATOM      7  C   UNL     1      -4.388   2.300  25.254  0.00  0.00    +0.008 A 
ATOM      8  C   UNL     1      -4.141   3.085  25.212  0.00  0.00    +0.037 A 
BRANCH   3   2
ATOM      1  C   UNL     1      -3.121   4.487  25.043  0.00  0.00    +0.252 C 
ATOM      2  O   UNL     1      -3.608   4.175  24.456  0.00  0.00    -0.471 OA
ENDBRANCH   3   2
ENDBRANCH   9   6
ENDBRANCH  12  11
ENDBRANCH  13  12
BRANCH  15  16
ATOM     16  C   UNL     1      -1.749  -1.323  25.436  0.00  0.00    +0.079 C 
BRANCH  16  17
ATOM     17  C   UNL     1      -1.250  -0.716  25.182  0.00  0.00    +0.103 A 
ATOM     18  N   UNL     1      -0.669  -0.778  24.601  0.00  0.00    -0.081 NA
ATOM     19  O   UNL     1      -0.304  -0.042  24.525  0.00  0.00    -0.354 OA
ATOM     20  C   UNL     1      -0.661   0.475  25.060  0.00  0.00    +0.177 A 
ATOM     21  C   UNL     1      -1.246   0.058  25.467  0.00  0.00    +0.058 A 
BRANCH  20  22
ATOM     22  C   UNL     1      -0.466   1.270  25.170  0.00  0.00    +0.037 A 
ATOM     23  C   UNL     1      -0.480   1.597  25.927  0.00  0.00    +0.003 A 
ATOM     24  C   UNL     1      -0.285   2.392  26.036  0.00  0.00    +0.000 A 
ATOM     25  C   UNL     1      -0.078   2.858  25.387  0.00  0.00    +0.000 A 
ATOM     26  C   UNL     1      -0.064   2.531  24.631  0.00  0.00    +0.000 A 
ATOM     27  C   UNL     1      -0.259   1.736  24.522  0.00  0.00    +0.003 A 
ENDBRANCH  20  22
ENDBRANCH  16  17
ENDBRANCH  15  16
TORSDOF 7
ENDMDL
MODEL 8
REMARK VINA RESULT:     -11.8      1.239      3.798
REMARK  Name = 
REMARK  7 active torsions:
REMARK  status: ('A' for Active; 'I' for Inactive)
REMARK    1  A    between atoms: O_2  and  C_3
REMARK    2  A    between atoms: C_6  and  C_9
REMARK    3  A    between atoms: N_11  and  C_12
REMARK    4  A    between atoms: C_12  and  C_13
REMARK    5  A    between atoms: C_15  and  C_16
REMARK    6  A    between atoms: C_16  and  C_17
REMARK    7  A    between atoms: C_20  and  C_22
REMARK                            x       y       z     vdW  Elec       q    Type
REMARK                         _______ _______ _______ _____ _____    ______ ____
ROOT
ATOM     13  C   UNL     1      -3.469   2.979  25.251  0.00  0.00    +0.167 C 
ATOM     14  O   UNL     1      -2.732   2.912  24.885  0.00  0.00    -0.354 OA
ATOM     15  C   UNL     1      -2.142   3.466  25.040  0.00  0.00    +0.121 C 
ATOM     28  C   UNL     1      -2.287   4.088  25.562  0.00  0.00    +0.033 C 
ATOM     29  C   UNL     1      -3.022   4.156  25.929  0.00  0.00    +0.038 C 
ATOM     30  C   UNL     1      -3.614   3.601  25.773  0.00  0.00    +0.181 C 
ATOM     31  O   UNL     1      -4.350   3.670  26.140  0.00  0.00    -0.220 OA
ENDROOT
BRANCH  13  12
ATOM     12  C   UNL     1      -4.059   2.426  25.096  0.00  0.00    +0.147 C 
BRANCH  12  11
ATOM      9  C   UNL     1      -4.451   1.081  24.811  0.00  0.00    +0.265 C 
ATOM     10  O   UNL     1      -5.236   1.327  24.731  0.00  0.00    -0.268 OA
ATOM     11  N   UNL     1      -3.864   1.631  24.993  0.00  0.00    -0.199 NA
BRANCH   9   6
ATOM      3  C   UNL     1      -3.865  -1.304  24.502  0.00  0.00    +0.139 A 
ATOM      4  C   UNL     1      -3.932  -0.991  25.262  0.00  0.00    +0.037 A 
ATOM      5  C   UNL     1      -4.127  -0.196  25.365  0.00  0.00    +0.008 A 
ATOM      6  C   UNL     1      -4.256   0.286  24.708  0.00  0.00    +0.055 A 
ATOM      7  C   UNL     1      -4.189  -0.027  23.948  0.00  0.00    +0.008 A 
ATOM      8  C   UNL     1      -3.994  -0.821  23.844  0.00  0.00    +0.037 A 
BRANCH   3   2
ATOM      1  C   UNL     1      -3.416  -2.548  25.040  0.00  0.00    +0.252 C 
ATOM      2  O   UNL     1      -3.670  -2.098  24.398  0.00  0.00    -0.471 OA
ENDBRANCH   3   2
ENDBRANCH   9   6
ENDBRANCH  12  11
ENDBRANCH  13  12
BRANCH  15  16
ATOM     16  C   UNL     1      -1.406   3.398  24.674  0.00  0.00    +0.079 C 
BRANCH  16  17
ATOM     17  C   UNL     1      -0.944   2.725  24.798  0.00  0.00    +0.103 A 
ATOM     18  N   UNL     1      -0.408   2.612  25.415  0.00  0.00    -0.081 NA
ATOM     19  O   UNL     1      -0.070   1.865  25.325  0.00  0.00    -0.354 OA
ATOM     20  C   UNL     1      -0.397   1.516  24.653  0.00  0.00    +0.177 A 
ATOM     21  C   UNL     1      -0.938   2.048  24.327  0.00  0.00    +0.058 A 
BRANCH  20  22
ATOM     22  C   UNL     1      -0.215   0.767  24.358  0.00  0.00    +0.037 A 
ATOM     23  C   UNL     1       0.223   0.692  23.663  0.00  0.00    +0.003 A 
ATOM     24  C   UNL     1       0.404  -0.057  23.368  0.00  0.00    +0.000 A 
ATOM     25  C   UNL     1       0.147  -0.731  23.769  0.00  0.00    +0.000 A 
ATOM     26  C   UNL     1      -0.291  -0.656  24.464  0.00  0.00    +0.000 A 
ATOM     27  C   UNL     1      -0.472   0.093  24.759  0.00  0.00    +0.003 A 
ENDBRANCH  20  22
ENDBRANCH  16  17
ENDBRANCH  15  16
TORSDOF 7
ENDMDL
