MODEL 1
REMARK VINA RESULT:     -16.0      0.000      0.000
REMARK  Name = 
REMARK  5 active torsions:
REMARK  status: ('A' for Active; 'I' for Inactive)
REMARK    1  A    between atoms: O_2  and  C_3
REMARK    2  A    between atoms: C_6  and  C_9
REMARK    3  A    between atoms: C_20  and  C_25
REMARK    4  A    between atoms: C_28  and  O_29
REMARK    5  A    between atoms: O_29  and  C_30
REMARK                            x       y       z     vdW  Elec       q    Type
REMARK                         _______ _______ _______ _____ _____    ______ ____
ROOT
ATOM      9  C   UNL     1      -5.590   1.849  24.956  0.00  0.00    +0.249 C 
ATOM     10  O   UNL     1      -6.471   1.949  24.963  0.00  0.00    -0.270 OA
ATOM     11  N   UNL     1      -5.337   2.616  25.137  0.00  0.00    -0.276 N 
ATOM     12  C   UNL     1      -5.530   3.409  25.315  0.00  0.00    +0.096 C 
ATOM     13  C   UNL     1      -4.620   3.782  25.417  0.00  0.00    +0.043 C 
ATOM     14  C   UNL     1      -3.953   4.234  25.533  0.00  0.00    +0.011 C 
ATOM     15  C   UNL     1      -4.107   3.568  25.377  0.00  0.00    +0.058 C 
ATOM     16  C   UNL     1      -4.992   3.222  25.282  0.00  0.00    +0.099 C 
ATOM     17  C   UNL     1      -3.709   2.759  25.199  0.00  0.00    +0.041 A 
ATOM     18  C   UNL     1      -2.963   2.412  25.133  0.00  0.00    +0.013 A 
ATOM     19  C   UNL     1      -2.896   1.611  24.951  0.00  0.00    +0.006 A 
ATOM     20  C   UNL     1      -3.574   1.155  24.834  0.00  0.00    +0.056 A 
ATOM     21  C   UNL     1      -4.320   1.502  24.900  0.00  0.00    +0.261 A 
ATOM     22  O   UNL     1      -5.323   1.226  24.818  0.00  0.00    -0.267 OA
ATOM     23  N   UNL     1      -4.387   2.303  25.082  0.00  0.00    -0.299 N 
ATOM     24  C   UNL     1      -4.214   2.933  25.230  0.00  0.00    +0.110 C 
ENDROOT
BRANCH   9   6
ATOM      3  C   UNL     1      -3.156   0.226  24.647  0.00  0.00    +0.139 A 
ATOM      4  C   UNL     1      -3.530   0.845  24.110  0.00  0.00    +0.037 A 
ATOM      5  C   UNL     1      -4.302   1.369  24.192  0.00  0.00    +0.008 A 
ATOM      6  C   UNL     1      -4.797   1.324  24.850  0.00  0.00    +0.054 A 
ATOM      7  C   UNL     1      -4.620   0.804  25.465  0.00  0.00    +0.008 A 
ATOM      8  C   UNL     1      -4.143   0.426  25.500  0.00  0.00    +0.037 A 
BRANCH   3   2
ATOM      1  C   UNL     1      -1.345  -0.348  24.476  0.00  0.00    +0.252 C 
ATOM      2  O   UNL     1      -2.263  -0.333  24.477  0.00  0.00    -0.471 OA
ENDBRANCH   3   2
ENDBRANCH   9   6
BRANCH  20  25
ATOM     25  C   UNL     1      -3.506   0.354  24.652  0.00  0.00    +0.005 A 
ATOM     26  C   UNL     1      -3.382  -0.196  25.254  0.00  0.00    +0.003 A 
ATOM     27  C   UNL     1      -3.314  -0.998  25.072  0.00  0.00    +0.037 A 
ATOM     28  C   UNL     1      -3.368  -1.249  24.288  0.00  0.00    +0.147 A 
ATOM     34  C   UNL     1      -3.492  -0.700  23.686  0.00  0.00    +0.037 A 
ATOM     35  C   UNL     1      -3.560   0.103  23.868  0.00  0.00    +0.003 A 
BRANCH  28  29
ATOM     29  O   UNL     1      -3.304  -2.108  24.007  0.00  0.00    -0.404 OA
BRANCH  29  30
ATOM     30  C   UNL     1      -3.878  -2.816  23.969  0.00  0.00    +0.575 C 
ATOM     31  F   UNL     1      -4.344  -3.562  23.989  0.00  0.00    -0.133 F 
ATOM     32  F   UNL     1      -4.684  -2.773  23.608  0.00  0.00    -0.133 F 
ATOM     33  F   UNL     1      -3.342  -3.319  24.350  0.00  0.00    -0.133 F 
ENDBRANCH  29  30
ENDBRANCH  28  29
ENDBRANCH  20  25
TORSDOF 5
ENDMDL
MODEL 2
REMARK VINA RESULT:     -16.0      2.786      4.754
REMARK  Name = 
REMARK  5 active torsions:
REMARK  status: ('A' for Active; 'I' for Inactive)
REMARK    1  A    between atoms: O_2  and  C_3
REMARK    2  A    between atoms: C_6  and  C_9
REMARK    3  A    between atoms: C_20  and  C_25
REMARK    4  A    between atoms: C_28  and  O_29
REMARK    5  A    between atoms: O_29  and  C_30
REMARK                            x       y       z     vdW  Elec       q    Type
REMARK                         _______ _______ _______ _____ _____    ______ ____
ROOT
ATOM      9  C   UNL     1      -1.652  -0.889  24.739  0.00  0.00    +0.249 C 
ATOM     10  O   UNL     1      -0.867  -1.279  24.870  0.00  0.00    -0.270 OA
ATOM     11  N   UNL     1      -2.143  -1.544  24.619  0.00  0.00    -0.276 N 
ATOM     12  C   UNL     1      -2.228  -2.374  24.568  0.00  0.00    +0.096 C 
ATOM     13  C   UNL     1      -3.198  -2.430  24.384  0.00  0.00    +0.043 C 
ATOM     14  C   UNL     1      -3.969  -2.643  24.231  0.00  0.00    +0.011 C 
ATOM     15  C   UNL     1      -3.603  -2.052  24.324  0.00  0.00    +0.058 C 
ATOM     16  C   UNL     1      -2.665  -2.014  24.502  0.00  0.00    +0.099 C 
ATOM     17  C   UNL     1      -3.703  -1.138  24.344  0.00  0.00    +0.041 A 
ATOM     18  C   UNL     1      -4.281  -0.555  24.261  0.00  0.00    +0.013 A 
ATOM     19  C   UNL     1      -4.076   0.241  24.333  0.00  0.00    +0.006 A 
ATOM     20  C   UNL     1      -3.294   0.454  24.488  0.00  0.00    +0.056 A 
ATOM     21  C   UNL     1      -2.717  -0.129  24.572  0.00  0.00    +0.261 A 
ATOM     22  O   UNL     1      -1.692  -0.198  24.761  0.00  0.00    -0.267 OA
ATOM     23  N   UNL     1      -2.921  -0.925  24.500  0.00  0.00    -0.299 N 
ATOM     24  C   UNL     1      -3.292  -1.475  24.407  0.00  0.00    +0.110 C 
ENDROOT
BRANCH   9   6
ATOM      3  C   UNL     1      -3.372   1.486  24.499  0.00  0.00    +0.139 A 
ATOM      4  C   UNL     1      -3.277   0.885  25.164  0.00  0.00    +0.037 A 
ATOM      5  C   UNL     1      -2.736   0.126  25.257  0.00  0.00    +0.008 A 
ATOM      6  C   UNL     1      -2.214  -0.117  24.667  0.00  0.00    +0.054 A 
ATOM      7  C   UNL     1      -2.154   0.312  23.965  0.00  0.00    +0.008 A 
ATOM      8  C   UNL     1      -2.463   0.815  23.816  0.00  0.00    +0.037 A 
BRANCH   3   2
ATOM      1  C   UNL     1      -4.878   2.653  24.414  0.00  0.00    +0.252 C 
ATOM      2  O   UNL     1      -4.019   2.335  24.472  0.00  0.00    -0.471 OA
ENDBRANCH   3   2
ENDBRANCH   9   6
BRANCH  20  25
ATOM     25  C   UNL     1      -3.091   1.250  24.560  0.00  0.00    +0.005 A 
ATOM     26  C   UNL     1      -3.033   1.594  25.308  0.00  0.00    +0.003 A 
ATOM     27  C   UNL     1      -2.830   2.390  25.381  0.00  0.00    +0.037 A 
ATOM     28  C   UNL     1      -2.684   2.842  24.706  0.00  0.00    +0.147 A 
ATOM     34  C   UNL     1      -2.741   2.498  23.958  0.00  0.00    +0.037 A 
ATOM     35  C   UNL     1      -2.945   1.701  23.886  0.00  0.00    +0.003 A 
BRANCH  28  29
ATOM     29  O   UNL     1      -2.456   3.718  24.701  0.00  0.00    -0.404 OA
BRANCH  29  30
ATOM     30  C   UNL     1      -1.764   4.204  25.044  0.00  0.00    +0.575 C 
ATOM     31  F   UNL     1      -1.183   4.751  25.415  0.00  0.00    -0.133 F 
ATOM     32  F   UNL     1      -0.916   3.967  24.971  0.00  0.00    -0.133 F 
ATOM     33  F   UNL     1      -2.273   4.783  25.347  0.00  0.00    -0.133 F 
ENDBRANCH  29  30
ENDBRANCH  28  29
ENDBRANCH  20  25
TORSDOF 5
ENDMDL
MODEL 3
REMARK VINA RESULT:     -15.8      1.711      2.851
REMARK  Name = 
REMARK  5 active torsions:
REMARK  status: ('A' for Active; 'I' for Inactive)
REMARK    1  A    between atoms: O_2  and  C_3
REMARK    2  A    between atoms: C_6  and  C_9
REMARK    3  A    between atoms: C_20  and  C_25
REMARK    4  A    between atoms: C_28  and  O_29
REMARK    5  A    between atoms: O_29  and  C_30
REMARK                            x       y       z     vdW  Elec       q    Type
REMARK                         _______ _______ _______ _____ _____    ______ ____
ROOT
ATOM      9  C   UNL     1      -0.881   2.425  24.373  0.00  0.00    +0.249 C 
ATOM     10  O   UNL     1      -0.030   2.279  24.172  0.00  0.00    -0.270 OA
ATOM     11  N   UNL     1      -0.861   3.220  24.603  0.00  0.00    -0.276 N 
ATOM     12  C   UNL     1      -0.419   3.917  24.726  0.00  0.00    +0.096 C 
ATOM     13  C   UNL     1      -1.139   4.518  25.037  0.00  0.00    +0.043 C 
ATOM     14  C   UNL     1      -1.608   5.128  25.304  0.00  0.00    +0.011 C 
ATOM     15  C   UNL     1      -1.687   4.455  25.120  0.00  0.00    +0.058 C 
ATOM     16  C   UNL     1      -0.980   3.887  24.821  0.00  0.00    +0.099 C 
ATOM     17  C   UNL     1      -2.325   3.798  25.045  0.00  0.00    +0.041 A 
ATOM     18  C   UNL     1      -3.133   3.674  25.159  0.00  0.00    +0.013 A 
ATOM     19  C   UNL     1      -3.462   2.934  25.002  0.00  0.00    +0.006 A 
ATOM     20  C   UNL     1      -2.984   2.318  24.732  0.00  0.00    +0.056 A 
ATOM     21  C   UNL     1      -2.176   2.443  24.618  0.00  0.00    +0.261 A 
ATOM     22  O   UNL     1      -1.336   1.908  24.305  0.00  0.00    -0.267 OA
ATOM     23  N   UNL     1      -1.847   3.183  24.775  0.00  0.00    -0.299 N 
ATOM     24  C   UNL     1      -1.799   3.825  24.955  0.00  0.00    +0.110 C 
ENDROOT
BRANCH   9   6
ATOM      3  C   UNL     1      -3.676   1.553  24.654  0.00  0.00    +0.139 A 
ATOM      4  C   UNL     1      -3.271   2.057  24.027  0.00  0.00    +0.037 A 
ATOM      5  C   UNL     1      -2.385   2.343  23.922  0.00  0.00    +0.008 A 
ATOM      6  C   UNL     1      -1.792   2.144  24.459  0.00  0.00    +0.054 A 
ATOM      7  C   UNL     1      -1.968   1.678  25.116  0.00  0.00    +0.008 A 
ATOM      8  C   UNL     1      -2.512   1.448  25.266  0.00  0.00    +0.037 A 
BRANCH   3   2
ATOM      1  C   UNL     1      -5.567   1.508  24.906  0.00  0.00    +0.252 C 
ATOM      2  O   UNL     1      -4.704   1.269  24.701  0.00  0.00    -0.471 OA
ENDBRANCH   3   2
ENDBRANCH   9   6
BRANCH  20  25
ATOM     25  C   UNL     1      -3.313   1.579  24.575  0.00  0.00    +0.005 A 
ATOM     26  C   UNL     1      -3.472   1.059  25.196  0.00  0.00    +0.003 A 
ATOM     27  C   UNL     1      -3.802   0.319  25.041  0.00  0.00    +0.037 A 
ATOM     28  C   UNL     1      -3.973   0.099  24.264  0.00  0.00    +0.147 A 
ATOM     34  C   UNL     1      -3.815   0.618  23.643  0.00  0.00    +0.037 A 
ATOM     35  C   UNL     1      -3.484   1.359  23.799  0.00  0.00    +0.003 A 
BRANCH  28  29
ATOM     29  O   UNL     1      -4.335  -0.692  24.011  0.00  0.00    -0.404 OA
BRANCH  29  30
ATOM     30  C   UNL     1      -4.042  -1.555  23.995  0.00  0.00    +0.575 C 
ATOM     31  F   UNL     1      -3.878  -2.419  23.965  0.00  0.00    -0.133 F 
ATOM     32  F   UNL     1      -3.192  -1.786  24.071  0.00  0.00    -0.133 F 
ATOM     33  F   UNL     1      -4.809  -1.852  23.898  0.00  0.00    -0.133 F 
ENDBRANCH  29  30
ENDBRANCH  28  29
ENDBRANCH  20  25
TORSDOF 5
ENDMDL
MODEL 4
REMARK VINA RESULT:     -15.4      3.093      4.422
REMARK  Name = 
REMARK  5 active torsions:
REMARK  status: ('A' for Active; 'I' for Inactive)
REMARK    1  A    between atoms: O_2  and  C_3
REMARK    2  A    between atoms: C_6  and  C_9
REMARK    3  A    between atoms: C_20  and  C_25
REMARK    4  A    between atoms: C_28  and  O_29
REMARK    5  A    between atoms: O_29  and  C_30
REMARK                            x       y       z     vdW  Elec       q    Type
REMARK                         _______ _______ _______ _____ _____    ______ ____
ROOT
ATOM      9  C   UNL     1      -4.303   1.026  24.770  0.00  0.00    +0.249 C 
ATOM     10  O   UNL     1      -5.161   1.210  24.898  0.00  0.00    -0.270 OA
ATOM     11  N   UNL     1      -4.330   0.211  24.629  0.00  0.00    -0.276 N 
ATOM     12  C   UNL     1      -4.782  -0.488  24.556  0.00  0.00    +0.096 C 
ATOM     13  C   UNL     1      -4.059  -1.133  24.362  0.00  0.00    +0.043 C 
ATOM     14  C   UNL     1      -3.590  -1.779  24.196  0.00  0.00    +0.011 C 
ATOM     15  C   UNL     1      -3.506  -1.091  24.308  0.00  0.00    +0.058 C 
ATOM     16  C   UNL     1      -4.215  -0.479  24.495  0.00  0.00    +0.099 C 
ATOM     17  C   UNL     1      -2.856  -0.442  24.351  0.00  0.00    +0.041 A 
ATOM     18  C   UNL     1      -2.040  -0.347  24.278  0.00  0.00    +0.013 A 
ATOM     19  C   UNL     1      -1.703   0.400  24.372  0.00  0.00    +0.006 A 
ATOM     20  C   UNL     1      -2.181   1.051  24.540  0.00  0.00    +0.056 A 
ATOM     21  C   UNL     1      -2.997   0.956  24.614  0.00  0.00    +0.261 A 
ATOM     22  O   UNL     1      -3.840   1.538  24.810  0.00  0.00    -0.267 OA
ATOM     23  N   UNL     1      -3.334   0.209  24.519  0.00  0.00    -0.299 N 
ATOM     24  C   UNL     1      -3.388  -0.449  24.409  0.00  0.00    +0.110 C 
ENDROOT
BRANCH   9   6
ATOM      3  C   UNL     1      -1.474   1.807  24.577  0.00  0.00    +0.139 A 
ATOM      4  C   UNL     1      -1.932   1.387  25.230  0.00  0.00    +0.037 A 
ATOM      5  C   UNL     1      -2.829   1.131  25.308  0.00  0.00    +0.008 A 
ATOM      6  C   UNL     1      -3.382   1.278  24.713  0.00  0.00    +0.054 A 
ATOM      7  C   UNL     1      -3.152   1.661  24.020  0.00  0.00    +0.008 A 
ATOM      8  C   UNL     1      -2.594   1.863  23.881  0.00  0.00    +0.037 A 
BRANCH   3   2
ATOM      1  C   UNL     1       0.428   1.790  24.435  0.00  0.00    +0.252 C 
ATOM      2  O   UNL     1      -0.438   2.065  24.567  0.00  0.00    -0.471 OA
ENDBRANCH   3   2
ENDBRANCH   9   6
BRANCH  20  25
ATOM     25  C   UNL     1      -1.842   1.797  24.635  0.00  0.00    +0.005 A 
ATOM     26  C   UNL     1      -1.676   2.261  23.973  0.00  0.00    +0.003 A 
ATOM     27  C   UNL     1      -1.337   3.007  24.066  0.00  0.00    +0.037 A 
ATOM     28  C   UNL     1      -1.164   3.290  24.822  0.00  0.00    +0.147 A 
ATOM     34  C   UNL     1      -1.330   2.827  25.484  0.00  0.00    +0.037 A 
ATOM     35  C   UNL     1      -1.669   2.079  25.390  0.00  0.00    +0.003 A 
BRANCH  28  29
ATOM     29  O   UNL     1      -0.794   4.095  25.008  0.00  0.00    -0.404 OA
BRANCH  29  30
ATOM     30  C   UNL     1      -1.113   4.945  25.088  0.00  0.00    +0.575 C 
ATOM     31  F   UNL     1      -1.317   5.801  25.109  0.00  0.00    -0.133 F 
ATOM     32  F   UNL     1      -1.888   5.144  25.464  0.00  0.00    -0.133 F 
ATOM     33  F   UNL     1      -0.447   5.270  24.718  0.00  0.00    -0.133 F 
ENDBRANCH  29  30
ENDBRANCH  28  29
ENDBRANCH  20  25
TORSDOF 5
ENDMDL
MODEL 5
REMARK VINA RESULT:     -15.4      1.720      2.372
REMARK  Name = 
REMARK  5 active torsions:
REMARK  status: ('A' for Active; 'I' for Inactive)
REMARK    1  A    between atoms: O_2  and  C_3
REMARK    2  A    between atoms: C_6  and  C_9
REMARK    3  A    between atoms: C_20  and  C_25
REMARK    4  A    between atoms: C_28  and  O_29
REMARK    5  A    between atoms: O_29  and  C_30
REMARK                            x       y       z     vdW  Elec       q    Type
REMARK                         _______ _______ _______ _____ _____    ______ ____
ROOT
ATOM      9  C   UNL     1      -3.214   3.490  25.325  0.00  0.00    +0.249 C 
ATOM     10  O   UNL     1      -3.917   3.950  25.607  0.00  0.00    -0.270 OA
ATOM     11  N   UNL     1      -2.630   4.076  25.310  0.00  0.00    -0.276 N 
ATOM     12  C   UNL     1      -2.414   4.873  25.436  0.00  0.00    +0.096 C 
ATOM     13  C   UNL     1      -1.459   4.827  25.184  0.00  0.00    +0.043 C 
ATOM     14  C   UNL     1      -0.673   4.955  25.015  0.00  0.00    +0.011 C 
ATOM     15  C   UNL     1      -1.124   4.418  25.007  0.00  0.00    +0.058 C 
ATOM     16  C   UNL     1      -2.045   4.479  25.254  0.00  0.00    +0.099 C 
ATOM     17  C   UNL     1      -1.174   3.520  24.817  0.00  0.00    +0.041 A 
ATOM     18  C   UNL     1      -0.704   2.894  24.556  0.00  0.00    +0.013 A 
ATOM     19  C   UNL     1      -1.031   2.142  24.469  0.00  0.00    +0.006 A 
ATOM     20  C   UNL     1      -1.828   2.016  24.642  0.00  0.00    +0.056 A 
ATOM     21  C   UNL     1      -2.298   2.642  24.902  0.00  0.00    +0.261 A 
ATOM     22  O   UNL     1      -3.286   2.815  25.191  0.00  0.00    -0.267 OA
ATOM     23  N   UNL     1      -1.970   3.394  24.989  0.00  0.00    -0.299 N 
ATOM     24  C   UNL     1      -1.520   3.890  24.988  0.00  0.00    +0.110 C 
ENDROOT
BRANCH   9   6
ATOM      3  C   UNL     1      -1.919   1.009  24.418  0.00  0.00    +0.139 A 
ATOM      4  C   UNL     1      -1.882   1.446  25.205  0.00  0.00    +0.037 A 
ATOM      5  C   UNL     1      -2.287   2.234  25.510  0.00  0.00    +0.008 A 
ATOM      6  C   UNL     1      -2.790   2.682  25.035  0.00  0.00    +0.054 A 
ATOM      7  C   UNL     1      -2.953   2.442  24.264  0.00  0.00    +0.008 A 
ATOM      8  C   UNL     1      -2.738   1.948  23.981  0.00  0.00    +0.037 A 
BRANCH   3   2
ATOM      1  C   UNL     1      -0.630  -0.315  23.947  0.00  0.00    +0.252 C 
ATOM      2  O   UNL     1      -1.421   0.104  24.148  0.00  0.00    -0.471 OA
ENDBRANCH   3   2
ENDBRANCH   9   6
BRANCH  20  25
ATOM     25  C   UNL     1      -2.155   1.264  24.554  0.00  0.00    +0.005 A 
ATOM     26  C   UNL     1      -2.417   1.013  23.813  0.00  0.00    +0.003 A 
ATOM     27  C   UNL     1      -2.744   0.260  23.725  0.00  0.00    +0.037 A 
ATOM     28  C   UNL     1      -2.808  -0.241  24.377  0.00  0.00    +0.147 A 
ATOM     34  C   UNL     1      -2.545   0.010  25.118  0.00  0.00    +0.037 A 
ATOM     35  C   UNL     1      -2.219   0.763  25.206  0.00  0.00    +0.003 A 
BRANCH  28  29
ATOM     29  O   UNL     1      -3.153  -1.078  24.363  0.00  0.00    -0.404 OA
BRANCH  29  30
ATOM     30  C   UNL     1      -3.965  -1.434  24.148  0.00  0.00    +0.575 C 
ATOM     31  F   UNL     1      -4.684  -1.876  23.902  0.00  0.00    -0.133 F 
ATOM     32  F   UNL     1      -4.733  -1.015  24.274  0.00  0.00    -0.133 F 
ATOM     33  F   UNL     1      -3.624  -2.135  23.867  0.00  0.00    -0.133 F 
ENDBRANCH  29  30
ENDBRANCH  28  29
ENDBRANCH  20  25
TORSDOF 5
ENDMDL
