REMARK  Name = 
REMARK  5 active torsions:
REMARK  status: ('A' for Active; 'I' for Inactive)
REMARK    1  A    between atoms: O_2  and  C_3
REMARK    2  A    between atoms: C_3  and  C_4
REMARK    3  A    between atoms: C_4  and  N_5
REMARK    4  A    between atoms: N_9  and  C_10
REMARK    5  A    between atoms: C_10  and  C_11
REMARK                            x       y       z     vdW  Elec       q    Type
REMARK                         _______ _______ _______ _____ _____    ______ ____
ROOT
ATOM      5  N   UNL     1      -4.445  -2.003   0.000  0.00  0.00    -0.260 N 
ATOM      6  C   UNL     1      -3.961  -1.335   0.000  0.00  0.00    +0.116 C 
ATOM      7  C   UNL     1      -3.176  -1.590   0.000  0.00  0.00    +0.113 C 
ATOM      8  C   UNL     1      -2.461  -1.178   0.000  0.00  0.00    +0.094 C 
ATOM      9  N   UNL     1      -1.747  -1.590   0.000  0.00  0.00    -0.266 NA
ATOM     21  C   UNL     1      -1.747  -2.415   0.000  0.00  0.00    +0.094 C 
ATOM     22  C   UNL     1      -2.461  -2.828   0.000  0.00  0.00    +0.112 C 
ATOM     23  N   UNL     1      -3.176  -2.415   0.000  0.00  0.00    -0.261 N 
ATOM     24  C   UNL     1      -3.961  -2.670   0.000  0.00  0.00    +0.307 C 
ATOM     25  O   UNL     1      -4.215  -3.455   0.000  0.00  0.00    -0.252 OA
ENDROOT
BRANCH   5   4
ATOM      4  C   UNL     1      -5.270  -2.003   0.000  0.00  0.00    +0.127 C 
BRANCH   4   3
ATOM      3  C   UNL     1      -5.683  -2.717   0.000  0.00  0.00    +0.164 C 
BRANCH   3   2
ATOM      1  C   UNL     1      -6.920  -3.432   0.000  0.00  0.00    +0.174 C 
ATOM      2  O   UNL     1      -6.508  -2.717   0.000  0.00  0.00    -0.349 OA
ENDBRANCH   3   2
ENDBRANCH   4   3
ENDBRANCH   5   4
BRANCH   9  10
ATOM     10  C   UNL     1      -1.032  -1.178   0.000  0.00  0.00    +0.101 C 
BRANCH  10  11
ATOM     11  C   UNL     1      -0.318  -1.590   0.000  0.00  0.00    +0.012 A 
ATOM     12  C   UNL     1      -0.232  -2.411   0.000  0.00  0.00    +0.073 A 
ATOM     13  N   UNL     1       0.575  -2.582   0.000  0.00  0.00    -0.324 N 
ATOM     14  C   UNL     1       0.911  -3.336   0.000  0.00  0.00    +0.130 C 
ATOM     15  C   UNL     1       0.988  -1.868   0.000  0.00  0.00    +0.060 A 
ATOM     16  C   UNL     1       0.436  -1.255   0.000  0.00  0.00    +0.015 A 
ATOM     17  C   UNL     1       0.691  -0.470   0.000  0.00  0.00    +0.001 A 
ATOM     18  C   UNL     1       1.498  -0.299   0.000  0.00  0.00    +0.000 A 
ATOM     19  C   UNL     1       2.050  -0.912   0.000  0.00  0.00    +0.001 A 
ATOM     20  C   UNL     1       1.795  -1.696   0.000  0.00  0.00    +0.017 A 
ENDBRANCH  10  11
ENDBRANCH   9  10
TORSDOF 5
