MODEL 1
REMARK VINA RESULT:      -9.9      0.000      0.000
REMARK  Name = 
REMARK  8 active torsions:
REMARK  status: ('A' for Active; 'I' for Inactive)
REMARK    1  A    between atoms: N_4  and  C_22
REMARK    2  A    between atoms: C_7  and  C_8
REMARK    3  A    between atoms: C_10  and  N_11
REMARK    4  A    between atoms: C_12  and  C_14
REMARK    5  A    between atoms: C_14  and  O_15
REMARK    6  A    between atoms: O_15  and  C_16
REMARK    7  A    between atoms: C_16  and  C_17
REMARK    8  A    between atoms: C_25  and  C_28
REMARK                            x       y       z     vdW  Elec       q    Type
REMARK                         _______ _______ _______ _____ _____    ______ ____
ROOT
ATOM      1  C   UNL     1      -2.802  -1.788  24.280  0.00  0.00    +0.054 C 
ATOM      2  C   UNL     1      -2.896  -0.988  24.461  0.00  0.00    +0.077 A 
ATOM      3  N   UNL     1      -3.615  -0.595  24.560  0.00  0.00    -0.170 NA
ATOM      4  N   UNL     1      -3.451   0.195  24.735  0.00  0.00    -0.234 N 
ATOM      5  C   UNL     1      -2.631   0.289  24.743  0.00  0.00    +0.058 A 
ATOM      6  C   UNL     1      -2.225   0.991  24.895  0.00  0.00    +0.052 C 
ATOM      7  C   UNL     1      -2.288  -0.442  24.574  0.00  0.00    +0.010 A 
ENDROOT
BRANCH   4  22
ATOM     22  C   UNL     1      -4.009   0.786  24.876  0.00  0.00    +0.082 A 
ATOM     23  C   UNL     1      -4.566   0.691  25.476  0.00  0.00    +0.019 A 
ATOM     24  C   UNL     1      -5.124   1.283  25.618  0.00  0.00    -0.003 A 
ATOM     25  C   UNL     1      -5.124   1.968  25.159  0.00  0.00    -0.023 A 
ATOM     26  C   UNL     1      -4.566   2.062  24.558  0.00  0.00    -0.003 A 
ATOM     27  C   UNL     1      -4.008   1.471  24.417  0.00  0.00    +0.019 A 
BRANCH  25  28
ATOM     28  C   UNL     1      -5.682   2.559  25.300  0.00  0.00    +0.019 C 
ATOM     29  C   UNL     1      -6.240   3.150  25.441  0.00  0.00    +0.004 C 
ATOM     30  C   UNL     1      -5.079   3.073  25.531  0.00  0.00    +0.004 C 
ATOM     31  C   UNL     1      -6.285   2.046  25.069  0.00  0.00    +0.004 C 
ENDBRANCH  25  28
ENDBRANCH   4  22
BRANCH   7   8
ATOM      8  C   UNL     1      -1.480  -0.600  24.526  0.00  0.00    +0.048 C 
ATOM      9  C   UNL     1      -1.015  -0.541  23.847  0.00  0.00    +0.035 C 
ATOM     10  C   UNL     1      -0.242  -0.749  24.049  0.00  0.00    +0.118 C 
ATOM     20  C   UNL     1      -0.230  -0.936  24.852  0.00  0.00    -0.009 C 
ATOM     21  C   UNL     1      -0.995  -0.844  25.147  0.00  0.00    -0.025 C 
BRANCH  10  11
ATOM     11  N   UNL     1       0.404  -0.767  23.538  0.00  0.00    -0.201 NA
ATOM     12  C   UNL     1       0.789  -0.066  23.333  0.00  0.00    +0.272 C 
ATOM     13  O   UNL     1       0.525   0.653  23.640  0.00  0.00    -0.271 OA
BRANCH  12  14
ATOM     14  C   UNL     1       1.435  -0.084  22.822  0.00  0.00    +0.229 C 
BRANCH  14  15
ATOM     15  O   UNL     1       2.125   0.327  23.013  0.00  0.00    -0.333 OA
BRANCH  15  16
ATOM     16  C   UNL     1       2.777   0.295  22.510  0.00  0.00    +0.257 C 
BRANCH  16  17
ATOM     17  C   UNL     1       3.518   0.544  22.777  0.00  0.00    +0.394 C 
ATOM     18  O   UNL     1       3.681   1.348  22.853  0.00  0.00    -0.243 OA
ATOM     19  O   UNL     1       4.095  -0.014  22.969  0.00  0.00    -0.243 OA
ENDBRANCH  16  17
ENDBRANCH  15  16
ENDBRANCH  14  15
ENDBRANCH  12  14
ENDBRANCH  10  11
ENDBRANCH   7   8
TORSDOF 8
ENDMDL
MODEL 2
REMARK VINA RESULT:      -9.9      1.089      1.809
REMARK  Name = 
REMARK  8 active torsions:
REMARK  status: ('A' for Active; 'I' for Inactive)
REMARK    1  A    between atoms: N_4  and  C_22
REMARK    2  A    between atoms: C_7  and  C_8
REMARK    3  A    between atoms: C_10  and  N_11
REMARK    4  A    between atoms: C_12  and  C_14
REMARK    5  A    between atoms: C_14  and  O_15
REMARK    6  A    between atoms: O_15  and  C_16
REMARK    7  A    between atoms: C_16  and  C_17
REMARK    8  A    between atoms: C_25  and  C_28
REMARK                            x       y       z     vdW  Elec       q    Type
REMARK                         _______ _______ _______ _____ _____    ______ ____
ROOT
ATOM      1  C   UNL     1      -0.513  -0.912  25.094  0.00  0.00    +0.054 C 
ATOM      2  C   UNL     1      -1.002  -0.327  24.779  0.00  0.00    +0.077 A 
ATOM      3  N   UNL     1      -1.753  -0.123  25.054  0.00  0.00    -0.170 NA
ATOM      4  N   UNL     1      -2.042   0.487  24.579  0.00  0.00    -0.234 N 
ATOM      5  C   UNL     1      -1.469   0.660  24.011  0.00  0.00    +0.058 A 
ATOM      6  C   UNL     1      -1.528   1.235  23.423  0.00  0.00    +0.052 C 
ATOM      7  C   UNL     1      -0.826   0.157  24.135  0.00  0.00    +0.010 A 
ENDROOT
BRANCH   4  22
ATOM     22  C   UNL     1      -2.774   0.858  24.659  0.00  0.00    +0.082 A 
ATOM     23  C   UNL     1      -3.452   0.501  24.356  0.00  0.00    +0.019 A 
ATOM     24  C   UNL     1      -4.185   0.872  24.435  0.00  0.00    -0.003 A 
ATOM     25  C   UNL     1      -4.239   1.601  24.818  0.00  0.00    -0.023 A 
ATOM     26  C   UNL     1      -3.559   1.959  25.121  0.00  0.00    -0.003 A 
ATOM     27  C   UNL     1      -2.827   1.587  25.041  0.00  0.00    +0.019 A 
BRANCH  25  28
ATOM     28  C   UNL     1      -4.971   1.972  24.897  0.00  0.00    +0.019 C 
ATOM     29  C   UNL     1      -5.703   2.344  24.976  0.00  0.00    +0.004 C 
ATOM     30  C   UNL     1      -5.235   1.350  25.369  0.00  0.00    +0.004 C 
ATOM     31  C   UNL     1      -4.706   2.595  24.425  0.00  0.00    +0.004 C 
ENDBRANCH  25  28
ENDBRANCH   4  22
BRANCH   7   8
ATOM      8  C   UNL     1      -0.131   0.141  23.692  0.00  0.00    +0.048 C 
ATOM      9  C   UNL     1       0.525   0.628  23.803  0.00  0.00    +0.035 C 
ATOM     10  C   UNL     1       1.094   0.424  23.241  0.00  0.00    +0.118 C 
ATOM     20  C   UNL     1       0.789  -0.190  22.783  0.00  0.00    -0.009 C 
ATOM     21  C   UNL     1       0.032  -0.365  23.061  0.00  0.00    -0.025 C 
BRANCH  10  11
ATOM     11  N   UNL     1       1.836   0.771  23.153  0.00  0.00    -0.201 NA
ATOM     12  C   UNL     1       2.470   0.325  22.871  0.00  0.00    +0.272 C 
ATOM     13  O   UNL     1       2.362  -0.469  22.677  0.00  0.00    -0.271 OA
BRANCH  12  14
ATOM     14  C   UNL     1       3.213   0.673  22.783  0.00  0.00    +0.229 C 
BRANCH  14  15
ATOM     15  O   UNL     1       3.880   0.309  23.103  0.00  0.00    -0.333 OA
BRANCH  15  16
ATOM     16  C   UNL     1       4.610   0.693  23.083  0.00  0.00    +0.257 C 
BRANCH  16  17
ATOM     17  C   UNL     1       5.257   0.372  23.483  0.00  0.00    +0.394 C 
ATOM     18  O   UNL     1       5.404   0.582  24.266  0.00  0.00    -0.243 OA
ATOM     19  O   UNL     1       5.757  -0.159  23.097  0.00  0.00    -0.243 OA
ENDBRANCH  16  17
ENDBRANCH  15  16
ENDBRANCH  14  15
ENDBRANCH  12  14
ENDBRANCH  10  11
ENDBRANCH   7   8
TORSDOF 8
ENDMDL
MODEL 3
REMARK VINA RESULT:      -9.7      3.080      4.998
REMARK  Name = 
REMARK  8 active torsions:
REMARK  status: ('A' for Active; 'I' for Inactive)
REMARK    1  A    between atoms: N_4  and  C_22
REMARK    2  A    between atoms: C_7  and  C_8
REMARK    3  A    between atoms: C_10  and  N_11
REMARK    4  A    between atoms: C_12  and  C_14
REMARK    5  A    between atoms: C_14  and  O_15
REMARK    6  A    between atoms: O_15  and  C_16
REMARK    7  A    between atoms: C_16  and  C_17
REMARK    8  A    between atoms: C_25  and  C_28
REMARK                            x       y       z     vdW  Elec       q    Type
REMARK                         _______ _______ _______ _____ _____    ______ ____
ROOT
ATOM      1  C   UNL     1      -6.247   1.667  25.093  0.00  0.00    +0.054 C 
ATOM      2  C   UNL     1      -5.525   1.275  25.020  0.00  0.00    +0.077 A 
ATOM      3  N   UNL     1      -5.424   0.462  24.916  0.00  0.00    -0.170 NA
ATOM      4  N   UNL     1      -4.614   0.310  24.870  0.00  0.00    -0.234 N 
ATOM      5  C   UNL     1      -4.215   1.029  24.946  0.00  0.00    +0.058 A 
ATOM      6  C   UNL     1      -3.397   1.133  24.931  0.00  0.00    +0.052 C 
ATOM      7  C   UNL     1      -4.778   1.625  25.038  0.00  0.00    +0.010 A 
ENDROOT
BRANCH   4  22
ATOM     22  C   UNL     1      -4.264  -0.430  24.766  0.00  0.00    +0.082 A 
ATOM     23  C   UNL     1      -3.920  -0.816  25.408  0.00  0.00    +0.019 A 
ATOM     24  C   UNL     1      -3.570  -1.556  25.304  0.00  0.00    -0.003 A 
ATOM     25  C   UNL     1      -3.565  -1.910  24.559  0.00  0.00    -0.023 A 
ATOM     26  C   UNL     1      -3.910  -1.523  23.917  0.00  0.00    -0.003 A 
ATOM     27  C   UNL     1      -4.259  -0.783  24.020  0.00  0.00    +0.019 A 
BRANCH  25  28
ATOM     28  C   UNL     1      -3.216  -2.650  24.455  0.00  0.00    +0.019 C 
ATOM     29  C   UNL     1      -2.866  -3.390  24.352  0.00  0.00    +0.004 C 
ATOM     30  C   UNL     1      -3.946  -2.964  24.235  0.00  0.00    +0.004 C 
ATOM     31  C   UNL     1      -2.485  -2.336  24.675  0.00  0.00    +0.004 C 
ENDBRANCH  25  28
ENDBRANCH   4  22
BRANCH   7   8
ATOM      8  C   UNL     1      -4.623   2.429  25.133  0.00  0.00    +0.048 C 
ATOM      9  C   UNL     1      -3.924   2.815  24.925  0.00  0.00    +0.035 C 
ATOM     10  C   UNL     1      -4.007   3.614  25.115  0.00  0.00    +0.118 C 
ATOM     20  C   UNL     1      -4.757   3.721  25.441  0.00  0.00    -0.009 C 
ATOM     21  C   UNL     1      -5.137   2.989  25.452  0.00  0.00    -0.025 C 
BRANCH  10  11
ATOM     11  N   UNL     1      -3.440   4.201  25.000  0.00  0.00    -0.201 NA
ATOM     12  C   UNL     1      -2.945   4.426  25.621  0.00  0.00    +0.272 C 
ATOM     13  O   UNL     1      -3.018   4.062  26.358  0.00  0.00    -0.271 OA
BRANCH  12  14
ATOM     14  C   UNL     1      -2.379   5.013  25.506  0.00  0.00    +0.229 C 
BRANCH  14  15
ATOM     15  O   UNL     1      -1.579   4.813  25.462  0.00  0.00    -0.333 OA
BRANCH  15  16
ATOM     16  C   UNL     1      -1.069   5.254  24.987  0.00  0.00    +0.257 C 
BRANCH  16  17
ATOM     17  C   UNL     1      -0.418   4.891  24.633  0.00  0.00    +0.394 C 
ATOM     18  O   UNL     1      -0.115   5.185  23.925  0.00  0.00    -0.243 OA
ATOM     19  O   UNL     1      -0.068   4.234  24.989  0.00  0.00    -0.243 OA
ENDBRANCH  16  17
ENDBRANCH  15  16
ENDBRANCH  14  15
ENDBRANCH  12  14
ENDBRANCH  10  11
ENDBRANCH   7   8
TORSDOF 8
ENDMDL
MODEL 4
REMARK VINA RESULT:      -8.7      3.115      4.751
REMARK  Name = 
REMARK  8 active torsions:
REMARK  status: ('A' for Active; 'I' for Inactive)
REMARK    1  A    between atoms: N_4  and  C_22
REMARK    2  A    between atoms: C_7  and  C_8
REMARK    3  A    between atoms: C_10  and  N_11
REMARK    4  A    between atoms: C_12  and  C_14
REMARK    5  A    between atoms: C_14  and  O_15
REMARK    6  A    between atoms: O_15  and  C_16
REMARK    7  A    between atoms: C_16  and  C_17
REMARK    8  A    between atoms: C_25  and  C_28
REMARK                            x       y       z     vdW  Elec       q    Type
REMARK                         _______ _______ _______ _____ _____    ______ ____
ROOT
ATOM      1  C   UNL     1      -5.662   2.438  25.601  0.00  0.00    +0.054 C 
ATOM      2  C   UNL     1      -4.869   2.531  25.392  0.00  0.00    +0.077 A 
ATOM      3  N   UNL     1      -4.436   3.232  25.435  0.00  0.00    -0.170 NA
ATOM      4  N   UNL     1      -3.670   3.074  25.172  0.00  0.00    -0.234 N 
ATOM      5  C   UNL     1      -3.630   2.276  24.968  0.00  0.00    +0.058 A 
ATOM      6  C   UNL     1      -2.965   1.882  24.678  0.00  0.00    +0.052 C 
ATOM      7  C   UNL     1      -4.371   1.940  25.103  0.00  0.00    +0.010 A 
ENDROOT
BRANCH   4  22
ATOM     22  C   UNL     1      -3.052   3.619  25.123  0.00  0.00    +0.082 A 
ATOM     23  C   UNL     1      -2.909   4.017  24.416  0.00  0.00    +0.019 A 
ATOM     24  C   UNL     1      -2.291   4.561  24.367  0.00  0.00    -0.003 A 
ATOM     25  C   UNL     1      -1.817   4.708  25.025  0.00  0.00    -0.023 A 
ATOM     26  C   UNL     1      -1.960   4.309  25.734  0.00  0.00    -0.003 A 
ATOM     27  C   UNL     1      -2.578   3.765  25.783  0.00  0.00    +0.019 A 
BRANCH  25  28
ATOM     28  C   UNL     1      -1.199   5.253  24.976  0.00  0.00    +0.019 C 
ATOM     29  C   UNL     1      -0.582   5.797  24.927  0.00  0.00    +0.004 C 
ATOM     30  C   UNL     1      -1.732   5.869  25.107  0.00  0.00    +0.004 C 
ATOM     31  C   UNL     1      -0.666   4.637  24.846  0.00  0.00    +0.004 C 
ENDBRANCH  25  28
ENDBRANCH   4  22
BRANCH   7   8
ATOM      8  C   UNL     1      -4.579   1.152  24.974  0.00  0.00    +0.048 C 
ATOM      9  C   UNL     1      -4.105   0.495  25.128  0.00  0.00    +0.035 C 
ATOM     10  C   UNL     1      -4.528  -0.181  24.917  0.00  0.00    +0.118 C 
ATOM     20  C   UNL     1      -5.264   0.059  24.632  0.00  0.00    -0.009 C 
ATOM     21  C   UNL     1      -5.296   0.883  24.667  0.00  0.00    -0.025 C 
BRANCH  10  11
ATOM     11  N   UNL     1      -4.263  -0.959  24.979  0.00  0.00    -0.201 NA
ATOM     12  C   UNL     1      -4.045  -1.377  24.302  0.00  0.00    +0.272 C 
ATOM     13  O   UNL     1      -4.092  -1.015  23.562  0.00  0.00    -0.271 OA
BRANCH  12  14
ATOM     14  C   UNL     1      -3.780  -2.155  24.364  0.00  0.00    +0.229 C 
BRANCH  14  15
ATOM     15  O   UNL     1      -3.023  -2.356  24.103  0.00  0.00    -0.333 OA
BRANCH  15  16
ATOM     16  C   UNL     1      -2.534  -2.823  24.574  0.00  0.00    +0.257 C 
BRANCH  16  17
ATOM     17  C   UNL     1      -1.717  -2.808  24.463  0.00  0.00    +0.394 C 
ATOM     18  O   UNL     1      -1.395  -3.023  23.735  0.00  0.00    -0.243 OA
ATOM     19  O   UNL     1      -1.221  -2.578  25.081  0.00  0.00    -0.243 OA
ENDBRANCH  16  17
ENDBRANCH  15  16
ENDBRANCH  14  15
ENDBRANCH  12  14
ENDBRANCH  10  11
ENDBRANCH   7   8
TORSDOF 8
ENDMDL
MODEL 5
REMARK VINA RESULT:      -8.7      1.769      2.449
REMARK  Name = 
REMARK  8 active torsions:
REMARK  status: ('A' for Active; 'I' for Inactive)
REMARK    1  A    between atoms: N_4  and  C_22
REMARK    2  A    between atoms: C_7  and  C_8
REMARK    3  A    between atoms: C_10  and  N_11
REMARK    4  A    between atoms: C_12  and  C_14
REMARK    5  A    between atoms: C_14  and  O_15
REMARK    6  A    between atoms: O_15  and  C_16
REMARK    7  A    between atoms: C_16  and  C_17
REMARK    8  A    between atoms: C_25  and  C_28
REMARK                            x       y       z     vdW  Elec       q    Type
REMARK                         _______ _______ _______ _____ _____    ______ ____
ROOT
ATOM      1  C   UNL     1      -0.941   4.211  24.862  0.00  0.00    +0.054 C 
ATOM      2  C   UNL     1      -1.509   3.614  24.896  0.00  0.00    +0.077 A 
ATOM      3  N   UNL     1      -2.323   3.725  24.971  0.00  0.00    -0.170 NA
ATOM      4  N   UNL     1      -2.682   2.982  24.983  0.00  0.00    -0.234 N 
ATOM      5  C   UNL     1      -2.089   2.413  24.915  0.00  0.00    +0.058 A 
ATOM      6  C   UNL     1      -2.200   1.595  24.903  0.00  0.00    +0.052 C 
ATOM      7  C   UNL     1      -1.364   2.803  24.861  0.00  0.00    +0.010 A 
ENDROOT
BRANCH   4  22
ATOM     22  C   UNL     1      -3.491   2.834  25.051  0.00  0.00    +0.082 A 
ATOM     23  C   UNL     1      -3.875   2.969  25.767  0.00  0.00    +0.019 A 
ATOM     24  C   UNL     1      -4.684   2.821  25.835  0.00  0.00    -0.003 A 
ATOM     25  C   UNL     1      -5.108   2.539  25.186  0.00  0.00    -0.023 A 
ATOM     26  C   UNL     1      -4.723   2.404  24.469  0.00  0.00    -0.003 A 
ATOM     27  C   UNL     1      -3.914   2.552  24.401  0.00  0.00    +0.019 A 
BRANCH  25  28
ATOM     28  C   UNL     1      -5.917   2.391  25.254  0.00  0.00    +0.019 C 
ATOM     29  C   UNL     1      -6.726   2.244  25.321  0.00  0.00    +0.004 C 
ATOM     30  C   UNL     1      -5.818   1.672  24.862  0.00  0.00    +0.004 C 
ATOM     31  C   UNL     1      -6.015   3.110  25.646  0.00  0.00    +0.004 C 
ENDBRANCH  25  28
ENDBRANCH   4  22
BRANCH   7   8
ATOM      8  C   UNL     1      -0.624   2.447  24.786  0.00  0.00    +0.048 C 
ATOM      9  C   UNL     1      -0.249   2.255  24.077  0.00  0.00    +0.035 C 
ATOM     10  C   UNL     1       0.478   1.908  24.258  0.00  0.00    +0.118 C 
ATOM     20  C   UNL     1       0.552   1.887  25.079  0.00  0.00    -0.009 C 
ATOM     21  C   UNL     1      -0.129   2.219  25.405  0.00  0.00    -0.025 C 
BRANCH  10  11
ATOM     11  N   UNL     1       1.033   1.633  23.714  0.00  0.00    -0.201 NA
ATOM     12  C   UNL     1       1.058   0.831  23.520  0.00  0.00    +0.272 C 
ATOM     13  O   UNL     1       0.527   0.306  23.870  0.00  0.00    -0.271 OA
BRANCH  12  14
ATOM     14  C   UNL     1       1.613   0.556  22.976  0.00  0.00    +0.229 C 
BRANCH  14  15
ATOM     15  O   UNL     1       2.419   0.646  23.127  0.00  0.00    -0.333 OA
BRANCH  15  16
ATOM     16  C   UNL     1       2.974   0.336  22.602  0.00  0.00    +0.257 C 
BRANCH  16  17
ATOM     17  C   UNL     1       3.780   0.455  22.735  0.00  0.00    +0.394 C 
ATOM     18  O   UNL     1       4.220  -0.111  23.142  0.00  0.00    -0.243 OA
ATOM     19  O   UNL     1       4.145   1.142  22.459  0.00  0.00    -0.243 OA
ENDBRANCH  16  17
ENDBRANCH  15  16
ENDBRANCH  14  15
ENDBRANCH  12  14
ENDBRANCH  10  11
ENDBRANCH   7   8
TORSDOF 8
ENDMDL
