REMARK  Name = 
REMARK  6 active torsions:
REMARK  status: ('A' for Active; 'I' for Inactive)
REMARK    1  A    between atoms: C_2  and  N_4
REMARK    2  A    between atoms: N_7  and  C_8
REMARK    3  A    between atoms: C_8  and  C_9
REMARK    4  A    between atoms: C_11  and  C_12
REMARK    5  A    between atoms: C_12  and  C_13
REMARK    6  A    between atoms: N_18  and  C_21
REMARK                            x       y       z     vdW  Elec       q    Type
REMARK                         _______ _______ _______ _____ _____    ______ ____
ROOT
ATOM      9  C   UNL     1       3.805 -10.142   0.000  0.00  0.00    +0.170 C 
ATOM     10  O   UNL     1       4.559  -9.806   0.000  0.00  0.00    -0.351 OA
ATOM     11  C   UNL     1       5.111 -10.419   0.000  0.00  0.00    +0.157 C 
ATOM     27  C   UNL     1       4.698 -11.134   0.000  0.00  0.00    +0.212 C 
ATOM     28  O   UNL     1       5.034 -11.887   0.000  0.00  0.00    -0.218 OA
ATOM     29  C   UNL     1       3.891 -10.962   0.000  0.00  0.00    +0.213 C 
ATOM     30  O   UNL     1       3.278 -11.514   0.000  0.00  0.00    -0.218 OA
ENDROOT
BRANCH   9   8
ATOM      8  C   UNL     1       3.091  -9.729   0.000  0.00  0.00    +0.149 C 
BRANCH   8   7
ATOM      4  N   UNL     1       0.947 -10.142   0.000  0.00  0.00    -0.189 NA
ATOM      5  C   UNL     1       1.662  -9.729   0.000  0.00  0.00    +0.339 C 
ATOM      6  O   UNL     1       1.662  -8.904   0.000  0.00  0.00    -0.249 OA
ATOM      7  N   UNL     1       2.376 -10.142   0.000  0.00  0.00    -0.185 NA
BRANCH   4   2
ATOM      1  C   UNL     1      -0.482 -10.142   0.000  0.00  0.00    +0.023 C 
ATOM      2  C   UNL     1       0.233  -9.729   0.000  0.00  0.00    +0.097 C 
ATOM      3  C   UNL     1       0.233  -8.904   0.000  0.00  0.00    +0.023 C 
ENDBRANCH   4   2
ENDBRANCH   8   7
ENDBRANCH   9   8
BRANCH  11  12
ATOM     12  C   UNL     1       5.931 -10.333   0.000  0.00  0.00    +0.117 C 
BRANCH  12  13
ATOM     13  C   UNL     1       6.267  -9.579   0.000  0.00  0.00    +0.228 C 
ATOM     14  O   UNL     1       5.782  -8.912   0.000  0.00  0.00    -0.275 OA
ATOM     15  N   UNL     1       7.087  -9.493   0.000  0.00  0.00    -0.276 N 
ATOM     16  C   UNL     1       7.423  -8.739   0.000  0.00  0.00    +0.115 C 
ATOM     17  C   UNL     1       8.243  -8.653   0.000  0.00  0.00    +0.112 C 
ATOM     18  N   UNL     1       8.728  -9.321   0.000  0.00  0.00    -0.304 N 
ATOM     19  C   UNL     1       8.393 -10.074   0.000  0.00  0.00    +0.112 C 
ATOM     20  C   UNL     1       7.572 -10.161   0.000  0.00  0.00    +0.115 C 
BRANCH  18  21
ATOM     21  C   UNL     1       9.549  -9.234   0.000  0.00  0.00    +0.048 A 
ATOM     22  C   UNL     1       9.884  -8.481   0.000  0.00  0.00    +0.015 A 
ATOM     23  C   UNL     1      10.705  -8.395   0.000  0.00  0.00    +0.001 A 
ATOM     24  C   UNL     1      11.190  -9.062   0.000  0.00  0.00    +0.000 A 
ATOM     25  C   UNL     1      10.854  -9.816   0.000  0.00  0.00    +0.001 A 
ATOM     26  C   UNL     1      10.034  -9.902   0.000  0.00  0.00    +0.015 A 
ENDBRANCH  18  21
ENDBRANCH  12  13
ENDBRANCH  11  12
TORSDOF 6
