MODEL 1
REMARK VINA RESULT:     -16.8      0.000      0.000
REMARK  Name = 
REMARK  4 active torsions:
REMARK  status: ('A' for Active; 'I' for Inactive)
REMARK    1  A    between atoms: C_2  and  O_5
REMARK    2  A    between atoms: O_5  and  C_6
REMARK    3  A    between atoms: C_9  and  C_12
REMARK    4  A    between atoms: N_24  and  C_25
REMARK                            x       y       z     vdW  Elec       q    Type
REMARK                         _______ _______ _______ _____ _____    ______ ____
ROOT
ATOM     12  C   UNL     1      -4.394   0.857  24.924  0.00  0.00    +0.056 A 
ATOM     13  C   UNL     1      -5.207   0.954  25.033  0.00  0.00    +0.006 A 
ATOM     14  C   UNL     1      -5.515   1.703  25.190  0.00  0.00    +0.013 A 
ATOM     15  C   UNL     1      -5.011   2.354  25.239  0.00  0.00    +0.041 A 
ATOM     16  C   UNL     1      -5.028   3.261  25.388  0.00  0.00    +0.058 C 
ATOM     17  C   UNL     1      -5.471   3.788  25.525  0.00  0.00    +0.011 C 
ATOM     18  C   UNL     1      -4.670   3.688  25.417  0.00  0.00    +0.043 C 
ATOM     19  C   UNL     1      -3.690   3.770  25.318  0.00  0.00    +0.097 C 
ATOM     20  N   UNL     1      -3.498   2.971  25.166  0.00  0.00    -0.262 N 
ATOM     21  C   UNL     1      -4.083   3.356  25.296  0.00  0.00    +0.101 C 
ATOM     22  C   UNL     1      -3.032   2.309  25.005  0.00  0.00    +0.323 C 
ATOM     23  O   UNL     1      -3.385   1.566  24.924  0.00  0.00    -0.251 OA
ATOM     24  N   UNL     1      -2.216   2.389  24.924  0.00  0.00    -0.190 NA
ATOM     31  C   UNL     1      -4.642   2.741  25.259  0.00  0.00    +0.110 C 
ATOM     32  N   UNL     1      -4.198   2.257  25.130  0.00  0.00    -0.299 N 
ATOM     33  C   UNL     1      -3.890   1.508  24.973  0.00  0.00    +0.261 A 
ATOM     34  O   UNL     1      -3.153   1.165  24.832  0.00  0.00    -0.267 OA
ENDROOT
BRANCH  12   9
ATOM      6  C   UNL     1      -3.473  -1.391  24.455  0.00  0.00    +0.147 A 
ATOM      7  C   UNL     1      -3.709  -0.905  23.832  0.00  0.00    +0.037 A 
ATOM      8  C   UNL     1      -4.016  -0.155  23.988  0.00  0.00    +0.003 A 
ATOM      9  C   UNL     1      -4.087   0.108  24.767  0.00  0.00    +0.005 A 
ATOM     10  C   UNL     1      -3.851  -0.380  25.390  0.00  0.00    +0.003 A 
ATOM     11  C   UNL     1      -3.544  -1.129  25.234  0.00  0.00    +0.037 A 
BRANCH   6   5
ATOM      5  O   UNL     1      -3.165  -2.142  24.298  0.00  0.00    -0.404 OA
BRANCH   5   2
ATOM      1  F   UNL     1      -4.025  -3.487  24.711  0.00  0.00    -0.133 F 
ATOM      2  C   UNL     1      -3.595  -2.814  24.504  0.00  0.00    +0.575 C 
ATOM      3  F   UNL     1      -4.022  -2.757  23.801  0.00  0.00    -0.133 F 
ATOM      4  F   UNL     1      -3.168  -2.871  25.207  0.00  0.00    -0.133 F 
ENDBRANCH   5   2
ENDBRANCH   6   5
ENDBRANCH  12   9
BRANCH  24  25
ATOM     25  C   UNL     1      -1.750   1.726  24.763  0.00  0.00    +0.097 C 
ATOM     26  C   UNL     1      -1.597   1.510  23.981  0.00  0.00    +0.022 C 
ATOM     27  C   UNL     1      -1.132   0.848  23.821  0.00  0.00    +0.002 C 
ATOM     28  C   UNL     1      -0.819   0.402  24.442  0.00  0.00    +0.000 C 
ATOM     29  C   UNL     1      -0.972   0.619  25.222  0.00  0.00    +0.002 C 
ATOM     30  C   UNL     1      -1.437   1.281  25.384  0.00  0.00    +0.022 C 
ENDBRANCH  24  25
TORSDOF 4
ENDMDL
MODEL 2
REMARK VINA RESULT:     -16.4      2.552      4.262
REMARK  Name = 
REMARK  4 active torsions:
REMARK  status: ('A' for Active; 'I' for Inactive)
REMARK    1  A    between atoms: C_2  and  O_5
REMARK    2  A    between atoms: O_5  and  C_6
REMARK    3  A    between atoms: C_9  and  C_12
REMARK    4  A    between atoms: N_24  and  C_25
REMARK                            x       y       z     vdW  Elec       q    Type
REMARK                         _______ _______ _______ _____ _____    ______ ____
ROOT
ATOM     12  C   UNL     1      -3.590   0.120  24.268  0.00  0.00    +0.056 A 
ATOM     13  C   UNL     1      -4.305  -0.264  24.118  0.00  0.00    +0.006 A 
ATOM     14  C   UNL     1      -4.345  -1.087  24.147  0.00  0.00    +0.013 A 
ATOM     15  C   UNL     1      -3.670  -1.527  24.326  0.00  0.00    +0.041 A 
ATOM     16  C   UNL     1      -3.392  -2.396  24.432  0.00  0.00    +0.058 C 
ATOM     17  C   UNL     1      -3.628  -3.057  24.407  0.00  0.00    +0.011 C 
ATOM     18  C   UNL     1      -2.924  -2.674  24.555  0.00  0.00    +0.043 C 
ATOM     19  C   UNL     1      -1.997  -2.401  24.760  0.00  0.00    +0.097 C 
ATOM     20  N   UNL     1      -2.079  -1.572  24.702  0.00  0.00    -0.262 N 
ATOM     21  C   UNL     1      -2.492  -2.148  24.632  0.00  0.00    +0.101 C 
ATOM     22  C   UNL     1      -1.867  -0.774  24.714  0.00  0.00    +0.323 C 
ATOM     23  O   UNL     1      -2.431  -0.194  24.554  0.00  0.00    -0.251 OA
ATOM     24  N   UNL     1      -1.090  -0.558  24.887  0.00  0.00    -0.190 NA
ATOM     31  C   UNL     1      -3.206  -1.763  24.446  0.00  0.00    +0.110 C 
ATOM     32  N   UNL     1      -2.955  -1.142  24.476  0.00  0.00    -0.299 N 
ATOM     33  C   UNL     1      -2.916  -0.319  24.447  0.00  0.00    +0.261 A 
ATOM     34  O   UNL     1      -2.349   0.271  24.552  0.00  0.00    -0.267 OA
ENDROOT
BRANCH  12   9
ATOM      6  C   UNL     1      -3.474   2.590  24.181  0.00  0.00    +0.147 A 
ATOM      7  C   UNL     1      -3.319   2.147  23.503  0.00  0.00    +0.037 A 
ATOM      8  C   UNL     1      -3.358   1.323  23.532  0.00  0.00    +0.003 A 
ATOM      9  C   UNL     1      -3.551   0.943  24.238  0.00  0.00    +0.005 A 
ATOM     10  C   UNL     1      -3.706   1.388  24.916  0.00  0.00    +0.003 A 
ATOM     11  C   UNL     1      -3.667   2.211  24.888  0.00  0.00    +0.037 A 
BRANCH   6   5
ATOM      5  O   UNL     1      -3.435   3.415  24.152  0.00  0.00    -0.404 OA
BRANCH   5   2
ATOM      1  F   UNL     1      -3.921   4.308  25.451  0.00  0.00    -0.133 F 
ATOM      2  C   UNL     1      -3.679   3.861  24.801  0.00  0.00    +0.575 C 
ATOM      3  F   UNL     1      -4.454   3.842  24.523  0.00  0.00    -0.133 F 
ATOM      4  F   UNL     1      -2.902   3.880  25.079  0.00  0.00    -0.133 F 
ENDBRANCH   5   2
ENDBRANCH   6   5
ENDBRANCH  12   9
BRANCH  24  25
ATOM     25  C   UNL     1      -0.877   0.240  24.899  0.00  0.00    +0.097 C 
ATOM     26  C   UNL     1      -0.940   0.673  25.600  0.00  0.00    +0.022 C 
ATOM     27  C   UNL     1      -0.727   1.469  25.611  0.00  0.00    +0.002 C 
ATOM     28  C   UNL     1      -0.451   1.834  24.924  0.00  0.00    +0.000 C 
ATOM     29  C   UNL     1      -0.389   1.401  24.225  0.00  0.00    +0.002 C 
ATOM     30  C   UNL     1      -0.601   0.604  24.212  0.00  0.00    +0.022 C 
ENDBRANCH  24  25
TORSDOF 4
ENDMDL
MODEL 3
REMARK VINA RESULT:     -16.1      1.112      2.797
REMARK  Name = 
REMARK  4 active torsions:
REMARK  status: ('A' for Active; 'I' for Inactive)
REMARK    1  A    between atoms: C_2  and  O_5
REMARK    2  A    between atoms: O_5  and  C_6
REMARK    3  A    between atoms: C_9  and  C_12
REMARK    4  A    between atoms: N_24  and  C_25
REMARK                            x       y       z     vdW  Elec       q    Type
REMARK                         _______ _______ _______ _____ _____    ______ ____
ROOT
ATOM     12  C   UNL     1      -2.474   1.460  24.771  0.00  0.00    +0.056 A 
ATOM     13  C   UNL     1      -1.658   1.377  24.678  0.00  0.00    +0.006 A 
ATOM     14  C   UNL     1      -1.162   2.028  24.789  0.00  0.00    +0.013 A 
ATOM     15  C   UNL     1      -1.483   2.760  24.992  0.00  0.00    +0.041 A 
ATOM     16  C   UNL     1      -1.229   3.624  25.175  0.00  0.00    +0.058 C 
ATOM     17  C   UNL     1      -0.660   4.033  25.221  0.00  0.00    +0.011 C 
ATOM     18  C   UNL     1      -1.466   4.110  25.311  0.00  0.00    +0.043 C 
ATOM     19  C   UNL     1      -2.398   4.401  25.464  0.00  0.00    +0.097 C 
ATOM     20  N   UNL     1      -2.794   3.678  25.327  0.00  0.00    -0.262 N 
ATOM     21  C   UNL     1      -2.124   3.920  25.325  0.00  0.00    +0.101 C 
ATOM     22  C   UNL     1      -3.420   3.145  25.257  0.00  0.00    +0.323 C 
ATOM     23  O   UNL     1      -3.271   2.358  25.056  0.00  0.00    -0.251 OA
ATOM     24  N   UNL     1      -4.194   3.398  25.386  0.00  0.00    -0.190 NA
ATOM     31  C   UNL     1      -1.741   3.210  25.122  0.00  0.00    +0.110 C 
ATOM     32  N   UNL     1      -2.299   2.842  25.084  0.00  0.00    -0.299 N 
ATOM     33  C   UNL     1      -2.794   2.192  24.974  0.00  0.00    +0.261 A 
ATOM     34  O   UNL     1      -3.601   2.024  25.006  0.00  0.00    -0.267 OA
ENDROOT
BRANCH  12   9
ATOM      6  C   UNL     1      -3.957  -0.493  24.441  0.00  0.00    +0.147 A 
ATOM      7  C   UNL     1      -3.778  -0.000  23.804  0.00  0.00    +0.037 A 
ATOM      8  C   UNL     1      -3.283   0.651  23.914  0.00  0.00    +0.003 A 
ATOM      9  C   UNL     1      -2.968   0.809  24.660  0.00  0.00    +0.005 A 
ATOM     10  C   UNL     1      -3.148   0.316  25.297  0.00  0.00    +0.003 A 
ATOM     11  C   UNL     1      -3.643  -0.335  25.187  0.00  0.00    +0.037 A 
BRANCH   6   5
ATOM      5  O   UNL     1      -4.453  -1.145  24.331  0.00  0.00    -0.404 OA
BRANCH   5   2
ATOM      1  F   UNL     1      -3.816  -2.593  23.864  0.00  0.00    -0.133 F 
ATOM      2  C   UNL     1      -4.135  -1.868  24.099  0.00  0.00    +0.575 C 
ATOM      3  F   UNL     1      -4.003  -2.065  24.888  0.00  0.00    -0.133 F 
ATOM      4  F   UNL     1      -4.267  -1.672  23.308  0.00  0.00    -0.133 F 
ENDBRANCH   5   2
ENDBRANCH   6   5
ENDBRANCH  12   9
BRANCH  24  25
ATOM     25  C   UNL     1      -4.820   2.865  25.315  0.00  0.00    +0.097 C 
ATOM     26  C   UNL     1      -5.171   2.736  24.579  0.00  0.00    +0.022 C 
ATOM     27  C   UNL     1      -5.797   2.203  24.509  0.00  0.00    +0.002 C 
ATOM     28  C   UNL     1      -6.071   1.799  25.174  0.00  0.00    +0.000 C 
ATOM     29  C   UNL     1      -5.720   1.928  25.909  0.00  0.00    +0.002 C 
ATOM     30  C   UNL     1      -5.095   2.461  25.980  0.00  0.00    +0.022 C 
ENDBRANCH  24  25
TORSDOF 4
ENDMDL
MODEL 4
REMARK VINA RESULT:     -15.8      1.672      2.938
REMARK  Name = 
REMARK  4 active torsions:
REMARK  status: ('A' for Active; 'I' for Inactive)
REMARK    1  A    between atoms: C_2  and  O_5
REMARK    2  A    between atoms: O_5  and  C_6
REMARK    3  A    between atoms: C_9  and  C_12
REMARK    4  A    between atoms: N_24  and  C_25
REMARK                            x       y       z     vdW  Elec       q    Type
REMARK                         _______ _______ _______ _____ _____    ______ ____
ROOT
ATOM     12  C   UNL     1      -2.716   1.910  24.852  0.00  0.00    +0.056 A 
ATOM     13  C   UNL     1      -2.627   2.730  24.887  0.00  0.00    +0.006 A 
ATOM     14  C   UNL     1      -3.284   3.212  25.014  0.00  0.00    +0.013 A 
ATOM     15  C   UNL     1      -4.031   2.874  25.106  0.00  0.00    +0.041 A 
ATOM     16  C   UNL     1      -4.907   3.109  25.252  0.00  0.00    +0.058 C 
ATOM     17  C   UNL     1      -5.318   3.670  25.347  0.00  0.00    +0.011 C 
ATOM     18  C   UNL     1      -5.403   2.861  25.312  0.00  0.00    +0.043 C 
ATOM     19  C   UNL     1      -5.705   1.920  25.302  0.00  0.00    +0.097 C 
ATOM     20  N   UNL     1      -4.974   1.540  25.169  0.00  0.00    -0.262 N 
ATOM     21  C   UNL     1      -5.215   2.205  25.245  0.00  0.00    +0.101 C 
ATOM     22  C   UNL     1      -4.436   0.924  25.052  0.00  0.00    +0.323 C 
ATOM     23  O   UNL     1      -3.635   1.091  24.942  0.00  0.00    -0.251 OA
ATOM     24  N   UNL     1      -4.700   0.143  25.046  0.00  0.00    -0.190 NA
ATOM     31  C   UNL     1      -4.490   2.606  25.159  0.00  0.00    +0.110 C 
ATOM     32  N   UNL     1      -4.121   2.055  25.071  0.00  0.00    -0.299 N 
ATOM     33  C   UNL     1      -3.463   1.573  24.944  0.00  0.00    +0.261 A 
ATOM     34  O   UNL     1      -3.298   0.768  24.872  0.00  0.00    -0.267 OA
ENDROOT
BRANCH  12   9
ATOM      6  C   UNL     1      -0.744   0.467  24.469  0.00  0.00    +0.147 A 
ATOM      7  C   UNL     1      -0.965   0.666  25.238  0.00  0.00    +0.037 A 
ATOM      8  C   UNL     1      -1.623   1.147  25.366  0.00  0.00    +0.003 A 
ATOM      9  C   UNL     1      -2.059   1.429  24.725  0.00  0.00    +0.005 A 
ATOM     10  C   UNL     1      -1.837   1.229  23.956  0.00  0.00    +0.003 A 
ATOM     11  C   UNL     1      -1.179   0.748  23.827  0.00  0.00    +0.037 A 
BRANCH   6   5
ATOM      5  O   UNL     1      -0.085  -0.015  24.341  0.00  0.00    -0.404 OA
BRANCH   5   2
ATOM      1  F   UNL     1       0.522  -0.193  22.817  0.00  0.00    -0.133 F 
ATOM      2  C   UNL     1       0.219  -0.103  23.580  0.00  0.00    +0.575 C 
ATOM      3  F   UNL     1       0.637   0.602  23.664  0.00  0.00    -0.133 F 
ATOM      4  F   UNL     1      -0.201  -0.809  23.495  0.00  0.00    -0.133 F 
ENDBRANCH   5   2
ENDBRANCH   6   5
ENDBRANCH  12   9
BRANCH  24  25
ATOM     25  C   UNL     1      -4.162  -0.473  24.929  0.00  0.00    +0.097 C 
ATOM     26  C   UNL     1      -4.010  -0.748  24.166  0.00  0.00    +0.022 C 
ATOM     27  C   UNL     1      -3.473  -1.363  24.049  0.00  0.00    +0.002 C 
ATOM     28  C   UNL     1      -3.088  -1.704  24.696  0.00  0.00    +0.000 C 
ATOM     29  C   UNL     1      -3.241  -1.428  25.458  0.00  0.00    +0.002 C 
ATOM     30  C   UNL     1      -3.778  -0.813  25.575  0.00  0.00    +0.022 C 
ENDBRANCH  24  25
TORSDOF 4
ENDMDL
MODEL 5
REMARK VINA RESULT:     -15.5      1.305      2.797
REMARK  Name = 
REMARK  4 active torsions:
REMARK  status: ('A' for Active; 'I' for Inactive)
REMARK    1  A    between atoms: C_2  and  O_5
REMARK    2  A    between atoms: O_5  and  C_6
REMARK    3  A    between atoms: C_9  and  C_12
REMARK    4  A    between atoms: N_24  and  C_25
REMARK                            x       y       z     vdW  Elec       q    Type
REMARK                         _______ _______ _______ _____ _____    ______ ____
ROOT
ATOM     12  C   UNL     1      -1.164   1.554  25.208  0.00  0.00    +0.056 A 
ATOM     13  C   UNL     1      -0.511   2.022  25.394  0.00  0.00    +0.006 A 
ATOM     14  C   UNL     1      -0.591   2.841  25.445  0.00  0.00    +0.013 A 
ATOM     15  C   UNL     1      -1.325   3.193  25.311  0.00  0.00    +0.041 A 
ATOM     16  C   UNL     1      -1.728   4.018  25.290  0.00  0.00    +0.058 C 
ATOM     17  C   UNL     1      -1.590   4.701  25.378  0.00  0.00    +0.011 C 
ATOM     18  C   UNL     1      -2.233   4.235  25.196  0.00  0.00    +0.043 C 
ATOM     19  C   UNL     1      -3.114   3.851  24.967  0.00  0.00    +0.097 C 
ATOM     20  N   UNL     1      -2.912   3.041  24.944  0.00  0.00    -0.262 N 
ATOM     21  C   UNL     1      -2.586   3.662  25.069  0.00  0.00    +0.101 C 
ATOM     22  C   UNL     1      -3.007   2.226  24.854  0.00  0.00    +0.323 C 
ATOM     23  O   UNL     1      -2.361   1.721  24.956  0.00  0.00    -0.251 OA
ATOM     24  N   UNL     1      -3.746   1.915  24.663  0.00  0.00    -0.190 NA
ATOM     31  C   UNL     1      -1.821   3.368  25.215  0.00  0.00    +0.110 C 
ATOM     32  N   UNL     1      -1.979   2.724  25.125  0.00  0.00    -0.299 N 
ATOM     33  C   UNL     1      -1.898   1.905  25.074  0.00  0.00    +0.261 A 
ATOM     34  O   UNL     1      -2.375   1.251  24.913  0.00  0.00    -0.267 OA
ENDROOT
BRANCH  12   9
ATOM      6  C   UNL     1      -0.920  -0.904  25.054  0.00  0.00    +0.147 A 
ATOM      7  C   UNL     1      -1.146  -0.557  25.767  0.00  0.00    +0.037 A 
ATOM      8  C   UNL     1      -1.228   0.264  25.819  0.00  0.00    +0.003 A 
ATOM      9  C   UNL     1      -1.083   0.735  25.158  0.00  0.00    +0.005 A 
ATOM     10  C   UNL     1      -0.857   0.387  24.444  0.00  0.00    +0.003 A 
ATOM     11  C   UNL     1      -0.775  -0.433  24.393  0.00  0.00    +0.037 A 
BRANCH   6   5
ATOM      5  O   UNL     1      -0.838  -1.724  25.003  0.00  0.00    -0.404 OA
BRANCH   5   2
ATOM      1  F   UNL     1      -2.001  -2.622  24.253  0.00  0.00    -0.133 F 
ATOM      2  C   UNL     1      -1.419  -2.172  24.627  0.00  0.00    +0.575 C 
ATOM      3  F   UNL     1      -1.065  -2.022  23.898  0.00  0.00    -0.133 F 
ATOM      4  F   UNL     1      -1.774  -2.323  25.357  0.00  0.00    -0.133 F 
ENDBRANCH   5   2
ENDBRANCH   6   5
ENDBRANCH  12   9
BRANCH  24  25
ATOM     25  C   UNL     1      -3.841   1.101  24.573  0.00  0.00    +0.097 C 
ATOM     26  C   UNL     1      -3.718   0.749  23.836  0.00  0.00    +0.022 C 
ATOM     27  C   UNL     1      -3.813  -0.065  23.747  0.00  0.00    +0.002 C 
ATOM     28  C   UNL     1      -4.032  -0.529  24.394  0.00  0.00    +0.000 C 
ATOM     29  C   UNL     1      -4.155  -0.177  25.130  0.00  0.00    +0.002 C 
ATOM     30  C   UNL     1      -4.060   0.637  25.220  0.00  0.00    +0.022 C 
ENDBRANCH  24  25
TORSDOF 4
ENDMDL
MODEL 6
REMARK VINA RESULT:     -15.5      2.719      4.627
REMARK  Name = 
REMARK  4 active torsions:
REMARK  status: ('A' for Active; 'I' for Inactive)
REMARK    1  A    between atoms: C_2  and  O_5
REMARK    2  A    between atoms: O_5  and  C_6
REMARK    3  A    between atoms: C_9  and  C_12
REMARK    4  A    between atoms: N_24  and  C_25
REMARK                            x       y       z     vdW  Elec       q    Type
REMARK                         _______ _______ _______ _____ _____    ______ ____
ROOT
ATOM     12  C   UNL     1      -1.811   0.924  24.938  0.00  0.00    +0.056 A 
ATOM     13  C   UNL     1      -1.321   0.265  25.014  0.00  0.00    +0.006 A 
ATOM     14  C   UNL     1      -1.633  -0.494  24.928  0.00  0.00    +0.013 A 
ATOM     15  C   UNL     1      -2.436  -0.593  24.767  0.00  0.00    +0.041 A 
ATOM     16  C   UNL     1      -3.059  -1.253  24.623  0.00  0.00    +0.058 C 
ATOM     17  C   UNL     1      -3.123  -1.951  24.589  0.00  0.00    +0.011 C 
ATOM     18  C   UNL     1      -3.604  -1.298  24.514  0.00  0.00    +0.043 C 
ATOM     19  C   UNL     1      -4.335  -0.645  24.390  0.00  0.00    +0.097 C 
ATOM     20  N   UNL     1      -3.908   0.065  24.496  0.00  0.00    -0.262 N 
ATOM     21  C   UNL     1      -3.776  -0.634  24.501  0.00  0.00    +0.101 C 
ATOM     22  C   UNL     1      -3.765   0.876  24.550  0.00  0.00    +0.323 C 
ATOM     23  O   UNL     1      -3.003   1.151  24.709  0.00  0.00    -0.251 OA
ATOM     24  N   UNL     1      -4.383   1.412  24.445  0.00  0.00    -0.190 NA
ATOM     31  C   UNL     1      -2.960  -0.601  24.663  0.00  0.00    +0.110 C 
ATOM     32  N   UNL     1      -2.926   0.067  24.691  0.00  0.00    -0.299 N 
ATOM     33  C   UNL     1      -2.613   0.825  24.776  0.00  0.00    +0.261 A 
ATOM     34  O   UNL     1      -2.880   1.605  24.748  0.00  0.00    -0.267 OA
ENDROOT
BRANCH  12   9
ATOM      6  C   UNL     1      -0.870   3.199  25.196  0.00  0.00    +0.147 A 
ATOM      7  C   UNL     1      -0.889   2.843  24.452  0.00  0.00    +0.037 A 
ATOM      8  C   UNL     1      -1.203   2.084  24.366  0.00  0.00    +0.003 A 
ATOM      9  C   UNL     1      -1.497   1.682  25.023  0.00  0.00    +0.005 A 
ATOM     10  C   UNL     1      -1.478   2.039  25.767  0.00  0.00    +0.003 A 
ATOM     11  C   UNL     1      -1.165   2.797  25.854  0.00  0.00    +0.037 A 
BRANCH   6   5
ATOM      5  O   UNL     1      -0.557   3.958  25.283  0.00  0.00    -0.404 OA
BRANCH   5   2
ATOM      1  F   UNL     1      -1.427   5.269  24.790  0.00  0.00    -0.133 F 
ATOM      2  C   UNL     1      -0.991   4.613  25.035  0.00  0.00    +0.575 C 
ATOM      3  F   UNL     1      -0.637   4.569  24.293  0.00  0.00    -0.133 F 
ATOM      4  F   UNL     1      -1.346   4.657  25.779  0.00  0.00    -0.133 F 
ENDBRANCH   5   2
ENDBRANCH   6   5
ENDBRANCH  12   9
BRANCH  24  25
ATOM     25  C   UNL     1      -4.239   2.223  24.499  0.00  0.00    +0.097 C 
ATOM     26  C   UNL     1      -4.018   2.649  23.827  0.00  0.00    +0.022 C 
ATOM     27  C   UNL     1      -3.874   3.459  23.881  0.00  0.00    +0.002 C 
ATOM     28  C   UNL     1      -3.952   3.845  24.607  0.00  0.00    +0.000 C 
ATOM     29  C   UNL     1      -4.173   3.419  25.278  0.00  0.00    +0.002 C 
ATOM     30  C   UNL     1      -4.316   2.609  25.224  0.00  0.00    +0.022 C 
ENDBRANCH  24  25
TORSDOF 4
ENDMDL
