MODEL 1
REMARK VINA RESULT:     -10.7      0.000      0.000
REMARK  Name = 
REMARK  9 active torsions:
REMARK  status: ('A' for Active; 'I' for Inactive)
REMARK    1  A    between atoms: C_2  and  C_4
REMARK    2  A    between atoms: C_6  and  C_7
REMARK    3  A    between atoms: C_7  and  C_8
REMARK    4  A    between atoms: N_10  and  C_12
REMARK    5  A    between atoms: C_12  and  C_13
REMARK    6  A    between atoms: C_22  and  C_23
REMARK    7  A    between atoms: C_23  and  N_24
REMARK    8  A    between atoms: N_24  and  S_25
REMARK    9  A    between atoms: S_25  and  C_28
REMARK                            x       y       z     vdW  Elec       q    Type
REMARK                         _______ _______ _______ _____ _____    ______ ____
ROOT
ATOM      4  C   UNL     1      -3.450   1.481  24.126  0.00  0.00    +0.006 C 
ATOM      5  C   UNL     1      -3.531   2.268  24.358  0.00  0.00    +0.005 C 
ATOM      6  C   UNL     1      -4.174   2.495  24.823  0.00  0.00    +0.027 C 
ATOM     19  C   UNL     1      -4.734   1.936  25.055  0.00  0.00    -0.048 C 
ATOM     20  C   UNL     1      -5.376   2.164  25.520  0.00  0.00    +0.026 C 
ATOM     21  C   UNL     1      -4.651   1.149  24.823  0.00  0.00    -0.033 C 
ATOM     22  C   UNL     1      -4.010   0.922  24.358  0.00  0.00    +0.041 C 
ENDROOT
BRANCH   4   2
ATOM      1  C   UNL     1      -2.104   1.013  24.019  0.00  0.00    +0.000 C 
ATOM      2  C   UNL     1      -2.807   1.253  23.660  0.00  0.00    +0.000 C 
ATOM      3  C   UNL     1      -2.867   1.266  22.838  0.00  0.00    +0.000 C 
ENDBRANCH   4   2
BRANCH   6   7
ATOM      7  C   UNL     1      -4.256   3.283  25.056  0.00  0.00    +0.089 C 
BRANCH   7   8
ATOM      8  C   UNL     1      -3.677   3.637  25.526  0.00  0.00    +0.226 C 
ATOM      9  O   UNL     1      -3.499   3.323  26.268  0.00  0.00    -0.275 OA
ATOM     10  N   UNL     1      -3.276   4.304  25.253  0.00  0.00    -0.274 N 
ATOM     11  C   UNL     1      -3.453   4.618  24.511  0.00  0.00    +0.115 C 
BRANCH  10  12
ATOM     12  C   UNL     1      -2.697   4.657  25.724  0.00  0.00    +0.122 C 
BRANCH  12  13
ATOM     13  C   UNL     1      -1.956   4.832  25.404  0.00  0.00    +0.017 A 
ATOM     14  C   UNL     1      -1.365   4.257  25.395  0.00  0.00    +0.001 A 
ATOM     15  C   UNL     1      -0.624   4.431  25.076  0.00  0.00    +0.020 A 
ATOM     16  C   UNL     1      -0.476   5.181  24.765  0.00  0.00    +0.099 A 
ATOM     17  N   UNL     1      -1.067   5.756  24.774  0.00  0.00    -0.243 NA
ATOM     18  C   UNL     1      -1.808   5.582  25.094  0.00  0.00    +0.096 A 
ENDBRANCH  12  13
ENDBRANCH  10  12
ENDBRANCH   7   8
ENDBRANCH   6   7
BRANCH  22  23
ATOM     23  C   UNL     1      -3.927   0.134  24.125  0.00  0.00    +0.120 C 
BRANCH  23  24
ATOM     24  N   UNL     1      -4.392  -0.450  24.475  0.00  0.00    -0.077 NA
BRANCH  24  25
ATOM     25  S   UNL     1      -4.153  -1.239  24.447  0.00  0.00    +0.077 S 
ATOM     26  O   UNL     1      -3.945  -1.205  25.245  0.00  0.00    -0.152 OA
ATOM     27  O   UNL     1      -4.361  -1.274  23.649  0.00  0.00    -0.152 OA
BRANCH  25  28
ATOM     28  C   UNL     1      -3.914  -2.028  24.419  0.00  0.00    +0.124 A 
ATOM     29  C   UNL     1      -3.381  -2.318  24.978  0.00  0.00    +0.020 A 
ATOM     30  C   UNL     1      -3.143  -3.107  24.949  0.00  0.00    +0.001 A 
ATOM     31  C   UNL     1      -3.437  -3.607  24.362  0.00  0.00    +0.000 A 
ATOM     32  C   UNL     1      -3.970  -3.317  23.803  0.00  0.00    +0.001 A 
ATOM     33  C   UNL     1      -4.209  -2.527  23.832  0.00  0.00    +0.020 A 
ENDBRANCH  25  28
ENDBRANCH  24  25
ENDBRANCH  23  24
ENDBRANCH  22  23
TORSDOF 9
ENDMDL
MODEL 2
REMARK VINA RESULT:      -9.7      1.447      5.777
REMARK  Name = 
REMARK  9 active torsions:
REMARK  status: ('A' for Active; 'I' for Inactive)
REMARK    1  A    between atoms: C_2  and  C_4
REMARK    2  A    between atoms: C_6  and  C_7
REMARK    3  A    between atoms: C_7  and  C_8
REMARK    4  A    between atoms: N_10  and  C_12
REMARK    5  A    between atoms: C_12  and  C_13
REMARK    6  A    between atoms: C_22  and  C_23
REMARK    7  A    between atoms: C_23  and  N_24
REMARK    8  A    between atoms: N_24  and  S_25
REMARK    9  A    between atoms: S_25  and  C_28
REMARK                            x       y       z     vdW  Elec       q    Type
REMARK                         _______ _______ _______ _____ _____    ______ ____
ROOT
ATOM      4  C   UNL     1      -3.152   1.389  23.932  0.00  0.00    +0.006 C 
ATOM      5  C   UNL     1      -3.534   0.661  24.000  0.00  0.00    +0.005 C 
ATOM      6  C   UNL     1      -4.173   0.578  24.514  0.00  0.00    +0.027 C 
ATOM     19  C   UNL     1      -4.430   1.222  24.961  0.00  0.00    -0.048 C 
ATOM     20  C   UNL     1      -5.070   1.138  25.475  0.00  0.00    +0.026 C 
ATOM     21  C   UNL     1      -4.048   1.950  24.893  0.00  0.00    -0.033 C 
ATOM     22  C   UNL     1      -3.410   2.034  24.379  0.00  0.00    +0.041 C 
ENDROOT
BRANCH   4   2
ATOM      1  C   UNL     1      -1.760   1.229  23.652  0.00  0.00    +0.000 C 
ATOM      2  C   UNL     1      -2.512   1.473  23.417  0.00  0.00    +0.000 C 
ATOM      3  C   UNL     1      -2.625   1.800  22.668  0.00  0.00    +0.000 C 
ENDBRANCH   4   2
BRANCH   6   7
ATOM      7  C   UNL     1      -4.556  -0.150  24.582  0.00  0.00    +0.089 C 
BRANCH   7   8
ATOM      8  C   UNL     1      -4.188  -0.774  24.980  0.00  0.00    +0.226 C 
ATOM      9  O   UNL     1      -3.926  -0.671  25.755  0.00  0.00    -0.275 OA
ATOM     10  N   UNL     1      -4.083  -1.499  24.601  0.00  0.00    -0.274 N 
ATOM     11  C   UNL     1      -4.346  -1.601  23.825  0.00  0.00    +0.115 C 
BRANCH  10  12
ATOM     12  C   UNL     1      -3.716  -2.121  24.998  0.00  0.00    +0.122 C 
BRANCH  12  13
ATOM     13  C   UNL     1      -2.997  -2.419  24.723  0.00  0.00    +0.017 A 
ATOM     14  C   UNL     1      -2.289  -2.170  25.065  0.00  0.00    +0.001 A 
ATOM     15  C   UNL     1      -1.570  -2.467  24.790  0.00  0.00    +0.020 A 
ATOM     16  C   UNL     1      -1.560  -3.015  24.172  0.00  0.00    +0.099 A 
ATOM     17  N   UNL     1      -2.269  -3.264  23.830  0.00  0.00    -0.243 NA
ATOM     18  C   UNL     1      -2.988  -2.966  24.105  0.00  0.00    +0.096 A 
ENDBRANCH  12  13
ENDBRANCH  10  12
ENDBRANCH   7   8
ENDBRANCH   6   7
BRANCH  22  23
ATOM     23  C   UNL     1      -3.027   2.761  24.311  0.00  0.00    +0.120 C 
BRANCH  23  24
ATOM     24  N   UNL     1      -3.047   3.298  24.937  0.00  0.00    -0.077 NA
BRANCH  24  25
ATOM     25  S   UNL     1      -2.517   3.929  24.956  0.00  0.00    +0.077 S 
ATOM     26  O   UNL     1      -2.935   4.299  24.349  0.00  0.00    -0.152 OA
ATOM     27  O   UNL     1      -2.098   3.560  25.564  0.00  0.00    -0.152 OA
BRANCH  25  28
ATOM     28  C   UNL     1      -1.986   4.561  24.975  0.00  0.00    +0.124 A 
ATOM     29  C   UNL     1      -2.266   5.333  25.061  0.00  0.00    +0.020 A 
ATOM     30  C   UNL     1      -1.735   5.963  25.080  0.00  0.00    +0.001 A 
ATOM     31  C   UNL     1      -0.925   5.824  25.014  0.00  0.00    +0.000 A 
ATOM     32  C   UNL     1      -0.645   5.053  24.928  0.00  0.00    +0.001 A 
ATOM     33  C   UNL     1      -1.176   4.421  24.909  0.00  0.00    +0.020 A 
ENDBRANCH  25  28
ENDBRANCH  24  25
ENDBRANCH  23  24
ENDBRANCH  22  23
TORSDOF 9
ENDMDL
MODEL 3
REMARK VINA RESULT:      -9.1      3.561      5.305
REMARK  Name = 
REMARK  9 active torsions:
REMARK  status: ('A' for Active; 'I' for Inactive)
REMARK    1  A    between atoms: C_2  and  C_4
REMARK    2  A    between atoms: C_6  and  C_7
REMARK    3  A    between atoms: C_7  and  C_8
REMARK    4  A    between atoms: N_10  and  C_12
REMARK    5  A    between atoms: C_12  and  C_13
REMARK    6  A    between atoms: C_22  and  C_23
REMARK    7  A    between atoms: C_23  and  N_24
REMARK    8  A    between atoms: N_24  and  S_25
REMARK    9  A    between atoms: S_25  and  C_28
REMARK                            x       y       z     vdW  Elec       q    Type
REMARK                         _______ _______ _______ _____ _____    ______ ____
ROOT
ATOM      4  C   UNL     1      -0.930   1.383  24.371  0.00  0.00    +0.006 C 
ATOM      5  C   UNL     1      -0.261   0.946  24.165  0.00  0.00    +0.005 C 
ATOM      6  C   UNL     1      -0.331   0.140  24.003  0.00  0.00    +0.027 C 
ATOM     19  C   UNL     1      -1.068  -0.228  24.047  0.00  0.00    -0.048 C 
ATOM     20  C   UNL     1      -1.136  -1.034  23.885  0.00  0.00    +0.026 C 
ATOM     21  C   UNL     1      -1.736   0.210  24.253  0.00  0.00    -0.033 C 
ATOM     22  C   UNL     1      -1.667   1.015  24.415  0.00  0.00    +0.041 C 
ENDROOT
BRANCH   4   2
ATOM      1  C   UNL     1      -0.696   2.443  25.301  0.00  0.00    +0.000 C 
ATOM      2  C   UNL     1      -0.861   2.190  24.534  0.00  0.00    +0.000 C 
ATOM      3  C   UNL     1      -0.956   2.742  23.928  0.00  0.00    +0.000 C 
ENDBRANCH   4   2
BRANCH   6   7
ATOM      7  C   UNL     1       0.338  -0.298  23.797  0.00  0.00    +0.089 C 
BRANCH   7   8
ATOM      8  C   UNL     1       0.807  -0.059  23.161  0.00  0.00    +0.226 C 
ATOM      9  O   UNL     1       0.460   0.293  22.501  0.00  0.00    -0.275 OA
ATOM     10  N   UNL     1       1.624  -0.174  23.187  0.00  0.00    -0.274 N 
ATOM     11  C   UNL     1       1.971  -0.526  23.847  0.00  0.00    +0.115 C 
BRANCH  10  12
ATOM     12  C   UNL     1       2.093   0.065  22.551  0.00  0.00    +0.122 C 
BRANCH  12  13
ATOM     13  C   UNL     1       2.890   0.241  22.671  0.00  0.00    +0.017 A 
ATOM     14  C   UNL     1       3.141   1.027  22.692  0.00  0.00    +0.001 A 
ATOM     15  C   UNL     1       3.938   1.203  22.811  0.00  0.00    +0.020 A 
ATOM     16  C   UNL     1       4.485   0.593  22.911  0.00  0.00    +0.099 A 
ATOM     17  N   UNL     1       4.234  -0.193  22.890  0.00  0.00    -0.243 NA
ATOM     18  C   UNL     1       3.436  -0.369  22.770  0.00  0.00    +0.096 A 
ENDBRANCH  12  13
ENDBRANCH  10  12
ENDBRANCH   7   8
ENDBRANCH   6   7
BRANCH  22  23
ATOM     23  C   UNL     1      -2.335   1.454  24.622  0.00  0.00    +0.120 C 
BRANCH  23  24
ATOM     24  N   UNL     1      -3.088   1.140  24.497  0.00  0.00    -0.077 NA
BRANCH  24  25
ATOM     25  S   UNL     1      -3.754   1.562  24.738  0.00  0.00    +0.077 S 
ATOM     26  O   UNL     1      -3.668   1.263  25.502  0.00  0.00    -0.152 OA
ATOM     27  O   UNL     1      -3.841   1.861  23.974  0.00  0.00    -0.152 OA
BRANCH  25  28
ATOM     28  C   UNL     1      -4.422   1.984  24.979  0.00  0.00    +0.124 A 
ATOM     29  C   UNL     1      -4.357   2.784  25.171  0.00  0.00    +0.020 A 
ATOM     30  C   UNL     1      -5.024   3.205  25.412  0.00  0.00    +0.001 A 
ATOM     31  C   UNL     1      -5.756   2.827  25.461  0.00  0.00    +0.000 A 
ATOM     32  C   UNL     1      -5.820   2.027  25.269  0.00  0.00    +0.001 A 
ATOM     33  C   UNL     1      -5.153   1.605  25.028  0.00  0.00    +0.020 A 
ENDBRANCH  25  28
ENDBRANCH  24  25
ENDBRANCH  23  24
ENDBRANCH  22  23
TORSDOF 9
ENDMDL
MODEL 4
REMARK VINA RESULT:      -9.1      1.848      6.323
REMARK  Name = 
REMARK  9 active torsions:
REMARK  status: ('A' for Active; 'I' for Inactive)
REMARK    1  A    between atoms: C_2  and  C_4
REMARK    2  A    between atoms: C_6  and  C_7
REMARK    3  A    between atoms: C_7  and  C_8
REMARK    4  A    between atoms: N_10  and  C_12
REMARK    5  A    between atoms: C_12  and  C_13
REMARK    6  A    between atoms: C_22  and  C_23
REMARK    7  A    between atoms: C_23  and  N_24
REMARK    8  A    between atoms: N_24  and  S_25
REMARK    9  A    between atoms: S_25  and  C_28
REMARK                            x       y       z     vdW  Elec       q    Type
REMARK                         _______ _______ _______ _____ _____    ______ ____
ROOT
ATOM      4  C   UNL     1      -1.911   1.042  24.360  0.00  0.00    +0.006 C 
ATOM      5  C   UNL     1      -1.912   0.228  24.496  0.00  0.00    +0.005 C 
ATOM      6  C   UNL     1      -1.474  -0.084  25.121  0.00  0.00    +0.027 C 
ATOM     19  C   UNL     1      -1.037   0.416  25.610  0.00  0.00    -0.048 C 
ATOM     20  C   UNL     1      -0.600   0.102  26.236  0.00  0.00    +0.026 C 
ATOM     21  C   UNL     1      -1.037   1.229  25.474  0.00  0.00    -0.033 C 
ATOM     22  C   UNL     1      -1.474   1.542  24.849  0.00  0.00    +0.041 C 
ENDROOT
BRANCH   4   2
ATOM      1  C   UNL     1      -1.992   1.469  22.998  0.00  0.00    +0.000 C 
ATOM      2  C   UNL     1      -2.349   1.355  23.734  0.00  0.00    +0.000 C 
ATOM      3  C   UNL     1      -3.142   1.555  23.843  0.00  0.00    +0.000 C 
ENDBRANCH   4   2
BRANCH   6   7
ATOM      7  C   UNL     1      -1.475  -0.899  25.258  0.00  0.00    +0.089 C 
BRANCH   7   8
ATOM      8  C   UNL     1      -2.182  -1.288  25.428  0.00  0.00    +0.226 C 
ATOM      9  O   UNL     1      -2.703  -0.973  25.984  0.00  0.00    -0.275 OA
ATOM     10  N   UNL     1      -2.368  -1.993  25.041  0.00  0.00    -0.274 N 
ATOM     11  C   UNL     1      -1.847  -2.307  24.484  0.00  0.00    +0.115 C 
BRANCH  10  12
ATOM     12  C   UNL     1      -3.075  -2.381  25.211  0.00  0.00    +0.122 C 
BRANCH  12  13
ATOM     13  C   UNL     1      -3.588  -2.591  24.598  0.00  0.00    +0.017 A 
ATOM     14  C   UNL     1      -4.119  -2.037  24.297  0.00  0.00    +0.001 A 
ATOM     15  C   UNL     1      -4.631  -2.247  23.685  0.00  0.00    +0.020 A 
ATOM     16  C   UNL     1      -4.612  -3.011  23.374  0.00  0.00    +0.099 A 
ATOM     17  N   UNL     1      -4.080  -3.566  23.676  0.00  0.00    -0.243 NA
ATOM     18  C   UNL     1      -3.567  -3.356  24.288  0.00  0.00    +0.096 A 
ENDBRANCH  12  13
ENDBRANCH  10  12
ENDBRANCH   7   8
ENDBRANCH   6   7
BRANCH  22  23
ATOM     23  C   UNL     1      -1.475   2.356  24.712  0.00  0.00    +0.120 C 
BRANCH  23  24
ATOM     24  N   UNL     1      -1.086   2.862  25.235  0.00  0.00    -0.077 NA
BRANCH  24  25
ATOM     25  S   UNL     1      -1.170   3.679  25.157  0.00  0.00    +0.077 S 
ATOM     26  O   UNL     1      -1.772   3.672  25.720  0.00  0.00    -0.152 OA
ATOM     27  O   UNL     1      -0.567   3.687  24.593  0.00  0.00    -0.152 OA
BRANCH  25  28
ATOM     28  C   UNL     1      -1.253   4.496  25.079  0.00  0.00    +0.124 A 
ATOM     29  C   UNL     1      -1.948   4.866  25.326  0.00  0.00    +0.020 A 
ATOM     30  C   UNL     1      -2.031   5.682  25.247  0.00  0.00    +0.001 A 
ATOM     31  C   UNL     1      -1.419   6.130  24.922  0.00  0.00    +0.000 A 
ATOM     32  C   UNL     1      -0.724   5.761  24.675  0.00  0.00    +0.001 A 
ATOM     33  C   UNL     1      -0.641   4.943  24.753  0.00  0.00    +0.020 A 
ENDBRANCH  25  28
ENDBRANCH  24  25
ENDBRANCH  23  24
ENDBRANCH  22  23
TORSDOF 9
ENDMDL
MODEL 5
REMARK VINA RESULT:      -9.0      3.220      5.075
REMARK  Name = 
REMARK  9 active torsions:
REMARK  status: ('A' for Active; 'I' for Inactive)
REMARK    1  A    between atoms: C_2  and  C_4
REMARK    2  A    between atoms: C_6  and  C_7
REMARK    3  A    between atoms: C_7  and  C_8
REMARK    4  A    between atoms: N_10  and  C_12
REMARK    5  A    between atoms: C_12  and  C_13
REMARK    6  A    between atoms: C_22  and  C_23
REMARK    7  A    between atoms: C_23  and  N_24
REMARK    8  A    between atoms: N_24  and  S_25
REMARK    9  A    between atoms: S_25  and  C_28
REMARK                            x       y       z     vdW  Elec       q    Type
REMARK                         _______ _______ _______ _____ _____    ______ ____
ROOT
ATOM      4  C   UNL     1      -1.105   0.842  24.374  0.00  0.00    +0.006 C 
ATOM      5  C   UNL     1      -1.878   0.697  24.622  0.00  0.00    +0.005 C 
ATOM      6  C   UNL     1      -2.189  -0.066  24.575  0.00  0.00    +0.027 C 
ATOM     19  C   UNL     1      -1.727  -0.683  24.281  0.00  0.00    -0.048 C 
ATOM     20  C   UNL     1      -2.039  -1.445  24.234  0.00  0.00    +0.026 C 
ATOM     21  C   UNL     1      -0.954  -0.537  24.034  0.00  0.00    -0.033 C 
ATOM     22  C   UNL     1      -0.643   0.225  24.080  0.00  0.00    +0.041 C 
ENDROOT
BRANCH   4   2
ATOM      1  C   UNL     1      -0.374   1.838  25.092  0.00  0.00    +0.000 C 
ATOM      2  C   UNL     1      -0.793   1.605  24.421  0.00  0.00    +0.000 C 
ATOM      3  C   UNL     1      -0.901   2.134  23.797  0.00  0.00    +0.000 C 
ENDBRANCH   4   2
BRANCH   6   7
ATOM      7  C   UNL     1      -2.963  -0.211  24.822  0.00  0.00    +0.089 C 
BRANCH   7   8
ATOM      8  C   UNL     1      -3.590   0.209  24.486  0.00  0.00    +0.226 C 
ATOM      9  O   UNL     1      -3.607   0.343  23.672  0.00  0.00    -0.275 OA
ATOM     10  N   UNL     1      -4.197   0.495  24.965  0.00  0.00    -0.274 N 
ATOM     11  C   UNL     1      -4.180   0.361  25.779  0.00  0.00    +0.115 C 
BRANCH  10  12
ATOM     12  C   UNL     1      -4.823   0.914  24.629  0.00  0.00    +0.122 C 
BRANCH  12  13
ATOM     13  C   UNL     1      -5.116   1.589  25.005  0.00  0.00    +0.017 A 
ATOM     14  C   UNL     1      -4.809   2.331  24.819  0.00  0.00    +0.001 A 
ATOM     15  C   UNL     1      -5.102   3.005  25.194  0.00  0.00    +0.020 A 
ATOM     16  C   UNL     1      -5.702   2.935  25.756  0.00  0.00    +0.099 A 
ATOM     17  N   UNL     1      -6.010   2.193  25.942  0.00  0.00    -0.243 NA
ATOM     18  C   UNL     1      -5.716   1.519  25.566  0.00  0.00    +0.096 A 
ENDBRANCH  12  13
ENDBRANCH  10  12
ENDBRANCH   7   8
ENDBRANCH   6   7
BRANCH  22  23
ATOM     23  C   UNL     1       0.131   0.371  23.833  0.00  0.00    +0.120 C 
BRANCH  23  24
ATOM     24  N   UNL     1       0.535  -0.194  23.388  0.00  0.00    -0.077 NA
BRANCH  24  25
ATOM     25  S   UNL     1       1.283  -0.023  23.086  0.00  0.00    +0.077 S 
ATOM     26  O   UNL     1       0.944   0.196  22.367  0.00  0.00    -0.152 OA
ATOM     27  O   UNL     1       1.623  -0.242  23.806  0.00  0.00    -0.152 OA
BRANCH  25  28
ATOM     28  C   UNL     1       2.032   0.147  22.785  0.00  0.00    +0.124 A 
ATOM     29  C   UNL     1       2.545   0.637  23.207  0.00  0.00    +0.020 A 
ATOM     30  C   UNL     1       3.293   0.807  22.905  0.00  0.00    +0.001 A 
ATOM     31  C   UNL     1       3.530   0.488  22.182  0.00  0.00    +0.000 A 
ATOM     32  C   UNL     1       3.017  -0.001  21.760  0.00  0.00    +0.001 A 
ATOM     33  C   UNL     1       2.267  -0.172  22.061  0.00  0.00    +0.020 A 
ENDBRANCH  25  28
ENDBRANCH  24  25
ENDBRANCH  23  24
ENDBRANCH  22  23
TORSDOF 9
ENDMDL
MODEL 6
REMARK VINA RESULT:      -8.6      3.018      4.732
REMARK  Name = 
REMARK  9 active torsions:
REMARK  status: ('A' for Active; 'I' for Inactive)
REMARK    1  A    between atoms: C_2  and  C_4
REMARK    2  A    between atoms: C_6  and  C_7
REMARK    3  A    between atoms: C_7  and  C_8
REMARK    4  A    between atoms: N_10  and  C_12
REMARK    5  A    between atoms: C_12  and  C_13
REMARK    6  A    between atoms: C_22  and  C_23
REMARK    7  A    between atoms: C_23  and  N_24
REMARK    8  A    between atoms: N_24  and  S_25
REMARK    9  A    between atoms: S_25  and  C_28
REMARK                            x       y       z     vdW  Elec       q    Type
REMARK                         _______ _______ _______ _____ _____    ______ ____
ROOT
ATOM      4  C   UNL     1      -1.274   1.726  24.932  0.00  0.00    +0.006 C 
ATOM      5  C   UNL     1      -1.857   2.236  25.216  0.00  0.00    +0.005 C 
ATOM      6  C   UNL     1      -1.741   3.052  25.184  0.00  0.00    +0.027 C 
ATOM     19  C   UNL     1      -1.043   3.358  24.867  0.00  0.00    -0.048 C 
ATOM     20  C   UNL     1      -0.928   4.175  24.835  0.00  0.00    +0.026 C 
ATOM     21  C   UNL     1      -0.461   2.848  24.584  0.00  0.00    -0.033 C 
ATOM     22  C   UNL     1      -0.576   2.032  24.616  0.00  0.00    +0.041 C 
ENDROOT
BRANCH   4   2
ATOM      1  C   UNL     1      -1.108   0.479  25.610  0.00  0.00    +0.000 C 
ATOM      2  C   UNL     1      -1.389   0.909  24.964  0.00  0.00    +0.000 C 
ATOM      3  C   UNL     1      -1.786   0.524  24.352  0.00  0.00    +0.000 C 
ENDBRANCH   4   2
BRANCH   6   7
ATOM      7  C   UNL     1      -2.324   3.563  25.468  0.00  0.00    +0.089 C 
BRANCH   7   8
ATOM      8  C   UNL     1      -3.063   3.591  25.100  0.00  0.00    +0.226 C 
ATOM      9  O   UNL     1      -3.114   3.608  24.277  0.00  0.00    -0.275 OA
ATOM     10  N   UNL     1      -3.749   3.602  25.557  0.00  0.00    -0.274 N 
ATOM     11  C   UNL     1      -3.699   3.585  26.380  0.00  0.00    +0.115 C 
BRANCH  10  12
ATOM     12  C   UNL     1      -4.487   3.630  25.189  0.00  0.00    +0.122 C 
BRANCH  12  13
ATOM     13  C   UNL     1      -5.063   3.069  25.378  0.00  0.00    +0.017 A 
ATOM     14  C   UNL     1      -5.233   2.459  24.850  0.00  0.00    +0.001 A 
ATOM     15  C   UNL     1      -5.809   1.898  25.038  0.00  0.00    +0.020 A 
ATOM     16  C   UNL     1      -6.214   1.949  25.755  0.00  0.00    +0.099 A 
ATOM     17  N   UNL     1      -6.044   2.559  26.284  0.00  0.00    -0.243 NA
ATOM     18  C   UNL     1      -5.468   3.120  26.095  0.00  0.00    +0.096 A 
ENDBRANCH  12  13
ENDBRANCH  10  12
ENDBRANCH   7   8
ENDBRANCH   6   7
BRANCH  22  23
ATOM     23  C   UNL     1       0.006   1.521  24.332  0.00  0.00    +0.120 C 
BRANCH  23  24
ATOM     24  N   UNL     1       0.662   1.824  23.934  0.00  0.00    -0.077 NA
BRANCH  24  25
ATOM     25  S   UNL     1       1.196   1.312  23.570  0.00  0.00    +0.077 S 
ATOM     26  O   UNL     1       0.640   1.149  22.983  0.00  0.00    -0.152 OA
ATOM     27  O   UNL     1       1.754   1.475  24.156  0.00  0.00    -0.152 OA
BRANCH  25  28
ATOM     28  C   UNL     1       1.731   0.800  23.205  0.00  0.00    +0.124 A 
ATOM     29  C   UNL     1       1.463   0.097  22.866  0.00  0.00    +0.020 A 
ATOM     30  C   UNL     1       1.997  -0.414  22.502  0.00  0.00    +0.001 A 
ATOM     31  C   UNL     1       2.800  -0.224  22.476  0.00  0.00    +0.000 A 
ATOM     32  C   UNL     1       3.068   0.479  22.815  0.00  0.00    +0.001 A 
ATOM     33  C   UNL     1       2.533   0.991  23.180  0.00  0.00    +0.020 A 
ENDBRANCH  25  28
ENDBRANCH  24  25
ENDBRANCH  23  24
ENDBRANCH  22  23
TORSDOF 9
ENDMDL
