MODEL 1
REMARK VINA RESULT:     -12.9      0.000      0.000
REMARK  Name = 
REMARK  3 active torsions:
REMARK  status: ('A' for Active; 'I' for Inactive)
REMARK    1  A    between atoms: C_7  and  C_9
REMARK    2  A    between atoms: N_12  and  C_13
REMARK    3  A    between atoms: C_13  and  C_14
REMARK                            x       y       z     vdW  Elec       q    Type
REMARK                         _______ _______ _______ _____ _____    ______ ____
ROOT
ATOM      9  C   UNL     1      -4.391   1.119  24.763  0.00  0.00    +0.076 C 
ATOM     10  C   UNL     1      -5.105   1.452  25.006  0.00  0.00    +0.026 C 
ATOM     11  C   UNL     1      -5.050   2.270  24.915  0.00  0.00    +0.073 C 
ATOM     12  N   UNL     1      -4.300   2.443  24.617  0.00  0.00    -0.269 NA
ATOM     20  C   UNL     1      -3.893   1.731  24.523  0.00  0.00    +0.080 C 
ENDROOT
BRANCH   9   7
ATOM      1  C   UNL     1      -3.783  -3.087  24.006  0.00  0.00    +0.031 C 
ATOM      2  C   UNL     1      -3.773  -2.353  24.381  0.00  0.00    -0.020 A 
ATOM      3  C   UNL     1      -4.102  -1.695  24.009  0.00  0.00    +0.016 A 
ATOM      4  C   UNL     1      -4.092  -0.960  24.384  0.00  0.00    +0.100 A 
ATOM      5  C   UNL     1      -3.753  -0.884  25.132  0.00  0.00    +0.100 A 
ATOM      6  N   UNL     1      -3.824  -0.097  25.365  0.00  0.00    -0.229 NA
ATOM      7  C   UNL     1      -4.206   0.315  24.761  0.00  0.00    +0.140 A 
ATOM      8  N   UNL     1      -4.372  -0.219  24.155  0.00  0.00    -0.229 NA
ATOM     21  C   UNL     1      -3.424  -1.543  25.505  0.00  0.00    +0.020 A 
ATOM     22  C   UNL     1      -3.434  -2.277  25.129  0.00  0.00    -0.003 A 
ENDBRANCH   9   7
BRANCH  12  13
ATOM     13  C   UNL     1      -4.008   3.194  24.443  0.00  0.00    +0.099 C 
BRANCH  13  14
ATOM     14  C   UNL     1      -3.433   3.536  24.926  0.00  0.00    -0.006 A 
ATOM     15  C   UNL     1      -3.650   3.891  25.640  0.00  0.00    -0.003 A 
ATOM     16  C   UNL     1      -3.075   4.232  26.122  0.00  0.00    -0.000 A 
ATOM     17  C   UNL     1      -2.283   4.220  25.892  0.00  0.00    -0.000 A 
ATOM     18  C   UNL     1      -2.066   3.866  25.179  0.00  0.00    -0.000 A 
ATOM     19  C   UNL     1      -2.641   3.524  24.696  0.00  0.00    -0.003 A 
ENDBRANCH  13  14
ENDBRANCH  12  13
TORSDOF 3
ENDMDL
MODEL 2
REMARK VINA RESULT:     -12.5      0.944      5.011
REMARK  Name = 
REMARK  3 active torsions:
REMARK  status: ('A' for Active; 'I' for Inactive)
REMARK    1  A    between atoms: C_7  and  C_9
REMARK    2  A    between atoms: N_12  and  C_13
REMARK    3  A    between atoms: C_13  and  C_14
REMARK                            x       y       z     vdW  Elec       q    Type
REMARK                         _______ _______ _______ _____ _____    ______ ____
ROOT
ATOM      9  C   UNL     1      -3.236   1.499  24.354  0.00  0.00    +0.076 C 
ATOM     10  C   UNL     1      -3.246   1.177  23.595  0.00  0.00    +0.026 C 
ATOM     11  C   UNL     1      -3.669   0.469  23.622  0.00  0.00    +0.073 C 
ATOM     12  N   UNL     1      -3.922   0.354  24.399  0.00  0.00    -0.269 NA
ATOM     20  C   UNL     1      -3.654   0.991  24.851  0.00  0.00    +0.080 C 
ENDROOT
BRANCH   9   7
ATOM      1  C   UNL     1      -0.713   4.933  25.040  0.00  0.00    +0.031 C 
ATOM      2  C   UNL     1      -1.356   4.419  25.076  0.00  0.00    -0.020 A 
ATOM      3  C   UNL     1      -1.341   3.710  24.655  0.00  0.00    +0.016 A 
ATOM      4  C   UNL     1      -1.985   3.195  24.690  0.00  0.00    +0.100 A 
ATOM      5  C   UNL     1      -2.643   3.389  25.147  0.00  0.00    +0.100 A 
ATOM      6  N   UNL     1      -3.192   2.778  25.077  0.00  0.00    -0.229 NA
ATOM      7  C   UNL     1      -2.873   2.206  24.576  0.00  0.00    +0.140 A 
ATOM      8  N   UNL     1      -2.127   2.464  24.338  0.00  0.00    -0.229 NA
ATOM     21  C   UNL     1      -2.658   4.099  25.569  0.00  0.00    +0.020 A 
ATOM     22  C   UNL     1      -2.014   4.613  25.533  0.00  0.00    -0.003 A 
ENDBRANCH   9   7
BRANCH  12  13
ATOM     13  C   UNL     1      -4.364  -0.284  24.675  0.00  0.00    +0.099 C 
BRANCH  13  14
ATOM     14  C   UNL     1      -4.028  -1.038  24.704  0.00  0.00    -0.006 A 
ATOM     15  C   UNL     1      -3.571  -1.262  25.354  0.00  0.00    -0.003 A 
ATOM     16  C   UNL     1      -3.236  -2.015  25.381  0.00  0.00    -0.000 A 
ATOM     17  C   UNL     1      -3.357  -2.544  24.761  0.00  0.00    -0.000 A 
ATOM     18  C   UNL     1      -3.814  -2.320  24.111  0.00  0.00    -0.000 A 
ATOM     19  C   UNL     1      -4.150  -1.567  24.082  0.00  0.00    -0.003 A 
ENDBRANCH  13  14
ENDBRANCH  12  13
TORSDOF 3
ENDMDL
MODEL 3
REMARK VINA RESULT:     -12.3      1.687      2.288
REMARK  Name = 
REMARK  3 active torsions:
REMARK  status: ('A' for Active; 'I' for Inactive)
REMARK    1  A    between atoms: C_7  and  C_9
REMARK    2  A    between atoms: N_12  and  C_13
REMARK    3  A    between atoms: C_13  and  C_14
REMARK                            x       y       z     vdW  Elec       q    Type
REMARK                         _______ _______ _______ _____ _____    ______ ____
ROOT
ATOM      9  C   UNL     1      -1.633   0.929  24.761  0.00  0.00    +0.076 C 
ATOM     10  C   UNL     1      -0.970   1.103  24.301  0.00  0.00    +0.026 C 
ATOM     11  C   UNL     1      -0.601   1.766  24.624  0.00  0.00    +0.073 C 
ATOM     12  N   UNL     1      -1.036   2.003  25.284  0.00  0.00    -0.269 NA
ATOM     20  C   UNL     1      -1.674   1.485  25.368  0.00  0.00    +0.080 C 
ENDROOT
BRANCH   9   7
ATOM      1  C   UNL     1      -3.784  -2.795  24.389  0.00  0.00    +0.031 C 
ATOM      2  C   UNL     1      -3.608  -1.990  24.361  0.00  0.00    -0.020 A 
ATOM      3  C   UNL     1      -2.869  -1.720  24.606  0.00  0.00    +0.016 A 
ATOM      4  C   UNL     1      -2.692  -0.915  24.579  0.00  0.00    +0.100 A 
ATOM      5  C   UNL     1      -3.257  -0.379  24.305  0.00  0.00    +0.100 A 
ATOM      6  N   UNL     1      -2.929   0.377  24.340  0.00  0.00    -0.229 NA
ATOM      7  C   UNL     1      -2.162   0.308  24.635  0.00  0.00    +0.140 A 
ATOM      8  N   UNL     1      -2.016  -0.490  24.782  0.00  0.00    -0.229 NA
ATOM     21  C   UNL     1      -3.997  -0.648  24.059  0.00  0.00    +0.020 A 
ATOM     22  C   UNL     1      -4.172  -1.454  24.087  0.00  0.00    -0.003 A 
ENDBRANCH   9   7
BRANCH  12  13
ATOM     13  C   UNL     1      -0.864   2.644  25.774  0.00  0.00    +0.099 C 
BRANCH  13  14
ATOM     14  C   UNL     1      -1.140   3.397  25.579  0.00  0.00    -0.006 A 
ATOM     15  C   UNL     1      -1.889   3.640  25.827  0.00  0.00    -0.003 A 
ATOM     16  C   UNL     1      -2.163   4.393  25.633  0.00  0.00    -0.000 A 
ATOM     17  C   UNL     1      -1.690   4.904  25.192  0.00  0.00    -0.000 A 
ATOM     18  C   UNL     1      -0.940   4.662  24.944  0.00  0.00    -0.000 A 
ATOM     19  C   UNL     1      -0.665   3.908  25.138  0.00  0.00    -0.003 A 
ENDBRANCH  13  14
ENDBRANCH  12  13
TORSDOF 3
ENDMDL
