MODEL 1
REMARK VINA RESULT:      -9.0      0.000      0.000
REMARK  Name = 
REMARK  6 active torsions:
REMARK  status: ('A' for Active; 'I' for Inactive)
REMARK    1  A    between atoms: C_2  and  C_4
REMARK    2  A    between atoms: C_7  and  N_8
REMARK    3  A    between atoms: N_11  and  C_12
REMARK    4  A    between atoms: C_16  and  O_20
REMARK    5  A    between atoms: O_20  and  C_21
REMARK    6  A    between atoms: N_23  and  C_24
REMARK                            x       y       z     vdW  Elec       q    Type
REMARK                         _______ _______ _______ _____ _____    ______ ____
ROOT
ATOM     12  C   UNL     1       0.159   0.010  23.363  0.00  0.00    +0.156 C 
ATOM     13  C   UNL     1       0.098  -0.612  23.902  0.00  0.00    +0.166 C 
ATOM     14  O   UNL     1      -0.578  -0.487  24.358  0.00  0.00    -0.348 OA
ATOM     15  C   UNL     1      -0.934   0.211  24.101  0.00  0.00    +0.186 C 
ATOM     16  C   UNL     1      -1.572   0.720  24.223  0.00  0.00    +0.229 C 
ATOM     17  C   UNL     1      -1.510   1.341  23.685  0.00  0.00    +0.188 C 
ATOM     18  O   UNL     1      -0.834   1.217  23.229  0.00  0.00    -0.348 OA
ATOM     19  C   UNL     1      -0.478   0.518  23.486  0.00  0.00    +0.168 C 
ENDROOT
BRANCH  12  11
ATOM      8  N   UNL     1       2.142   0.193  22.468  0.00  0.00    -0.161 NA
ATOM      9  C   UNL     1       1.547   0.097  23.030  0.00  0.00    +0.344 C 
ATOM     10  O   UNL     1       1.743  -0.008  23.826  0.00  0.00    -0.249 OA
ATOM     11  N   UNL     1       0.755   0.106  22.800  0.00  0.00    -0.184 NA
BRANCH   8   7
ATOM      4  C   UNL     1       4.518   0.168  23.160  0.00  0.00    +0.035 A 
ATOM      5  C   UNL     1       4.156   0.880  22.952  0.00  0.00    +0.004 A 
ATOM      6  C   UNL     1       3.364   0.888  22.722  0.00  0.00    +0.017 A 
ATOM      7  C   UNL     1       2.934   0.184  22.699  0.00  0.00    +0.075 A 
ATOM     30  C   UNL     1       3.296  -0.527  22.907  0.00  0.00    +0.017 A 
ATOM     31  C   UNL     1       4.088  -0.535  23.137  0.00  0.00    +0.004 A 
BRANCH   4   2
ATOM      1  C   UNL     1       5.531   0.483  24.118  0.00  0.00    +0.077 C 
ATOM      2  C   UNL     1       5.310   0.160  23.391  0.00  0.00    +0.173 C 
ATOM      3  O   UNL     1       5.881  -0.170  22.896  0.00  0.00    -0.291 OA
ENDBRANCH   4   2
ENDBRANCH   8   7
ENDBRANCH  12  11
BRANCH  16  20
ATOM     20  O   UNL     1      -2.167   0.624  24.787  0.00  0.00    -0.432 OA
BRANCH  20  21
ATOM     21  C   UNL     1      -2.925   0.917  24.641  0.00  0.00    +0.421 C 
ATOM     22  O   UNL     1      -3.278   0.799  23.905  0.00  0.00    -0.225 OA
ATOM     23  N   UNL     1      -3.329   1.328  25.231  0.00  0.00    -0.170 NA
BRANCH  23  24
ATOM     24  C   UNL     1      -4.086   1.621  25.085  0.00  0.00    +0.099 C 
ATOM     25  C   UNL     1      -4.190   2.413  24.881  0.00  0.00    +0.022 C 
ATOM     26  C   UNL     1      -4.946   2.706  24.735  0.00  0.00    +0.002 C 
ATOM     27  C   UNL     1      -5.601   2.206  24.794  0.00  0.00    +0.000 C 
ATOM     28  C   UNL     1      -5.497   1.414  24.999  0.00  0.00    +0.002 C 
ATOM     29  C   UNL     1      -4.740   1.121  25.144  0.00  0.00    +0.022 C 
ENDBRANCH  23  24
ENDBRANCH  20  21
ENDBRANCH  16  20
TORSDOF 6
ENDMDL
MODEL 2
REMARK VINA RESULT:      -8.7      1.169      7.256
REMARK  Name = 
REMARK  6 active torsions:
REMARK  status: ('A' for Active; 'I' for Inactive)
REMARK    1  A    between atoms: C_2  and  C_4
REMARK    2  A    between atoms: C_7  and  N_8
REMARK    3  A    between atoms: N_11  and  C_12
REMARK    4  A    between atoms: C_16  and  O_20
REMARK    5  A    between atoms: O_20  and  C_21
REMARK    6  A    between atoms: N_23  and  C_24
REMARK                            x       y       z     vdW  Elec       q    Type
REMARK                         _______ _______ _______ _____ _____    ______ ____
ROOT
ATOM     12  C   UNL     1      -0.219   0.566  23.904  0.00  0.00    +0.156 C 
ATOM     13  C   UNL     1       0.008   1.292  24.224  0.00  0.00    +0.166 C 
ATOM     14  O   UNL     1       0.772   1.459  23.960  0.00  0.00    -0.348 OA
ATOM     15  C   UNL     1       1.017   0.837  23.478  0.00  0.00    +0.186 C 
ATOM     16  C   UNL     1       1.639   0.554  23.016  0.00  0.00    +0.229 C 
ATOM     17  C   UNL     1       1.413  -0.171  22.696  0.00  0.00    +0.188 C 
ATOM     18  O   UNL     1       0.649  -0.338  22.960  0.00  0.00    -0.348 OA
ATOM     19  C   UNL     1       0.404   0.285  23.443  0.00  0.00    +0.168 C 
ENDROOT
BRANCH  12  11
ATOM      8  N   UNL     1      -2.347   0.257  24.276  0.00  0.00    -0.161 NA
ATOM      9  C   UNL     1      -1.624   0.634  24.156  0.00  0.00    +0.344 C 
ATOM     10  O   UNL     1      -1.582   1.459  24.166  0.00  0.00    -0.249 OA
ATOM     11  N   UNL     1      -0.942   0.188  24.025  0.00  0.00    -0.184 NA
BRANCH   8   7
ATOM      4  C   UNL     1      -4.393   1.594  24.670  0.00  0.00    +0.035 A 
ATOM      5  C   UNL     1      -4.049   1.173  25.291  0.00  0.00    +0.004 A 
ATOM      6  C   UNL     1      -3.368   0.727  25.159  0.00  0.00    +0.017 A 
ATOM      7  C   UNL     1      -3.029   0.703  24.407  0.00  0.00    +0.075 A 
ATOM     30  C   UNL     1      -3.372   1.124  23.787  0.00  0.00    +0.017 A 
ATOM     31  C   UNL     1      -4.054   1.569  23.918  0.00  0.00    +0.004 A 
BRANCH   4   2
ATOM      1  C   UNL     1      -5.013   2.829  25.033  0.00  0.00    +0.077 C 
ATOM      2  C   UNL     1      -5.075   2.039  24.801  0.00  0.00    +0.173 C 
ATOM      3  O   UNL     1      -5.818   1.696  24.702  0.00  0.00    -0.291 OA
ENDBRANCH   4   2
ENDBRANCH   8   7
ENDBRANCH  12  11
BRANCH  16  20
ATOM     20  O   UNL     1       2.363   0.932  22.895  0.00  0.00    -0.432 OA
BRANCH  20  21
ATOM     21  C   UNL     1       3.066   0.501  22.932  0.00  0.00    +0.421 C 
ATOM     22  O   UNL     1       3.170  -0.158  22.447  0.00  0.00    -0.225 OA
ATOM     23  N   UNL     1       3.663   0.728  23.453  0.00  0.00    -0.170 NA
BRANCH  23  24
ATOM     24  C   UNL     1       4.365   0.297  23.490  0.00  0.00    +0.099 C 
ATOM     25  C   UNL     1       5.041   0.574  23.108  0.00  0.00    +0.022 C 
ATOM     26  C   UNL     1       5.742   0.144  23.145  0.00  0.00    +0.002 C 
ATOM     27  C   UNL     1       5.769  -0.567  23.564  0.00  0.00    +0.000 C 
ATOM     28  C   UNL     1       5.093  -0.845  23.947  0.00  0.00    +0.002 C 
ATOM     29  C   UNL     1       4.391  -0.413  23.910  0.00  0.00    +0.022 C 
ENDBRANCH  23  24
ENDBRANCH  20  21
ENDBRANCH  16  20
TORSDOF 6
ENDMDL
MODEL 3
REMARK VINA RESULT:      -8.0      4.650      6.214
REMARK  Name = 
REMARK  6 active torsions:
REMARK  status: ('A' for Active; 'I' for Inactive)
REMARK    1  A    between atoms: C_2  and  C_4
REMARK    2  A    between atoms: C_7  and  N_8
REMARK    3  A    between atoms: N_11  and  C_12
REMARK    4  A    between atoms: C_16  and  O_20
REMARK    5  A    between atoms: O_20  and  C_21
REMARK    6  A    between atoms: N_23  and  C_24
REMARK                            x       y       z     vdW  Elec       q    Type
REMARK                         _______ _______ _______ _____ _____    ______ ____
ROOT
ATOM     12  C   UNL     1      -4.764   1.756  24.605  0.00  0.00    +0.156 C 
ATOM     13  C   UNL     1      -4.553   2.075  23.875  0.00  0.00    +0.166 C 
ATOM     14  O   UNL     1      -4.296   2.848  24.000  0.00  0.00    -0.348 OA
ATOM     15  C   UNL     1      -4.348   3.007  24.807  0.00  0.00    +0.186 C 
ATOM     16  C   UNL     1      -4.222   3.583  25.385  0.00  0.00    +0.229 C 
ATOM     17  C   UNL     1      -4.433   3.264  26.115  0.00  0.00    +0.188 C 
ATOM     18  O   UNL     1      -4.690   2.490  25.990  0.00  0.00    -0.348 OA
ATOM     19  C   UNL     1      -4.638   2.332  25.181  0.00  0.00    +0.168 C 
ENDROOT
BRANCH  12  11
ATOM      8  N   UNL     1      -4.842  -0.420  24.771  0.00  0.00    -0.161 NA
ATOM      9  C   UNL     1      -4.555   0.342  24.640  0.00  0.00    +0.344 C 
ATOM     10  O   UNL     1      -3.769   0.454  24.412  0.00  0.00    -0.249 OA
ATOM     11  N   UNL     1      -5.052   0.993  24.737  0.00  0.00    -0.184 NA
BRANCH   8   7
ATOM      4  C   UNL     1      -3.349  -2.373  24.483  0.00  0.00    +0.035 A 
ATOM      5  C   UNL     1      -3.325  -1.935  25.182  0.00  0.00    +0.004 A 
ATOM      6  C   UNL     1      -3.823  -1.284  25.277  0.00  0.00    +0.017 A 
ATOM      7  C   UNL     1      -4.344  -1.071  24.675  0.00  0.00    +0.075 A 
ATOM     30  C   UNL     1      -4.368  -1.509  23.976  0.00  0.00    +0.017 A 
ATOM     31  C   UNL     1      -3.870  -2.160  23.880  0.00  0.00    +0.004 A 
BRANCH   4   2
ATOM      1  C   UNL     1      -2.032  -2.923  24.403  0.00  0.00    +0.077 C 
ATOM      2  C   UNL     1      -2.851  -3.024  24.387  0.00  0.00    +0.173 C 
ATOM      3  O   UNL     1      -3.172  -3.776  24.276  0.00  0.00    -0.291 OA
ENDBRANCH   4   2
ENDBRANCH   8   7
ENDBRANCH  12  11
BRANCH  16  20
ATOM     20  O   UNL     1      -3.934   4.346  25.253  0.00  0.00    -0.432 OA
BRANCH  20  21
ATOM     21  C   UNL     1      -3.132   4.508  25.357  0.00  0.00    +0.421 C 
ATOM     22  O   UNL     1      -2.825   4.601  26.117  0.00  0.00    -0.225 OA
ATOM     23  N   UNL     1      -2.637   4.576  24.701  0.00  0.00    -0.170 NA
BRANCH  23  24
ATOM     24  C   UNL     1      -1.834   4.738  24.804  0.00  0.00    +0.099 C 
ATOM     25  C   UNL     1      -1.293   4.120  24.865  0.00  0.00    +0.022 C 
ATOM     26  C   UNL     1      -0.491   4.281  24.968  0.00  0.00    +0.002 C 
ATOM     27  C   UNL     1      -0.230   5.063  25.011  0.00  0.00    +0.000 C 
ATOM     28  C   UNL     1      -0.772   5.683  24.951  0.00  0.00    +0.002 C 
ATOM     29  C   UNL     1      -1.574   5.520  24.848  0.00  0.00    +0.022 C 
ENDBRANCH  23  24
ENDBRANCH  20  21
ENDBRANCH  16  20
TORSDOF 6
ENDMDL
MODEL 4
REMARK VINA RESULT:      -6.7     15.202     15.940
REMARK  Name = 
REMARK  6 active torsions:
REMARK  status: ('A' for Active; 'I' for Inactive)
REMARK    1  A    between atoms: C_2  and  C_4
REMARK    2  A    between atoms: C_7  and  N_8
REMARK    3  A    between atoms: N_11  and  C_12
REMARK    4  A    between atoms: C_16  and  O_20
REMARK    5  A    between atoms: O_20  and  C_21
REMARK    6  A    between atoms: N_23  and  C_24
REMARK                            x       y       z     vdW  Elec       q    Type
REMARK                         _______ _______ _______ _____ _____    ______ ____
ROOT
ATOM     12  C   UNL     1      -5.815 -10.375  14.107  0.00  0.00    +0.156 C 
ATOM     13  C   UNL     1      -6.468 -10.781  13.809  0.00  0.00    +0.166 C 
ATOM     14  O   UNL     1      -7.067 -10.749  14.375  0.00  0.00    -0.348 OA
ATOM     15  C   UNL     1      -6.786 -10.324  15.022  0.00  0.00    +0.186 C 
ATOM     16  C   UNL     1      -6.981 -10.040  15.772  0.00  0.00    +0.229 C 
ATOM     17  C   UNL     1      -6.329  -9.633  16.070  0.00  0.00    +0.188 C 
ATOM     18  O   UNL     1      -5.729  -9.665  15.504  0.00  0.00    -0.348 OA
ATOM     19  C   UNL     1      -6.012 -10.092  14.856  0.00  0.00    +0.168 C 
ENDROOT
BRANCH  12  11
ATOM      8  N   UNL     1      -4.347 -10.089  12.517  0.00  0.00    -0.161 NA
ATOM      9  C   UNL     1      -5.069 -10.194  12.902  0.00  0.00    +0.344 C 
ATOM     10  O   UNL     1      -5.769 -10.224  12.465  0.00  0.00    -0.249 OA
ATOM     11  N   UNL     1      -5.093 -10.269  13.723  0.00  0.00    -0.184 NA
BRANCH   8   7
ATOM      4  C   UNL     1      -4.276  -9.865  10.053  0.00  0.00    +0.035 A 
ATOM      5  C   UNL     1      -4.148 -10.601  10.405  0.00  0.00    +0.004 A 
ATOM      6  C   UNL     1      -4.172 -10.675  11.226  0.00  0.00    +0.017 A 
ATOM      7  C   UNL     1      -4.323 -10.014  11.696  0.00  0.00    +0.075 A 
ATOM     30  C   UNL     1      -4.450  -9.279  11.345  0.00  0.00    +0.017 A 
ATOM     31  C   UNL     1      -4.427  -9.204  10.524  0.00  0.00    +0.004 A 
BRANCH   4   2
ATOM      1  C   UNL     1      -4.375 -10.452   8.755  0.00  0.00    +0.077 C 
ATOM      2  C   UNL     1      -4.252  -9.791   9.232  0.00  0.00    +0.173 C 
ATOM      3  O   UNL     1      -4.105  -9.055   8.888  0.00  0.00    -0.291 OA
ENDBRANCH   4   2
ENDBRANCH   8   7
ENDBRANCH  12  11
BRANCH  16  20
ATOM     20  O   UNL     1      -7.704 -10.145  16.156  0.00  0.00    -0.432 OA
BRANCH  20  21
ATOM     21  C   UNL     1      -8.130  -9.490  16.422  0.00  0.00    +0.421 C 
ATOM     22  O   UNL     1      -7.759  -8.918  16.886  0.00  0.00    -0.225 OA
ATOM     23  N   UNL     1      -8.926  -9.407  16.223  0.00  0.00    -0.170 NA
BRANCH  23  24
ATOM     24  C   UNL     1      -9.351  -8.752  16.489  0.00  0.00    +0.099 C 
ATOM     25  C   UNL     1      -9.552  -8.149  15.963  0.00  0.00    +0.022 C 
ATOM     26  C   UNL     1      -9.977  -7.495  16.229  0.00  0.00    +0.002 C 
ATOM     27  C   UNL     1     -10.202  -7.442  17.021  0.00  0.00    +0.000 C 
ATOM     28  C   UNL     1     -10.001  -8.045  17.548  0.00  0.00    +0.002 C 
ATOM     29  C   UNL     1      -9.576  -8.700  17.281  0.00  0.00    +0.022 C 
ENDBRANCH  23  24
ENDBRANCH  20  21
ENDBRANCH  16  20
TORSDOF 6
ENDMDL
MODEL 5
REMARK VINA RESULT:      -5.9     16.691     17.433
REMARK  Name = 
REMARK  6 active torsions:
REMARK  status: ('A' for Active; 'I' for Inactive)
REMARK    1  A    between atoms: C_2  and  C_4
REMARK    2  A    between atoms: C_7  and  N_8
REMARK    3  A    between atoms: N_11  and  C_12
REMARK    4  A    between atoms: C_16  and  O_20
REMARK    5  A    between atoms: O_20  and  C_21
REMARK    6  A    between atoms: N_23  and  C_24
REMARK                            x       y       z     vdW  Elec       q    Type
REMARK                         _______ _______ _______ _____ _____    ______ ____
ROOT
ATOM     12  C   UNL     1      -3.274  -9.827  10.744  0.00  0.00    +0.156 C 
ATOM     13  C   UNL     1      -3.400  -9.019  10.848  0.00  0.00    +0.166 C 
ATOM     14  O   UNL     1      -3.929  -8.767  10.268  0.00  0.00    -0.348 OA
ATOM     15  C   UNL     1      -4.130  -9.419   9.805  0.00  0.00    +0.186 C 
ATOM     16  C   UNL     1      -4.581  -9.667   9.160  0.00  0.00    +0.229 C 
ATOM     17  C   UNL     1      -4.455 -10.475   9.056  0.00  0.00    +0.188 C 
ATOM     18  O   UNL     1      -3.926 -10.727   9.636  0.00  0.00    -0.348 OA
ATOM     19  C   UNL     1      -3.725 -10.074  10.099  0.00  0.00    +0.168 C 
ENDROOT
BRANCH  12  11
ATOM      8  N   UNL     1      -2.332 -10.745  12.486  0.00  0.00    -0.161 NA
ATOM      9  C   UNL     1      -2.823 -10.268  12.027  0.00  0.00    +0.344 C 
ATOM     10  O   UNL     1      -3.355  -9.752  12.390  0.00  0.00    -0.249 OA
ATOM     11  N   UNL     1      -2.782 -10.305  11.203  0.00  0.00    -0.184 NA
BRANCH   8   7
ATOM      4  C   UNL     1      -2.452 -10.633  14.956  0.00  0.00    +0.035 A 
ATOM      5  C   UNL     1      -1.722 -10.581  14.576  0.00  0.00    +0.004 A 
ATOM      6  C   UNL     1      -1.682 -10.618  13.752  0.00  0.00    +0.017 A 
ATOM      7  C   UNL     1      -2.372 -10.707  13.309  0.00  0.00    +0.075 A 
ATOM     30  C   UNL     1      -3.102 -10.759  13.690  0.00  0.00    +0.017 A 
ATOM     31  C   UNL     1      -3.142 -10.722  14.513  0.00  0.00    +0.004 A 
BRANCH   4   2
ATOM      1  C   UNL     1      -1.797 -10.569  16.224  0.00  0.00    +0.077 C 
ATOM      2  C   UNL     1      -2.492 -10.595  15.779  0.00  0.00    +0.173 C 
ATOM      3  O   UNL     1      -3.225 -10.584  16.157  0.00  0.00    -0.291 OA
ENDBRANCH   4   2
ENDBRANCH   8   7
ENDBRANCH  12  11
BRANCH  16  20
ATOM     20  O   UNL     1      -5.073  -9.190   8.701  0.00  0.00    -0.432 OA
BRANCH  20  21
ATOM     21  C   UNL     1      -5.872  -9.377   8.619  0.00  0.00    +0.421 C 
ATOM     22  O   UNL     1      -6.097 -10.042   8.185  0.00  0.00    -0.225 OA
ATOM     23  N   UNL     1      -6.446  -8.902   8.970  0.00  0.00    -0.170 NA
BRANCH  23  24
ATOM     24  C   UNL     1      -7.245  -9.090   8.889  0.00  0.00    +0.099 C 
ATOM     25  C   UNL     1      -7.653  -8.872   8.206  0.00  0.00    +0.022 C 
ATOM     26  C   UNL     1      -8.451  -9.060   8.124  0.00  0.00    +0.002 C 
ATOM     27  C   UNL     1      -8.844  -9.466   8.726  0.00  0.00    +0.000 C 
ATOM     28  C   UNL     1      -8.436  -9.684   9.410  0.00  0.00    +0.002 C 
ATOM     29  C   UNL     1      -7.637  -9.496   9.491  0.00  0.00    +0.022 C 
ENDBRANCH  23  24
ENDBRANCH  20  21
ENDBRANCH  16  20
TORSDOF 6
ENDMDL
MODEL 6
REMARK VINA RESULT:      -5.8     15.274     17.183
REMARK  Name = 
REMARK  6 active torsions:
REMARK  status: ('A' for Active; 'I' for Inactive)
REMARK    1  A    between atoms: C_2  and  C_4
REMARK    2  A    between atoms: C_7  and  N_8
REMARK    3  A    between atoms: N_11  and  C_12
REMARK    4  A    between atoms: C_16  and  O_20
REMARK    5  A    between atoms: O_20  and  C_21
REMARK    6  A    between atoms: N_23  and  C_24
REMARK                            x       y       z     vdW  Elec       q    Type
REMARK                         _______ _______ _______ _____ _____    ______ ____
ROOT
ATOM     12  C   UNL     1      -6.719 -10.486  14.673  0.00  0.00    +0.156 C 
ATOM     13  C   UNL     1      -6.065 -10.233  15.108  0.00  0.00    +0.166 C 
ATOM     14  O   UNL     1      -5.427 -10.162  14.590  0.00  0.00    -0.348 OA
ATOM     15  C   UNL     1      -5.686 -10.371  13.836  0.00  0.00    +0.186 C 
ATOM     16  C   UNL     1      -5.453 -10.457  13.049  0.00  0.00    +0.229 C 
ATOM     17  C   UNL     1      -6.107 -10.711  12.615  0.00  0.00    +0.188 C 
ATOM     18  O   UNL     1      -6.745 -10.781  13.133  0.00  0.00    -0.348 OA
ATOM     19  C   UNL     1      -6.485 -10.572  13.888  0.00  0.00    +0.168 C 
ENDROOT
BRANCH  12  11
ATOM      8  N   UNL     1      -8.652 -10.161  15.635  0.00  0.00    -0.161 NA
ATOM      9  C   UNL     1      -7.897 -10.019  15.335  0.00  0.00    +0.344 C 
ATOM     10  O   UNL     1      -7.563  -9.267  15.398  0.00  0.00    -0.249 OA
ATOM     11  N   UNL     1      -7.475 -10.628  14.973  0.00  0.00    -0.184 NA
BRANCH   8   7
ATOM      4  C   UNL     1      -9.919  -8.333  16.721  0.00  0.00    +0.035 A 
ATOM      5  C   UNL     1     -10.006  -8.472  15.912  0.00  0.00    +0.004 A 
ATOM      6  C   UNL     1      -9.583  -9.081  15.551  0.00  0.00    +0.017 A 
ATOM      7  C   UNL     1      -9.074  -9.552  15.997  0.00  0.00    +0.075 A 
ATOM     30  C   UNL     1      -8.987  -9.413  16.805  0.00  0.00    +0.017 A 
ATOM     31  C   UNL     1      -9.410  -8.804  17.168  0.00  0.00    +0.004 A 
BRANCH   4   2
ATOM      1  C   UNL     1     -10.521  -7.039  16.658  0.00  0.00    +0.077 C 
ATOM      2  C   UNL     1     -10.341  -7.724  17.082  0.00  0.00    +0.173 C 
ATOM      3  O   UNL     1     -10.585  -7.799  17.867  0.00  0.00    -0.291 OA
ENDBRANCH   4   2
ENDBRANCH   8   7
ENDBRANCH  12  11
BRANCH  16  20
ATOM     20  O   UNL     1      -4.698 -10.315  12.749  0.00  0.00    -0.432 OA
BRANCH  20  21
ATOM     21  C   UNL     1      -4.607  -9.968  12.006  0.00  0.00    +0.421 C 
ATOM     22  O   UNL     1      -5.071  -9.320  11.794  0.00  0.00    -0.225 OA
ATOM     23  N   UNL     1      -4.053 -10.270  11.475  0.00  0.00    -0.170 NA
BRANCH  23  24
ATOM     24  C   UNL     1      -3.962  -9.923  10.732  0.00  0.00    +0.099 C 
ATOM     25  C   UNL     1      -4.371 -10.225  10.083  0.00  0.00    +0.022 C 
ATOM     26  C   UNL     1      -4.281  -9.880   9.340  0.00  0.00    +0.002 C 
ATOM     27  C   UNL     1      -3.780  -9.230   9.245  0.00  0.00    +0.000 C 
ATOM     28  C   UNL     1      -3.370  -8.928   9.895  0.00  0.00    +0.002 C 
ATOM     29  C   UNL     1      -3.461  -9.275  10.638  0.00  0.00    +0.022 C 
ENDBRANCH  23  24
ENDBRANCH  20  21
ENDBRANCH  16  20
TORSDOF 6
ENDMDL
MODEL 7
REMARK VINA RESULT:      -5.3     14.949     16.807
REMARK  Name = 
REMARK  6 active torsions:
REMARK  status: ('A' for Active; 'I' for Inactive)
REMARK    1  A    between atoms: C_2  and  C_4
REMARK    2  A    between atoms: C_7  and  N_8
REMARK    3  A    between atoms: N_11  and  C_12
REMARK    4  A    between atoms: C_16  and  O_20
REMARK    5  A    between atoms: O_20  and  C_21
REMARK    6  A    between atoms: N_23  and  C_24
REMARK                            x       y       z     vdW  Elec       q    Type
REMARK                         _______ _______ _______ _____ _____    ______ ____
ROOT
ATOM     12  C   UNL     1      -6.114 -10.113  14.388  0.00  0.00    +0.156 C 
ATOM     13  C   UNL     1      -5.578 -10.520  14.866  0.00  0.00    +0.166 C 
ATOM     14  O   UNL     1      -4.939 -10.746  14.395  0.00  0.00    -0.348 OA
ATOM     15  C   UNL     1      -5.080 -10.480  13.628  0.00  0.00    +0.186 C 
ATOM     16  C   UNL     1      -4.773 -10.455  12.862  0.00  0.00    +0.229 C 
ATOM     17  C   UNL     1      -5.309 -10.049  12.385  0.00  0.00    +0.188 C 
ATOM     18  O   UNL     1      -5.948  -9.823  12.855  0.00  0.00    -0.348 OA
ATOM     19  C   UNL     1      -5.806 -10.089  13.624  0.00  0.00    +0.168 C 
ENDROOT
BRANCH  12  11
ATOM      8  N   UNL     1      -7.852  -9.646  15.623  0.00  0.00    -0.161 NA
ATOM      9  C   UNL     1      -7.135  -9.971  15.379  0.00  0.00    +0.344 C 
ATOM     10  O   UNL     1      -6.718 -10.479  15.879  0.00  0.00    -0.249 OA
ATOM     11  N   UNL     1      -6.832  -9.789  14.633  0.00  0.00    -0.184 NA
BRANCH   8   7
ATOM      4  C   UNL     1      -8.760 -10.192  17.860  0.00  0.00    +0.035 A 
ATOM      5  C   UNL     1      -8.276  -9.531  17.761  0.00  0.00    +0.004 A 
ATOM      6  C   UNL     1      -7.974  -9.350  17.016  0.00  0.00    +0.017 A 
ATOM      7  C   UNL     1      -8.155  -9.829  16.369  0.00  0.00    +0.075 A 
ATOM     30  C   UNL     1      -8.638 -10.489  16.468  0.00  0.00    +0.017 A 
ATOM     31  C   UNL     1      -8.941 -10.671  17.214  0.00  0.00    +0.004 A 
BRANCH   4   2
ATOM      1  C   UNL     1      -8.596 -10.781  19.152  0.00  0.00    +0.077 C 
ATOM      2  C   UNL     1      -9.062 -10.374  18.606  0.00  0.00    +0.173 C 
ATOM      3  O   UNL     1      -9.830 -10.149  18.806  0.00  0.00    -0.291 OA
ENDBRANCH   4   2
ENDBRANCH   8   7
ENDBRANCH  12  11
BRANCH  16  20
ATOM     20  O   UNL     1      -4.055 -10.780  12.618  0.00  0.00    -0.432 OA
BRANCH  20  21
ATOM     21  C   UNL     1      -3.450 -10.288  12.349  0.00  0.00    +0.421 C 
ATOM     22  O   UNL     1      -3.293  -9.578  12.736  0.00  0.00    -0.225 OA
ATOM     23  N   UNL     1      -3.001 -10.507  11.692  0.00  0.00    -0.170 NA
BRANCH  23  24
ATOM     24  C   UNL     1      -2.396 -10.015  11.423  0.00  0.00    +0.099 C 
ATOM     25  C   UNL     1      -1.683  -9.974  11.836  0.00  0.00    +0.022 C 
ATOM     26  C   UNL     1      -1.078  -9.483  11.568  0.00  0.00    +0.002 C 
ATOM     27  C   UNL     1      -1.185  -9.031  10.885  0.00  0.00    +0.000 C 
ATOM     28  C   UNL     1      -1.899  -9.073  10.471  0.00  0.00    +0.002 C 
ATOM     29  C   UNL     1      -2.503  -9.565  10.741  0.00  0.00    +0.022 C 
ENDBRANCH  23  24
ENDBRANCH  20  21
ENDBRANCH  16  20
TORSDOF 6
ENDMDL
MODEL 8
REMARK VINA RESULT:      -5.2     14.964     16.430
REMARK  Name = 
REMARK  6 active torsions:
REMARK  status: ('A' for Active; 'I' for Inactive)
REMARK    1  A    between atoms: C_2  and  C_4
REMARK    2  A    between atoms: C_7  and  N_8
REMARK    3  A    between atoms: N_11  and  C_12
REMARK    4  A    between atoms: C_16  and  O_20
REMARK    5  A    between atoms: O_20  and  C_21
REMARK    6  A    between atoms: N_23  and  C_24
REMARK                            x       y       z     vdW  Elec       q    Type
REMARK                         _______ _______ _______ _____ _____    ______ ____
ROOT
ATOM     12  C   UNL     1      -5.741 -10.201  14.812  0.00  0.00    +0.156 C 
ATOM     13  C   UNL     1      -4.932 -10.223  14.971  0.00  0.00    +0.166 C 
ATOM     14  O   UNL     1      -4.536 -10.332  14.256  0.00  0.00    -0.348 OA
ATOM     15  C   UNL     1      -5.098 -10.377  13.656  0.00  0.00    +0.186 C 
ATOM     16  C   UNL     1      -5.202 -10.471  12.843  0.00  0.00    +0.229 C 
ATOM     17  C   UNL     1      -6.011 -10.449  12.684  0.00  0.00    +0.188 C 
ATOM     18  O   UNL     1      -6.408 -10.341  13.398  0.00  0.00    -0.348 OA
ATOM     19  C   UNL     1      -5.844 -10.296  13.999  0.00  0.00    +0.168 C 
ENDROOT
BRANCH  12  11
ATOM      8  N   UNL     1      -6.793 -10.143  16.724  0.00  0.00    -0.161 NA
ATOM      9  C   UNL     1      -6.192 -10.243  16.168  0.00  0.00    +0.344 C 
ATOM     10  O   UNL     1      -5.441 -10.483  16.409  0.00  0.00    -0.249 OA
ATOM     11  N   UNL     1      -6.342 -10.102  15.369  0.00  0.00    -0.184 NA
BRANCH   8   7
ATOM      4  C   UNL     1      -6.342 -10.566  19.121  0.00  0.00    +0.035 A 
ATOM      5  C   UNL     1      -5.716 -10.511  18.586  0.00  0.00    +0.004 A 
ATOM      6  C   UNL     1      -5.866 -10.370  17.788  0.00  0.00    +0.017 A 
ATOM      7  C   UNL     1      -6.643 -10.284  17.523  0.00  0.00    +0.075 A 
ATOM     30  C   UNL     1      -7.269 -10.339  18.057  0.00  0.00    +0.017 A 
ATOM     31  C   UNL     1      -7.119 -10.480  18.856  0.00  0.00    +0.004 A 
BRANCH   4   2
ATOM      1  C   UNL     1      -5.414 -10.780  20.186  0.00  0.00    +0.077 C 
ATOM      2  C   UNL     1      -6.192 -10.707  19.919  0.00  0.00    +0.173 C 
ATOM      3  O   UNL     1      -6.818 -10.776  20.452  0.00  0.00    -0.291 OA
ENDBRANCH   4   2
ENDBRANCH   8   7
ENDBRANCH  12  11
BRANCH  16  20
ATOM     20  O   UNL     1      -4.601 -10.571  12.286  0.00  0.00    -0.432 OA
BRANCH  20  21
ATOM     21  C   UNL     1      -4.667 -10.223  11.540  0.00  0.00    +0.421 C 
ATOM     22  O   UNL     1      -5.409 -10.136  11.190  0.00  0.00    -0.225 OA
ATOM     23  N   UNL     1      -3.992  -9.962  11.146  0.00  0.00    -0.170 NA
BRANCH  23  24
ATOM     24  C   UNL     1      -4.058  -9.614  10.400  0.00  0.00    +0.099 C 
ATOM     25  C   UNL     1      -3.780 -10.012   9.733  0.00  0.00    +0.022 C 
ATOM     26  C   UNL     1      -3.846  -9.664   8.989  0.00  0.00    +0.002 C 
ATOM     27  C   UNL     1      -4.190  -8.918   8.910  0.00  0.00    +0.000 C 
ATOM     28  C   UNL     1      -4.467  -8.520   9.578  0.00  0.00    +0.002 C 
ATOM     29  C   UNL     1      -4.401  -8.868  10.323  0.00  0.00    +0.022 C 
ENDBRANCH  23  24
ENDBRANCH  20  21
ENDBRANCH  16  20
TORSDOF 6
ENDMDL
MODEL 9
REMARK VINA RESULT:      -5.2     14.544     15.092
REMARK  Name = 
REMARK  6 active torsions:
REMARK  status: ('A' for Active; 'I' for Inactive)
REMARK    1  A    between atoms: C_2  and  C_4
REMARK    2  A    between atoms: C_7  and  N_8
REMARK    3  A    between atoms: N_11  and  C_12
REMARK    4  A    between atoms: C_16  and  O_20
REMARK    5  A    between atoms: O_20  and  C_21
REMARK    6  A    between atoms: N_23  and  C_24
REMARK                            x       y       z     vdW  Elec       q    Type
REMARK                         _______ _______ _______ _____ _____    ______ ____
ROOT
ATOM     12  C   UNL     1      -4.695 -10.698  14.253  0.00  0.00    +0.156 C 
ATOM     13  C   UNL     1      -5.186 -10.679  13.590  0.00  0.00    +0.166 C 
ATOM     14  O   UNL     1      -5.963 -10.589  13.851  0.00  0.00    -0.348 OA
ATOM     15  C   UNL     1      -5.953 -10.553  14.674  0.00  0.00    +0.186 C 
ATOM     16  C   UNL     1      -6.427 -10.475  15.346  0.00  0.00    +0.229 C 
ATOM     17  C   UNL     1      -5.936 -10.495  16.008  0.00  0.00    +0.188 C 
ATOM     18  O   UNL     1      -5.159 -10.585  15.747  0.00  0.00    -0.348 OA
ATOM     19  C   UNL     1      -5.169 -10.621  14.923  0.00  0.00    +0.168 C 
ENDROOT
BRANCH  12  11
ATOM      8  N   UNL     1      -2.610 -10.531  13.629  0.00  0.00    -0.161 NA
ATOM      9  C   UNL     1      -3.430 -10.448  13.635  0.00  0.00    +0.344 C 
ATOM     10  O   UNL     1      -3.809 -10.032  13.031  0.00  0.00    -0.249 OA
ATOM     11  N   UNL     1      -3.874 -10.781  14.246  0.00  0.00    -0.184 NA
BRANCH   8   7
ATOM      4  C   UNL     1      -1.279  -9.532  11.796  0.00  0.00    +0.035 A 
ATOM      5  C   UNL     1      -1.845 -10.109  11.628  0.00  0.00    +0.004 A 
ATOM      6  C   UNL     1      -2.288 -10.442  12.240  0.00  0.00    +0.017 A 
ATOM      7  C   UNL     1      -2.166 -10.198  13.018  0.00  0.00    +0.075 A 
ATOM     30  C   UNL     1      -1.601  -9.621  13.185  0.00  0.00    +0.017 A 
ATOM     31  C   UNL     1      -1.158  -9.288  12.575  0.00  0.00    +0.004 A 
BRANCH   4   2
ATOM      1  C   UNL     1      -0.012  -9.193  11.230  0.00  0.00    +0.077 C 
ATOM      2  C   UNL     1      -0.836  -9.200  11.185  0.00  0.00    +0.173 C 
ATOM      3  O   UNL     1      -1.216  -8.873  10.530  0.00  0.00    -0.291 OA
ENDBRANCH   4   2
ENDBRANCH   8   7
ENDBRANCH  12  11
BRANCH  16  20
ATOM     20  O   UNL     1      -7.248 -10.392  15.352  0.00  0.00    -0.432 OA
BRANCH  20  21
ATOM     21  C   UNL     1      -7.607  -9.879  15.889  0.00  0.00    +0.421 C 
ATOM     22  O   UNL     1      -7.144  -9.374  16.349  0.00  0.00    -0.225 OA
ATOM     23  N   UNL     1      -8.427  -9.870  15.966  0.00  0.00    -0.170 NA
BRANCH  23  24
ATOM     24  C   UNL     1      -8.786  -9.356  16.503  0.00  0.00    +0.099 C 
ATOM     25  C   UNL     1      -8.723  -9.496  17.313  0.00  0.00    +0.022 C 
ATOM     26  C   UNL     1      -9.082  -8.983  17.850  0.00  0.00    +0.002 C 
ATOM     27  C   UNL     1      -9.504  -8.329  17.576  0.00  0.00    +0.000 C 
ATOM     28  C   UNL     1      -9.568  -8.189  16.765  0.00  0.00    +0.002 C 
ATOM     29  C   UNL     1      -9.208  -8.703  16.229  0.00  0.00    +0.022 C 
ENDBRANCH  23  24
ENDBRANCH  20  21
ENDBRANCH  16  20
TORSDOF 6
ENDMDL
