REMARK  Name = 
REMARK  6 active torsions:
REMARK  status: ('A' for Active; 'I' for Inactive)
REMARK    1  A    between atoms: C_2  and  C_3
REMARK    2  A    between atoms: C_3  and  N_4
REMARK    3  A    between atoms: C_5  and  O_7
REMARK    4  A    between atoms: O_7  and  C_8
REMARK    5  A    between atoms: C_8  and  C_9
REMARK    6  A    between atoms: C_16  and  C_17
REMARK                            x       y       z     vdW  Elec       q    Type
REMARK                         _______ _______ _______ _____ _____    ______ ____
ROOT
ATOM      9  C   UNL     1       1.814  -2.106   0.000  0.00  0.00    +0.102 C 
ATOM     10  C   UNL     1       1.661  -1.343   0.000  0.00  0.00    +0.021 C 
ATOM     11  C   UNL     1       0.923  -1.010   0.000  0.00  0.00    +0.016 C 
ATOM     12  C   UNL     1       0.961  -0.114   0.000  0.00  0.00    +0.018 C 
ATOM     13  C   UNL     1       1.205  -0.720   0.000  0.00  0.00    +0.072 C 
ATOM     14  N   UNL     1       1.065  -1.759   0.000  0.00  0.00    -0.270 NA
ATOM     15  C   UNL     1       0.226  -2.118   0.000  0.00  0.00    +0.085 C 
ATOM     16  C   UNL     1       0.119  -1.362   0.000  0.00  0.00    +0.081 C 
ENDROOT
BRANCH  16  17
ATOM     17  C   UNL     1      -0.602  -0.960   0.000  0.00  0.00    -0.078 C 
ATOM     18  C   UNL     1      -1.322  -0.559   0.000  0.00  0.00    -0.014 C 
ENDBRANCH  16  17
BRANCH   9   8
ATOM      8  C   UNL     1       2.324  -2.754   0.000  0.00  0.00    +0.226 C 
BRANCH   8   7
ATOM      7  O   UNL     1       2.018  -3.520   0.000  0.00  0.00    -0.432 OA
BRANCH   7   5
ATOM      4  N   UNL     1       2.223  -4.934   0.000  0.00  0.00    -0.169 NA
ATOM      5  C   UNL     1       2.529  -4.168   0.000  0.00  0.00    +0.421 C 
ATOM      6  O   UNL     1       3.345  -4.050   0.000  0.00  0.00    -0.225 OA
BRANCH   4   3
ATOM      3  C   UNL     1       2.733  -5.582   0.000  0.00  0.00    +0.119 C 
BRANCH   3   2
ATOM      1  C   UNL     1       2.938  -6.996   0.000  0.00  0.00    +0.002 C 
ATOM      2  C   UNL     1       2.427  -6.348   0.000  0.00  0.00    +0.024 C 
ENDBRANCH   3   2
ENDBRANCH   4   3
ENDBRANCH   7   5
ENDBRANCH   8   7
ENDBRANCH   9   8
TORSDOF 6
