MODEL 1
REMARK VINA RESULT:     -11.1      0.000      0.000
REMARK  Name = 
REMARK  4 active torsions:
REMARK  status: ('A' for Active; 'I' for Inactive)
REMARK    1  A    between atoms: O_2  and  C_3
REMARK    2  A    between atoms: C_6  and  C_9
REMARK    3  A    between atoms: C_11  and  C_12
REMARK    4  A    between atoms: C_12  and  C_13
REMARK                            x       y       z     vdW  Elec       q    Type
REMARK                         _______ _______ _______ _____ _____    ______ ____
ROOT
ATOM      9  C   UNL     1      -3.847   1.813  24.879  0.00  0.00    +0.177 A 
ATOM     10  C   UNL     1      -3.633   1.160  24.423  0.00  0.00    +0.058 A 
ATOM     11  C   UNL     1      -4.199   0.572  24.538  0.00  0.00    +0.101 A 
ATOM     20  N   UNL     1      -4.763   0.860  25.065  0.00  0.00    -0.081 NA
ATOM     21  O   UNL     1      -4.546   1.628  25.276  0.00  0.00    -0.354 OA
ENDROOT
BRANCH   9   6
ATOM      3  C   UNL     1      -2.611   3.952  25.030  0.00  0.00    +0.139 A 
ATOM      4  C   UNL     1      -3.317   3.914  24.607  0.00  0.00    +0.037 A 
ATOM      5  C   UNL     1      -3.730   3.201  24.556  0.00  0.00    +0.006 A 
ATOM      6  C   UNL     1      -3.435   2.526  24.929  0.00  0.00    +0.037 A 
ATOM      7  C   UNL     1      -2.728   2.565  25.353  0.00  0.00    +0.006 A 
ATOM      8  C   UNL     1      -2.316   3.277  25.403  0.00  0.00    +0.037 A 
BRANCH   3   2
ATOM      1  C   UNL     1      -1.374   4.663  25.118  0.00  0.00    +0.252 C 
ATOM      2  O   UNL     1      -2.198   4.665  25.081  0.00  0.00    -0.471 OA
ENDBRANCH   3   2
ENDBRANCH   9   6
BRANCH  11  12
ATOM     12  C   UNL     1      -4.200  -0.175  24.186  0.00  0.00    +0.049 C 
BRANCH  12  13
ATOM     13  C   UNL     1      -3.948  -0.833  24.616  0.00  0.00    +0.009 C 
ATOM     14  C   UNL     1      -3.644  -0.954  25.372  0.00  0.00    +0.019 C 
ATOM     15  C   UNL     1      -3.592  -1.764  25.223  0.00  0.00    +0.092 C 
ATOM     16  N   UNL     1      -3.341  -2.422  25.652  0.00  0.00    -0.133 NA
ATOM     17  C   UNL     1      -3.898  -1.643  24.465  0.00  0.00    +0.017 C 
ATOM     18  C   UNL     1      -3.919  -2.402  24.143  0.00  0.00    +0.001 C 
ATOM     19  C   UNL     1      -4.182  -1.714  23.694  0.00  0.00    +0.001 C 
ENDBRANCH  12  13
ENDBRANCH  11  12
TORSDOF 4
ENDMDL
MODEL 2
REMARK VINA RESULT:     -10.6      1.648      2.123
REMARK  Name = 
REMARK  4 active torsions:
REMARK  status: ('A' for Active; 'I' for Inactive)
REMARK    1  A    between atoms: O_2  and  C_3
REMARK    2  A    between atoms: C_6  and  C_9
REMARK    3  A    between atoms: C_11  and  C_12
REMARK    4  A    between atoms: C_12  and  C_13
REMARK                            x       y       z     vdW  Elec       q    Type
REMARK                         _______ _______ _______ _____ _____    ______ ____
ROOT
ATOM      9  C   UNL     1      -4.135   1.248  24.693  0.00  0.00    +0.177 A 
ATOM     10  C   UNL     1      -4.008   0.538  25.093  0.00  0.00    +0.058 A 
ATOM     11  C   UNL     1      -3.549   0.052  24.610  0.00  0.00    +0.101 A 
ATOM     20  N   UNL     1      -3.392   0.460  23.911  0.00  0.00    -0.081 NA
ATOM     21  O   UNL     1      -3.754   1.200  23.962  0.00  0.00    -0.354 OA
ENDROOT
BRANCH   9   6
ATOM      3  C   UNL     1      -5.431   3.181  25.535  0.00  0.00    +0.139 A 
ATOM      4  C   UNL     1      -4.624   3.261  25.382  0.00  0.00    +0.037 A 
ATOM      5  C   UNL     1      -4.192   2.616  25.101  0.00  0.00    +0.006 A 
ATOM      6  C   UNL     1      -4.566   1.892  24.973  0.00  0.00    +0.037 A 
ATOM      7  C   UNL     1      -5.374   1.813  25.127  0.00  0.00    +0.006 A 
ATOM      8  C   UNL     1      -5.805   2.456  25.408  0.00  0.00    +0.037 A 
BRANCH   3   2
ATOM      1  C   UNL     1      -5.773   4.566  25.466  0.00  0.00    +0.252 C 
ATOM      2  O   UNL     1      -5.863   3.825  25.816  0.00  0.00    -0.471 OA
ENDBRANCH   3   2
ENDBRANCH   9   6
BRANCH  11  12
ATOM     12  C   UNL     1      -3.291  -0.711  24.794  0.00  0.00    +0.049 C 
BRANCH  12  13
ATOM     13  C   UNL     1      -3.648  -1.364  24.437  0.00  0.00    +0.009 C 
ATOM     14  C   UNL     1      -4.232  -1.469  23.865  0.00  0.00    +0.019 C 
ATOM     15  C   UNL     1      -4.152  -2.288  23.933  0.00  0.00    +0.092 C 
ATOM     16  N   UNL     1      -4.508  -2.940  23.576  0.00  0.00    -0.133 NA
ATOM     17  C   UNL     1      -3.567  -2.182  24.506  0.00  0.00    +0.017 C 
ATOM     18  C   UNL     1      -3.352  -2.953  24.706  0.00  0.00    +0.001 C 
ATOM     19  C   UNL     1      -2.980  -2.271  25.079  0.00  0.00    +0.001 C 
ENDBRANCH  12  13
ENDBRANCH  11  12
TORSDOF 4
ENDMDL
MODEL 3
REMARK VINA RESULT:     -10.5      1.664      4.869
REMARK  Name = 
REMARK  4 active torsions:
REMARK  status: ('A' for Active; 'I' for Inactive)
REMARK    1  A    between atoms: O_2  and  C_3
REMARK    2  A    between atoms: C_6  and  C_9
REMARK    3  A    between atoms: C_11  and  C_12
REMARK    4  A    between atoms: C_12  and  C_13
REMARK                            x       y       z     vdW  Elec       q    Type
REMARK                         _______ _______ _______ _____ _____    ______ ____
ROOT
ATOM      9  C   UNL     1      -3.623   0.563  24.354  0.00  0.00    +0.177 A 
ATOM     10  C   UNL     1      -3.750   1.164  24.905  0.00  0.00    +0.058 A 
ATOM     11  C   UNL     1      -3.672   1.887  24.515  0.00  0.00    +0.101 A 
ATOM     20  N   UNL     1      -3.496   1.733  23.724  0.00  0.00    -0.081 NA
ATOM     21  O   UNL     1      -3.466   0.915  23.625  0.00  0.00    -0.354 OA
ENDROOT
BRANCH   9   6
ATOM      3  C   UNL     1      -3.698  -1.868  24.813  0.00  0.00    +0.139 A 
ATOM      4  C   UNL     1      -4.083  -1.561  24.151  0.00  0.00    +0.037 A 
ATOM      5  C   UNL     1      -4.058  -0.751  23.998  0.00  0.00    +0.006 A 
ATOM      6  C   UNL     1      -3.648  -0.247  24.507  0.00  0.00    +0.037 A 
ATOM      7  C   UNL     1      -3.262  -0.554  25.169  0.00  0.00    +0.006 A 
ATOM      8  C   UNL     1      -3.288  -1.364  25.322  0.00  0.00    +0.037 A 
BRANCH   3   2
ATOM      1  C   UNL     1      -3.375  -3.209  24.438  0.00  0.00    +0.252 C 
ATOM      2  O   UNL     1      -3.723  -2.679  24.966  0.00  0.00    -0.471 OA
ENDBRANCH   3   2
ENDBRANCH   9   6
BRANCH  11  12
ATOM     12  C   UNL     1      -3.755   2.634  24.857  0.00  0.00    +0.049 C 
BRANCH  12  13
ATOM     13  C   UNL     1      -3.086   3.087  25.025  0.00  0.00    +0.009 C 
ATOM     14  C   UNL     1      -2.302   3.087  24.770  0.00  0.00    +0.019 C 
ATOM     15  C   UNL     1      -2.141   3.728  25.264  0.00  0.00    +0.092 C 
ATOM     16  N   UNL     1      -1.473   4.181  25.432  0.00  0.00    -0.133 NA
ATOM     17  C   UNL     1      -2.926   3.728  25.520  0.00  0.00    +0.017 C 
ATOM     18  C   UNL     1      -2.952   4.351  26.060  0.00  0.00    +0.001 C 
ATOM     19  C   UNL     1      -3.650   3.877  25.884  0.00  0.00    +0.001 C 
ENDBRANCH  12  13
ENDBRANCH  11  12
TORSDOF 4
ENDMDL
