MODEL 1
REMARK VINA RESULT:     -10.8      0.000      0.000
REMARK  Name = 
REMARK  5 active torsions:
REMARK  status: ('A' for Active; 'I' for Inactive)
REMARK    1  A    between atoms: N_2  and  C_4
REMARK    2  A    between atoms: C_7  and  C_8
REMARK    3  A    between atoms: C_8  and  N_9
REMARK    4  A    between atoms: C_14  and  C_15
REMARK    5  A    between atoms: C_17  and  C_20
REMARK                            x       y       z     vdW  Elec       q    Type
REMARK                         _______ _______ _______ _____ _____    ______ ____
ROOT
ATOM      9  N   UNL     1      -4.476   1.355  24.868  0.00  0.00    -0.260 NA
ATOM     10  C   UNL     1      -5.137   1.014  25.225  0.00  0.00    +0.106 C 
ATOM     11  C   UNL     1      -5.601   1.623  25.535  0.00  0.00    +0.170 C 
ATOM     12  O   UNL     1      -6.314   1.531  25.939  0.00  0.00    -0.222 OA
ATOM     13  C   UNL     1      -5.227   2.339  25.368  0.00  0.00    +0.060 C 
ATOM     14  C   UNL     1      -4.531   2.173  24.956  0.00  0.00    +0.140 C 
ENDROOT
BRANCH  14  15
ATOM     15  C   UNL     1      -3.987   2.727  24.681  0.00  0.00    +0.251 A 
ATOM     16  N   UNL     1      -3.316   2.991  25.084  0.00  0.00    -0.188 NA
ATOM     17  C   UNL     1      -2.932   3.542  24.607  0.00  0.00    +0.223 A 
ATOM     18  N   UNL     1      -3.364   3.620  23.909  0.00  0.00    -0.054 NA
ATOM     19  O   UNL     1      -4.015   3.117  23.954  0.00  0.00    -0.336 OA
BRANCH  17  20
ATOM     20  C   UNL     1      -2.237   3.946  24.795  0.00  0.00    +0.139 A 
ATOM     21  C   UNL     1      -2.275   4.698  25.130  0.00  0.00    +0.121 A 
ATOM     22  N   UNL     1      -1.580   5.102  25.318  0.00  0.00    -0.239 NA
ATOM     23  C   UNL     1      -0.848   4.752  25.170  0.00  0.00    +0.120 A 
ATOM     24  C   UNL     1      -0.809   4.000  24.835  0.00  0.00    +0.120 A 
ATOM     25  N   UNL     1      -1.504   3.596  24.647  0.00  0.00    -0.237 NA
ENDBRANCH  17  20
ENDBRANCH  14  15
BRANCH   9   8
ATOM      8  C   UNL     1      -3.867   0.948  24.489  0.00  0.00    +0.100 C 
BRANCH   8   7
ATOM      4  C   UNL     1      -3.747  -1.520  24.638  0.00  0.00    +0.048 A 
ATOM      5  C   UNL     1      -3.440  -1.055  25.246  0.00  0.00    +0.014 A 
ATOM      6  C   UNL     1      -3.480  -0.233  25.197  0.00  0.00    -0.002 A 
ATOM      7  C   UNL     1      -3.827   0.125  24.539  0.00  0.00    -0.006 A 
ATOM     26  C   UNL     1      -4.135  -0.340  23.931  0.00  0.00    -0.002 A 
ATOM     27  C   UNL     1      -4.094  -1.163  23.981  0.00  0.00    +0.014 A 
BRANCH   4   2
ATOM      1  C   UNL     1      -4.069  -2.809  24.109  0.00  0.00    +0.112 C 
ATOM      2  N   UNL     1      -3.707  -2.342  24.687  0.00  0.00    -0.304 N 
ATOM      3  C   UNL     1      -3.307  -2.700  25.314  0.00  0.00    +0.112 C 
ENDBRANCH   4   2
ENDBRANCH   8   7
ENDBRANCH   9   8
TORSDOF 5
ENDMDL
MODEL 2
REMARK VINA RESULT:     -10.1      2.314      3.230
REMARK  Name = 
REMARK  5 active torsions:
REMARK  status: ('A' for Active; 'I' for Inactive)
REMARK    1  A    between atoms: N_2  and  C_4
REMARK    2  A    between atoms: C_7  and  C_8
REMARK    3  A    between atoms: C_8  and  N_9
REMARK    4  A    between atoms: C_14  and  C_15
REMARK    5  A    between atoms: C_17  and  C_20
REMARK                            x       y       z     vdW  Elec       q    Type
REMARK                         _______ _______ _______ _____ _____    ______ ____
ROOT
ATOM      9  N   UNL     1      -0.809   0.323  24.618  0.00  0.00    -0.260 NA
ATOM     10  C   UNL     1      -0.499  -0.233  24.093  0.00  0.00    +0.106 C 
ATOM     11  C   UNL     1       0.158   0.104  23.724  0.00  0.00    +0.170 C 
ATOM     12  O   UNL     1       0.635  -0.259  23.158  0.00  0.00    -0.222 OA
ATOM     13  C   UNL     1       0.253   0.868  24.021  0.00  0.00    +0.060 C 
ATOM     14  C   UNL     1      -0.345   1.003  24.574  0.00  0.00    +0.140 C 
ENDROOT
BRANCH  14  15
ATOM     15  C   UNL     1      -0.458   1.696  25.006  0.00  0.00    +0.251 A 
ATOM     16  N   UNL     1      -0.832   2.381  24.736  0.00  0.00    -0.188 NA
ATOM     17  C   UNL     1      -0.822   2.934  25.347  0.00  0.00    +0.223 A 
ATOM     18  N   UNL     1      -0.443   2.593  25.994  0.00  0.00    -0.054 NA
ATOM     19  O   UNL     1      -0.218   1.828  25.784  0.00  0.00    -0.336 OA
BRANCH  17  20
ATOM     20  C   UNL     1      -1.137   3.696  25.316  0.00  0.00    +0.139 A 
ATOM     21  C   UNL     1      -1.892   3.843  25.614  0.00  0.00    +0.121 A 
ATOM     22  N   UNL     1      -2.207   4.605  25.583  0.00  0.00    -0.239 NA
ATOM     23  C   UNL     1      -1.767   5.220  25.254  0.00  0.00    +0.120 A 
ATOM     24  C   UNL     1      -1.012   5.074  24.956  0.00  0.00    +0.120 A 
ATOM     25  N   UNL     1      -0.697   4.312  24.987  0.00  0.00    -0.237 NA
ENDBRANCH  17  20
ENDBRANCH  14  15
BRANCH   9   8
ATOM      8  C   UNL     1      -1.468   0.217  25.102  0.00  0.00    +0.100 C 
BRANCH   8   7
ATOM      4  C   UNL     1      -3.124  -1.545  24.571  0.00  0.00    +0.048 A 
ATOM      5  C   UNL     1      -3.224  -0.782  24.273  0.00  0.00    +0.014 A 
ATOM      6  C   UNL     1      -2.672  -0.195  24.450  0.00  0.00    -0.002 A 
ATOM      7  C   UNL     1      -2.020  -0.371  24.925  0.00  0.00    -0.006 A 
ATOM     26  C   UNL     1      -1.921  -1.133  25.223  0.00  0.00    -0.002 A 
ATOM     27  C   UNL     1      -2.473  -1.720  25.045  0.00  0.00    +0.014 A 
BRANCH   4   2
ATOM      1  C   UNL     1      -4.322  -1.958  23.909  0.00  0.00    +0.112 C 
ATOM      2  N   UNL     1      -3.675  -2.132  24.394  0.00  0.00    -0.304 N 
ATOM      3  C   UNL     1      -3.582  -2.892  24.700  0.00  0.00    +0.112 C 
ENDBRANCH   4   2
ENDBRANCH   8   7
ENDBRANCH   9   8
TORSDOF 5
ENDMDL
MODEL 3
REMARK VINA RESULT:      -9.7      0.998      5.065
REMARK  Name = 
REMARK  5 active torsions:
REMARK  status: ('A' for Active; 'I' for Inactive)
REMARK    1  A    between atoms: N_2  and  C_4
REMARK    2  A    between atoms: C_7  and  C_8
REMARK    3  A    between atoms: C_8  and  N_9
REMARK    4  A    between atoms: C_14  and  C_15
REMARK    5  A    between atoms: C_17  and  C_20
REMARK                            x       y       z     vdW  Elec       q    Type
REMARK                         _______ _______ _______ _____ _____    ______ ____
ROOT
ATOM      9  N   UNL     1      -3.916   2.059  25.084  0.00  0.00    -0.260 NA
ATOM     10  C   UNL     1      -4.365   2.670  25.409  0.00  0.00    +0.106 C 
ATOM     11  C   UNL     1      -5.157   2.437  25.397  0.00  0.00    +0.170 C 
ATOM     12  O   UNL     1      -5.796   2.881  25.669  0.00  0.00    -0.222 OA
ATOM     13  C   UNL     1      -5.195   1.683  25.065  0.00  0.00    +0.060 C 
ATOM     14  C   UNL     1      -4.428   1.449  24.871  0.00  0.00    +0.140 C 
ENDROOT
BRANCH  14  15
ATOM     15  C   UNL     1      -4.211   0.733  24.526  0.00  0.00    +0.251 A 
ATOM     16  N   UNL     1      -4.159   0.005  24.912  0.00  0.00    -0.188 NA
ATOM     17  C   UNL     1      -3.924  -0.560  24.359  0.00  0.00    +0.223 A 
ATOM     18  N   UNL     1      -3.831  -0.183  23.632  0.00  0.00    -0.054 NA
ATOM     19  O   UNL     1      -4.009   0.616  23.736  0.00  0.00    -0.336 OA
BRANCH  17  20
ATOM     20  C   UNL     1      -3.804  -1.363  24.508  0.00  0.00    +0.139 A 
ATOM     21  C   UNL     1      -4.115  -1.929  23.994  0.00  0.00    +0.121 A 
ATOM     22  N   UNL     1      -3.994  -2.732  24.142  0.00  0.00    -0.239 NA
ATOM     23  C   UNL     1      -3.563  -2.968  24.804  0.00  0.00    +0.120 A 
ATOM     24  C   UNL     1      -3.251  -2.403  25.318  0.00  0.00    +0.120 A 
ATOM     25  N   UNL     1      -3.372  -1.600  25.170  0.00  0.00    -0.237 NA
ENDBRANCH  17  20
ENDBRANCH  14  15
BRANCH   9   8
ATOM      8  C   UNL     1      -3.096   2.059  24.989  0.00  0.00    +0.100 C 
BRANCH   8   7
ATOM      4  C   UNL     1      -1.840   4.191  25.066  0.00  0.00    +0.048 A 
ATOM      5  C   UNL     1      -2.257   3.982  24.386  0.00  0.00    +0.014 A 
ATOM      6  C   UNL     1      -2.676   3.272  24.359  0.00  0.00    -0.002 A 
ATOM      7  C   UNL     1      -2.677   2.770  25.015  0.00  0.00    -0.006 A 
ATOM     26  C   UNL     1      -2.260   2.978  25.695  0.00  0.00    -0.002 A 
ATOM     27  C   UNL     1      -1.841   3.689  25.720  0.00  0.00    +0.014 A 
BRANCH   4   2
ATOM      1  C   UNL     1      -0.608   4.906  24.952  0.00  0.00    +0.112 C 
ATOM      2  N   UNL     1      -1.422   4.901  25.092  0.00  0.00    -0.304 N 
ATOM      3  C   UNL     1      -1.816   5.607  25.256  0.00  0.00    +0.112 C 
ENDBRANCH   4   2
ENDBRANCH   8   7
ENDBRANCH   9   8
TORSDOF 5
ENDMDL
MODEL 4
REMARK VINA RESULT:      -9.5      2.346      5.861
REMARK  Name = 
REMARK  5 active torsions:
REMARK  status: ('A' for Active; 'I' for Inactive)
REMARK    1  A    between atoms: N_2  and  C_4
REMARK    2  A    between atoms: C_7  and  C_8
REMARK    3  A    between atoms: C_8  and  N_9
REMARK    4  A    between atoms: C_14  and  C_15
REMARK    5  A    between atoms: C_17  and  C_20
REMARK                            x       y       z     vdW  Elec       q    Type
REMARK                         _______ _______ _______ _____ _____    ______ ____
ROOT
ATOM      9  N   UNL     1      -0.688   0.956  24.716  0.00  0.00    -0.260 NA
ATOM     10  C   UNL     1      -0.046   1.318  24.346  0.00  0.00    +0.106 C 
ATOM     11  C   UNL     1       0.345   0.745  23.898  0.00  0.00    +0.170 C 
ATOM     12  O   UNL     1       1.018   0.866  23.437  0.00  0.00    -0.222 OA
ATOM     13  C   UNL     1      -0.057   0.031  23.991  0.00  0.00    +0.060 C 
ATOM     14  C   UNL     1      -0.696   0.162  24.497  0.00  0.00    +0.140 C 
ENDROOT
BRANCH  14  15
ATOM     15  C   UNL     1      -1.245  -0.403  24.741  0.00  0.00    +0.251 A 
ATOM     16  N   UNL     1      -1.869  -0.700  24.289  0.00  0.00    -0.188 NA
ATOM     17  C   UNL     1      -2.276  -1.250  24.748  0.00  0.00    +0.223 A 
ATOM     18  N   UNL     1      -1.905  -1.294  25.483  0.00  0.00    -0.054 NA
ATOM     19  O   UNL     1      -1.268  -0.771  25.479  0.00  0.00    -0.336 OA
BRANCH  17  20
ATOM     20  C   UNL     1      -2.940  -1.682  24.513  0.00  0.00    +0.139 A 
ATOM     21  C   UNL     1      -2.949  -2.502  24.599  0.00  0.00    +0.121 A 
ATOM     22  N   UNL     1      -3.612  -2.934  24.364  0.00  0.00    -0.239 NA
ATOM     23  C   UNL     1      -4.265  -2.544  24.044  0.00  0.00    +0.120 A 
ATOM     24  C   UNL     1      -4.256  -1.724  23.959  0.00  0.00    +0.120 A 
ATOM     25  N   UNL     1      -3.593  -1.293  24.194  0.00  0.00    -0.237 NA
ENDBRANCH  17  20
ENDBRANCH  14  15
BRANCH   9   8
ATOM      8  C   UNL     1      -1.229   1.326  25.217  0.00  0.00    +0.100 C 
BRANCH   8   7
ATOM      4  C   UNL     1      -1.437   3.793  25.210  0.00  0.00    +0.048 A 
ATOM      5  C   UNL     1      -1.902   3.339  24.702  0.00  0.00    +0.014 A 
ATOM      6  C   UNL     1      -1.833   2.517  24.704  0.00  0.00    -0.002 A 
ATOM      7  C   UNL     1      -1.299   2.149  25.215  0.00  0.00    -0.006 A 
ATOM     26  C   UNL     1      -0.834   2.603  25.723  0.00  0.00    -0.002 A 
ATOM     27  C   UNL     1      -0.904   3.426  25.720  0.00  0.00    +0.014 A 
BRANCH   4   2
ATOM      1  C   UNL     1      -0.883   5.081  24.931  0.00  0.00    +0.112 C 
ATOM      2  N   UNL     1      -1.507   4.614  25.208  0.00  0.00    -0.304 N 
ATOM      3  C   UNL     1      -2.198   4.972  25.482  0.00  0.00    +0.112 C 
ENDBRANCH   4   2
ENDBRANCH   8   7
ENDBRANCH   9   8
TORSDOF 5
ENDMDL
MODEL 5
REMARK VINA RESULT:      -9.1      2.166      3.463
REMARK  Name = 
REMARK  5 active torsions:
REMARK  status: ('A' for Active; 'I' for Inactive)
REMARK    1  A    between atoms: N_2  and  C_4
REMARK    2  A    between atoms: C_7  and  C_8
REMARK    3  A    between atoms: C_8  and  N_9
REMARK    4  A    between atoms: C_14  and  C_15
REMARK    5  A    between atoms: C_17  and  C_20
REMARK                            x       y       z     vdW  Elec       q    Type
REMARK                         _______ _______ _______ _____ _____    ______ ____
ROOT
ATOM      9  N   UNL     1      -1.107   1.909  25.138  0.00  0.00    -0.260 NA
ATOM     10  C   UNL     1      -0.369   1.827  25.497  0.00  0.00    +0.106 C 
ATOM     11  C   UNL     1      -0.232   2.501  25.953  0.00  0.00    +0.170 C 
ATOM     12  O   UNL     1       0.440   2.652  26.406  0.00  0.00    -0.222 OA
ATOM     13  C   UNL     1      -0.886   2.999  25.875  0.00  0.00    +0.060 C 
ATOM     14  C   UNL     1      -1.427   2.632  25.371  0.00  0.00    +0.140 C 
ENDROOT
BRANCH  14  15
ATOM     15  C   UNL     1      -2.158   2.935  25.141  0.00  0.00    +0.251 A 
ATOM     16  N   UNL     1      -2.883   2.781  25.504  0.00  0.00    -0.188 NA
ATOM     17  C   UNL     1      -3.466   3.196  25.095  0.00  0.00    +0.223 A 
ATOM     18  N   UNL     1      -3.103   3.607  24.479  0.00  0.00    -0.054 NA
ATOM     19  O   UNL     1      -2.295   3.445  24.508  0.00  0.00    -0.336 OA
BRANCH  17  20
ATOM     20  C   UNL     1      -4.273   3.200  25.271  0.00  0.00    +0.139 A 
ATOM     21  C   UNL     1      -4.626   3.884  25.570  0.00  0.00    +0.121 A 
ATOM     22  N   UNL     1      -5.432   3.888  25.746  0.00  0.00    -0.239 NA
ATOM     23  C   UNL     1      -5.884   3.209  25.624  0.00  0.00    +0.120 A 
ATOM     24  C   UNL     1      -5.531   2.525  25.325  0.00  0.00    +0.120 A 
ATOM     25  N   UNL     1      -4.725   2.521  25.149  0.00  0.00    -0.237 NA
ENDBRANCH  17  20
ENDBRANCH  14  15
BRANCH   9   8
ATOM      8  C   UNL     1      -1.463   1.362  24.633  0.00  0.00    +0.100 C 
BRANCH   8   7
ATOM      4  C   UNL     1      -0.986  -1.054  24.892  0.00  0.00    +0.048 A 
ATOM      5  C   UNL     1      -0.570  -0.609  24.336  0.00  0.00    +0.014 A 
ATOM      6  C   UNL     1      -0.728   0.196  24.250  0.00  0.00    -0.002 A 
ATOM      7  C   UNL     1      -1.304   0.556  24.719  0.00  0.00    -0.006 A 
ATOM     26  C   UNL     1      -1.720   0.111  25.275  0.00  0.00    -0.002 A 
ATOM     27  C   UNL     1      -1.561  -0.695  25.361  0.00  0.00    +0.014 A 
BRANCH   4   2
ATOM      1  C   UNL     1      -1.350  -2.418  24.667  0.00  0.00    +0.112 C 
ATOM      2  N   UNL     1      -0.828  -1.858  24.978  0.00  0.00    -0.304 N 
ATOM      3  C   UNL     1      -0.148  -2.106  25.375  0.00  0.00    +0.112 C 
ENDBRANCH   4   2
ENDBRANCH   8   7
ENDBRANCH   9   8
TORSDOF 5
ENDMDL
MODEL 6
REMARK VINA RESULT:      -8.8      2.945      4.742
REMARK  Name = 
REMARK  5 active torsions:
REMARK  status: ('A' for Active; 'I' for Inactive)
REMARK    1  A    between atoms: N_2  and  C_4
REMARK    2  A    between atoms: C_7  and  C_8
REMARK    3  A    between atoms: C_8  and  N_9
REMARK    4  A    between atoms: C_14  and  C_15
REMARK    5  A    between atoms: C_17  and  C_20
REMARK                            x       y       z     vdW  Elec       q    Type
REMARK                         _______ _______ _______ _____ _____    ______ ____
ROOT
ATOM      9  N   UNL     1      -1.721   3.721  25.267  0.00  0.00    -0.260 NA
ATOM     10  C   UNL     1      -1.944   4.515  25.232  0.00  0.00    +0.106 C 
ATOM     11  C   UNL     1      -1.278   4.957  25.027  0.00  0.00    +0.170 C 
ATOM     12  O   UNL     1      -1.250   5.775  24.931  0.00  0.00    -0.222 OA
ATOM     13  C   UNL     1      -0.644   4.436  24.936  0.00  0.00    +0.060 C 
ATOM     14  C   UNL     1      -0.919   3.672  25.084  0.00  0.00    +0.140 C 
ENDROOT
BRANCH  14  15
ATOM     15  C   UNL     1      -0.470   2.981  25.055  0.00  0.00    +0.251 A 
ATOM     16  N   UNL     1      -0.430   2.455  24.420  0.00  0.00    -0.188 NA
ATOM     17  C   UNL     1       0.083   1.843  24.628  0.00  0.00    +0.223 A 
ATOM     18  N   UNL     1       0.359   1.990  25.391  0.00  0.00    -0.054 NA
ATOM     19  O   UNL     1       0.017   2.692  25.654  0.00  0.00    -0.336 OA
BRANCH  17  20
ATOM     20  C   UNL     1       0.284   1.197  24.155  0.00  0.00    +0.139 A 
ATOM     21  C   UNL     1       0.955   1.230  23.677  0.00  0.00    +0.121 A 
ATOM     22  N   UNL     1       1.156   0.584  23.204  0.00  0.00    -0.239 NA
ATOM     23  C   UNL     1       0.686  -0.094  23.210  0.00  0.00    +0.120 A 
ATOM     24  C   UNL     1       0.014  -0.126  23.689  0.00  0.00    +0.120 A 
ATOM     25  N   UNL     1      -0.187   0.520  24.161  0.00  0.00    -0.237 NA
ENDBRANCH  17  20
ENDBRANCH  14  15
BRANCH   9   8
ATOM      8  C   UNL     1      -2.216   3.088  25.453  0.00  0.00    +0.100 C 
BRANCH   8   7
ATOM      4  C   UNL     1      -4.671   3.405  25.499  0.00  0.00    +0.048 A 
ATOM      5  C   UNL     1      -4.307   3.095  24.826  0.00  0.00    +0.014 A 
ATOM      6  C   UNL     1      -3.489   2.989  24.810  0.00  0.00    -0.002 A 
ATOM      7  C   UNL     1      -3.035   3.193  25.468  0.00  0.00    -0.006 A 
ATOM     26  C   UNL     1      -3.398   3.503  26.141  0.00  0.00    -0.002 A 
ATOM     27  C   UNL     1      -4.216   3.608  26.156  0.00  0.00    +0.014 A 
BRANCH   4   2
ATOM      1  C   UNL     1      -5.808   4.270  25.455  0.00  0.00    +0.112 C 
ATOM      2  N   UNL     1      -5.488   3.510  25.514  0.00  0.00    -0.304 N 
ATOM      3  C   UNL     1      -5.988   2.858  25.587  0.00  0.00    +0.112 C 
ENDBRANCH   4   2
ENDBRANCH   8   7
ENDBRANCH   9   8
TORSDOF 5
ENDMDL
MODEL 7
REMARK VINA RESULT:      -8.7      2.691      4.186
REMARK  Name = 
REMARK  5 active torsions:
REMARK  status: ('A' for Active; 'I' for Inactive)
REMARK    1  A    between atoms: N_2  and  C_4
REMARK    2  A    between atoms: C_7  and  C_8
REMARK    3  A    between atoms: C_8  and  N_9
REMARK    4  A    between atoms: C_14  and  C_15
REMARK    5  A    between atoms: C_17  and  C_20
REMARK                            x       y       z     vdW  Elec       q    Type
REMARK                         _______ _______ _______ _____ _____    ______ ____
ROOT
ATOM      9  N   UNL     1      -3.365  -0.651  24.669  0.00  0.00    -0.260 NA
ATOM     10  C   UNL     1      -4.075  -1.029  24.488  0.00  0.00    +0.106 C 
ATOM     11  C   UNL     1      -3.895  -1.764  24.158  0.00  0.00    +0.170 C 
ATOM     12  O   UNL     1      -4.440  -2.325  23.897  0.00  0.00    -0.222 OA
ATOM     13  C   UNL     1      -3.074  -1.838  24.136  0.00  0.00    +0.060 C 
ATOM     14  C   UNL     1      -2.746  -1.150  24.452  0.00  0.00    +0.140 C 
ENDROOT
BRANCH  14  15
ATOM     15  C   UNL     1      -1.942  -0.990  24.535  0.00  0.00    +0.251 A 
ATOM     16  N   UNL     1      -1.477  -0.552  24.012  0.00  0.00    -0.188 NA
ATOM     17  C   UNL     1      -0.709  -0.531  24.310  0.00  0.00    +0.223 A 
ATOM     18  N   UNL     1      -0.698  -0.955  25.017  0.00  0.00    -0.054 NA
ATOM     19  O   UNL     1      -1.459  -1.238  25.156  0.00  0.00    -0.336 OA
BRANCH  17  20
ATOM     20  C   UNL     1      -0.064  -0.151  23.961  0.00  0.00    +0.139 A 
ATOM     21  C   UNL     1       0.096   0.638  24.140  0.00  0.00    +0.121 A 
ATOM     22  N   UNL     1       0.740   1.017  23.791  0.00  0.00    -0.239 NA
ATOM     23  C   UNL     1       1.225   0.607  23.265  0.00  0.00    +0.120 A 
ATOM     24  C   UNL     1       1.066  -0.182  23.086  0.00  0.00    +0.120 A 
ATOM     25  N   UNL     1       0.421  -0.562  23.435  0.00  0.00    -0.237 NA
ENDBRANCH  17  20
ENDBRANCH  14  15
BRANCH   9   8
ATOM      8  C   UNL     1      -3.288   0.097  25.009  0.00  0.00    +0.100 C 
BRANCH   8   7
ATOM      4  C   UNL     1      -5.226   1.636  25.070  0.00  0.00    +0.048 A 
ATOM      5  C   UNL     1      -4.645   1.728  24.492  0.00  0.00    +0.014 A 
ATOM      6  C   UNL     1      -3.998   1.215  24.471  0.00  0.00    -0.002 A 
ATOM      7  C   UNL     1      -3.934   0.610  25.029  0.00  0.00    -0.006 A 
ATOM     26  C   UNL     1      -4.516   0.518  25.607  0.00  0.00    -0.002 A 
ATOM     27  C   UNL     1      -5.162   1.032  25.627  0.00  0.00    +0.014 A 
BRANCH   4   2
ATOM      1  C   UNL     1      -6.592   1.918  24.757  0.00  0.00    +0.112 C 
ATOM      2  N   UNL     1      -5.872   2.148  25.090  0.00  0.00    -0.304 N 
ATOM      3  C   UNL     1      -5.799   2.891  25.441  0.00  0.00    +0.112 C 
ENDBRANCH   4   2
ENDBRANCH   8   7
ENDBRANCH   9   8
TORSDOF 5
ENDMDL
