MODEL 1
REMARK VINA RESULT:     -11.2      0.000      0.000
REMARK  Name = 
REMARK  6 active torsions:
REMARK  status: ('A' for Active; 'I' for Inactive)
REMARK    1  A    between atoms: C_3  and  C_4
REMARK    2  A    between atoms: C_4  and  N_5
REMARK    3  A    between atoms: C_6  and  C_8
REMARK    4  A    between atoms: C_14  and  C_15
REMARK    5  A    between atoms: C_15  and  C_16
REMARK    6  A    between atoms: N_18  and  C_19
REMARK                            x       y       z     vdW  Elec       q    Type
REMARK                         _______ _______ _______ _____ _____    ______ ____
ROOT
ATOM      1  O   UNL     1      -6.367   1.890  25.089  0.00  0.00    -0.218 OA
ATOM      2  C   UNL     1      -5.608   2.191  25.212  0.00  0.00    +0.213 C 
ATOM      3  C   UNL     1      -4.900   1.787  25.085  0.00  0.00    +0.170 C 
ATOM     13  O   UNL     1      -4.280   2.294  25.278  0.00  0.00    -0.351 OA
ATOM     14  C   UNL     1      -4.604   3.012  25.524  0.00  0.00    +0.157 C 
ATOM     25  C   UNL     1      -5.425   2.948  25.483  0.00  0.00    +0.212 C 
ATOM     26  O   UNL     1      -5.968   3.538  25.678  0.00  0.00    -0.218 OA
ENDROOT
BRANCH   3   4
ATOM      4  C   UNL     1      -4.826   1.012  24.814  0.00  0.00    +0.148 C 
BRANCH   4   5
ATOM      5  N   UNL     1      -4.181   0.552  25.047  0.00  0.00    -0.196 NA
ATOM      6  C   UNL     1      -4.086  -0.209  24.744  0.00  0.00    +0.300 C 
ATOM      7  O   UNL     1      -4.636  -0.511  24.209  0.00  0.00    -0.265 OA
BRANCH   6   8
ATOM      8  C   UNL     1      -3.441  -0.668  24.977  0.00  0.00    +0.200 A 
ATOM      9  C   UNL     1      -3.462  -1.297  25.510  0.00  0.00    +0.046 A 
ATOM     10  C   UNL     1      -2.697  -1.598  25.581  0.00  0.00    +0.044 A 
ATOM     11  C   UNL     1      -2.204  -1.154  25.091  0.00  0.00    +0.180 A 
ATOM     12  O   UNL     1      -2.663  -0.580  24.717  0.00  0.00    -0.446 OA
ENDBRANCH   6   8
ENDBRANCH   4   5
ENDBRANCH   3   4
BRANCH  14  15
ATOM     15  C   UNL     1      -4.181   3.678  25.768  0.00  0.00    +0.119 C 
BRANCH  15  16
ATOM     16  C   UNL     1      -3.448   3.847  25.428  0.00  0.00    +0.248 C 
ATOM     17  O   UNL     1      -3.374   3.892  24.608  0.00  0.00    -0.273 OA
ATOM     18  N   UNL     1      -2.789   3.972  25.909  0.00  0.00    -0.179 NA
BRANCH  18  19
ATOM     19  C   UNL     1      -2.057   4.141  25.570  0.00  0.00    +0.073 A 
ATOM     20  C   UNL     1      -1.496   3.543  25.478  0.00  0.00    +0.017 A 
ATOM     21  C   UNL     1      -0.764   3.713  25.139  0.00  0.00    +0.001 A 
ATOM     22  C   UNL     1      -0.592   4.481  24.892  0.00  0.00    +0.000 A 
ATOM     23  C   UNL     1      -1.152   5.079  24.984  0.00  0.00    +0.001 A 
ATOM     24  C   UNL     1      -1.885   4.910  25.323  0.00  0.00    +0.017 A 
ENDBRANCH  18  19
ENDBRANCH  15  16
ENDBRANCH  14  15
TORSDOF 6
ENDMDL
MODEL 2
REMARK VINA RESULT:     -11.2      0.865      4.544
REMARK  Name = 
REMARK  6 active torsions:
REMARK  status: ('A' for Active; 'I' for Inactive)
REMARK    1  A    between atoms: C_3  and  C_4
REMARK    2  A    between atoms: C_4  and  N_5
REMARK    3  A    between atoms: C_6  and  C_8
REMARK    4  A    between atoms: C_14  and  C_15
REMARK    5  A    between atoms: C_15  and  C_16
REMARK    6  A    between atoms: N_18  and  C_19
REMARK                            x       y       z     vdW  Elec       q    Type
REMARK                         _______ _______ _______ _____ _____    ______ ____
ROOT
ATOM      1  O   UNL     1      -5.721   3.383  25.945  0.00  0.00    -0.218 OA
ATOM      2  C   UNL     1      -5.258   2.844  25.527  0.00  0.00    +0.213 C 
ATOM      3  C   UNL     1      -4.436   2.864  25.455  0.00  0.00    +0.170 C 
ATOM     13  O   UNL     1      -4.205   2.222  24.992  0.00  0.00    -0.351 OA
ATOM     14  C   UNL     1      -4.884   1.805  24.778  0.00  0.00    +0.157 C 
ATOM     25  C   UNL     1      -5.534   2.189  25.109  0.00  0.00    +0.212 C 
ATOM     26  O   UNL     1      -6.323   1.959  25.035  0.00  0.00    -0.218 OA
ENDROOT
BRANCH   3   4
ATOM      4  C   UNL     1      -3.934   3.428  25.787  0.00  0.00    +0.148 C 
BRANCH   4   5
ATOM      5  N   UNL     1      -3.204   3.589  25.436  0.00  0.00    -0.196 NA
ATOM      6  C   UNL     1      -2.659   4.073  25.822  0.00  0.00    +0.300 C 
ATOM      7  O   UNL     1      -2.843   4.396  26.558  0.00  0.00    -0.265 OA
BRANCH   6   8
ATOM      8  C   UNL     1      -1.930   4.234  25.471  0.00  0.00    +0.200 A 
ATOM      9  C   UNL     1      -1.676   4.969  25.198  0.00  0.00    +0.046 A 
ATOM     10  C   UNL     1      -0.916   4.879  24.890  0.00  0.00    +0.044 A 
ATOM     11  C   UNL     1      -0.700   4.087  24.974  0.00  0.00    +0.180 A 
ATOM     12  O   UNL     1      -1.326   3.688  25.333  0.00  0.00    -0.446 OA
ENDBRANCH   6   8
ENDBRANCH   4   5
ENDBRANCH   3   4
BRANCH  14  15
ATOM     15  C   UNL     1      -4.908   1.122  24.314  0.00  0.00    +0.119 C 
BRANCH  15  16
ATOM     16  C   UNL     1      -4.358   0.519  24.440  0.00  0.00    +0.248 C 
ATOM     17  O   UNL     1      -3.561   0.647  24.274  0.00  0.00    -0.273 OA
ATOM     18  N   UNL     1      -4.608  -0.211  24.731  0.00  0.00    -0.179 NA
BRANCH  18  19
ATOM     19  C   UNL     1      -4.060  -0.814  24.857  0.00  0.00    +0.073 A 
ATOM     20  C   UNL     1      -3.667  -0.871  25.580  0.00  0.00    +0.017 A 
ATOM     21  C   UNL     1      -3.119  -1.474  25.706  0.00  0.00    +0.001 A 
ATOM     22  C   UNL     1      -2.962  -2.021  25.108  0.00  0.00    +0.000 A 
ATOM     23  C   UNL     1      -3.354  -1.964  24.385  0.00  0.00    +0.001 A 
ATOM     24  C   UNL     1      -3.903  -1.361  24.259  0.00  0.00    +0.017 A 
ENDBRANCH  18  19
ENDBRANCH  15  16
ENDBRANCH  14  15
TORSDOF 6
ENDMDL
MODEL 3
REMARK VINA RESULT:     -10.6      1.601      4.924
REMARK  Name = 
REMARK  6 active torsions:
REMARK  status: ('A' for Active; 'I' for Inactive)
REMARK    1  A    between atoms: C_3  and  C_4
REMARK    2  A    between atoms: C_4  and  N_5
REMARK    3  A    between atoms: C_6  and  C_8
REMARK    4  A    between atoms: C_14  and  C_15
REMARK    5  A    between atoms: C_15  and  C_16
REMARK    6  A    between atoms: N_18  and  C_19
REMARK                            x       y       z     vdW  Elec       q    Type
REMARK                         _______ _______ _______ _____ _____    ______ ____
ROOT
ATOM      1  O   UNL     1      -0.716   3.440  25.238  0.00  0.00    -0.218 OA
ATOM      2  C   UNL     1      -1.006   2.667  25.235  0.00  0.00    +0.213 C 
ATOM      3  C   UNL     1      -1.797   2.447  25.150  0.00  0.00    +0.170 C 
ATOM     13  O   UNL     1      -1.836   1.624  25.180  0.00  0.00    -0.351 OA
ATOM     14  C   UNL     1      -1.070   1.336  25.283  0.00  0.00    +0.157 C 
ATOM     25  C   UNL     1      -0.558   1.980  25.317  0.00  0.00    +0.212 C 
ATOM     26  O   UNL     1       0.261   1.944  25.417  0.00  0.00    -0.218 OA
ENDROOT
BRANCH   3   4
ATOM      4  C   UNL     1      -2.435   2.960  25.052  0.00  0.00    +0.148 C 
BRANCH   4   5
ATOM      5  N   UNL     1      -3.201   2.705  25.226  0.00  0.00    -0.196 NA
ATOM      6  C   UNL     1      -3.848   3.172  25.020  0.00  0.00    +0.300 C 
ATOM      7  O   UNL     1      -3.731   3.894  24.640  0.00  0.00    -0.265 OA
BRANCH   6   8
ATOM      8  C   UNL     1      -4.613   2.917  25.194  0.00  0.00    +0.200 A 
ATOM      9  C   UNL     1      -5.062   2.391  24.745  0.00  0.00    +0.046 A 
ATOM     10  C   UNL     1      -5.791   2.291  25.120  0.00  0.00    +0.044 A 
ATOM     11  C   UNL     1      -5.791   2.757  25.802  0.00  0.00    +0.180 A 
ATOM     12  O   UNL     1      -5.064   3.143  25.848  0.00  0.00    -0.446 OA
ENDBRANCH   6   8
ENDBRANCH   4   5
ENDBRANCH   3   4
BRANCH  14  15
ATOM     15  C   UNL     1      -0.855   0.541  25.342  0.00  0.00    +0.119 C 
BRANCH  15  16
ATOM     16  C   UNL     1      -1.366  -0.046  25.064  0.00  0.00    +0.248 C 
ATOM     17  O   UNL     1      -1.567  -0.072  24.265  0.00  0.00    -0.273 OA
ATOM     18  N   UNL     1      -1.673  -0.606  25.587  0.00  0.00    -0.179 NA
BRANCH  18  19
ATOM     19  C   UNL     1      -2.183  -1.192  25.310  0.00  0.00    +0.073 A 
ATOM     20  C   UNL     1      -1.885  -1.825  24.873  0.00  0.00    +0.017 A 
ATOM     21  C   UNL     1      -2.395  -2.411  24.596  0.00  0.00    +0.001 A 
ATOM     22  C   UNL     1      -3.203  -2.364  24.756  0.00  0.00    +0.000 A 
ATOM     23  C   UNL     1      -3.501  -1.731  25.192  0.00  0.00    +0.001 A 
ATOM     24  C   UNL     1      -2.991  -1.145  25.469  0.00  0.00    +0.017 A 
ENDBRANCH  18  19
ENDBRANCH  15  16
ENDBRANCH  14  15
TORSDOF 6
ENDMDL
MODEL 4
REMARK VINA RESULT:     -10.2      1.842      3.704
REMARK  Name = 
REMARK  6 active torsions:
REMARK  status: ('A' for Active; 'I' for Inactive)
REMARK    1  A    between atoms: C_3  and  C_4
REMARK    2  A    between atoms: C_4  and  N_5
REMARK    3  A    between atoms: C_6  and  C_8
REMARK    4  A    between atoms: C_14  and  C_15
REMARK    5  A    between atoms: C_15  and  C_16
REMARK    6  A    between atoms: N_18  and  C_19
REMARK                            x       y       z     vdW  Elec       q    Type
REMARK                         _______ _______ _______ _____ _____    ______ ____
ROOT
ATOM      1  O   UNL     1       0.271   1.234  24.253  0.00  0.00    -0.218 OA
ATOM      2  C   UNL     1      -0.530   1.419  24.319  0.00  0.00    +0.213 C 
ATOM      3  C   UNL     1      -1.137   0.890  24.502  0.00  0.00    +0.170 C 
ATOM     13  O   UNL     1      -1.846   1.310  24.509  0.00  0.00    -0.351 OA
ATOM     14  C   UNL     1      -1.678   2.098  24.331  0.00  0.00    +0.157 C 
ATOM     25  C   UNL     1      -0.865   2.165  24.213  0.00  0.00    +0.212 C 
ATOM     26  O   UNL     1      -0.458   2.857  24.023  0.00  0.00    -0.218 OA
ENDROOT
BRANCH   3   4
ATOM      4  C   UNL     1      -1.048   0.084  24.651  0.00  0.00    +0.148 C 
BRANCH   4   5
ATOM      5  N   UNL     1      -1.702  -0.418  24.607  0.00  0.00    -0.196 NA
ATOM      6  C   UNL     1      -1.638  -1.201  24.858  0.00  0.00    +0.300 C 
ATOM      7  O   UNL     1      -0.921  -1.482  25.154  0.00  0.00    -0.265 OA
BRANCH   6   8
ATOM      8  C   UNL     1      -2.291  -1.703  24.814  0.00  0.00    +0.200 A 
ATOM      9  C   UNL     1      -2.961  -1.670  25.294  0.00  0.00    +0.046 A 
ATOM     10  C   UNL     1      -3.474  -2.273  25.059  0.00  0.00    +0.044 A 
ATOM     11  C   UNL     1      -3.120  -2.678  24.434  0.00  0.00    +0.180 A 
ATOM     12  O   UNL     1      -2.389  -2.327  24.282  0.00  0.00    -0.446 OA
ENDBRANCH   6   8
ENDBRANCH   4   5
ENDBRANCH   3   4
BRANCH  14  15
ATOM     15  C   UNL     1      -2.229   2.711  24.279  0.00  0.00    +0.119 C 
BRANCH  15  16
ATOM     16  C   UNL     1      -2.948   2.654  24.680  0.00  0.00    +0.248 C 
ATOM     17  O   UNL     1      -2.961   2.633  25.504  0.00  0.00    -0.273 OA
ATOM     18  N   UNL     1      -3.655   2.617  24.255  0.00  0.00    -0.179 NA
BRANCH  18  19
ATOM     19  C   UNL     1      -4.374   2.560  24.654  0.00  0.00    +0.073 A 
ATOM     20  C   UNL     1      -4.691   3.222  25.030  0.00  0.00    +0.017 A 
ATOM     21  C   UNL     1      -5.410   3.165  25.430  0.00  0.00    +0.001 A 
ATOM     22  C   UNL     1      -5.813   2.445  25.453  0.00  0.00    +0.000 A 
ATOM     23  C   UNL     1      -5.496   1.783  25.077  0.00  0.00    +0.001 A 
ATOM     24  C   UNL     1      -4.777   1.840  24.678  0.00  0.00    +0.017 A 
ENDBRANCH  18  19
ENDBRANCH  15  16
ENDBRANCH  14  15
TORSDOF 6
ENDMDL
MODEL 5
REMARK VINA RESULT:      -9.9      1.749      3.890
REMARK  Name = 
REMARK  6 active torsions:
REMARK  status: ('A' for Active; 'I' for Inactive)
REMARK    1  A    between atoms: C_3  and  C_4
REMARK    2  A    between atoms: C_4  and  N_5
REMARK    3  A    between atoms: C_6  and  C_8
REMARK    4  A    between atoms: C_14  and  C_15
REMARK    5  A    between atoms: C_15  and  C_16
REMARK    6  A    between atoms: N_18  and  C_19
REMARK                            x       y       z     vdW  Elec       q    Type
REMARK                         _______ _______ _______ _____ _____    ______ ____
ROOT
ATOM      1  O   UNL     1      -0.240   4.611  24.855  0.00  0.00    -0.218 OA
ATOM      2  C   UNL     1      -0.962   4.237  25.000  0.00  0.00    +0.213 C 
ATOM      3  C   UNL     1      -1.111   3.428  24.934  0.00  0.00    +0.170 C 
ATOM     13  O   UNL     1      -1.901   3.299  25.131  0.00  0.00    -0.351 OA
ATOM     14  C   UNL     1      -2.240   4.027  25.319  0.00  0.00    +0.157 C 
ATOM     25  C   UNL     1      -1.659   4.607  25.239  0.00  0.00    +0.212 C 
ATOM     26  O   UNL     1      -1.759   5.415  25.373  0.00  0.00    -0.218 OA
ENDROOT
BRANCH   3   4
ATOM      4  C   UNL     1      -0.567   2.852  24.709  0.00  0.00    +0.148 C 
BRANCH   4   5
ATOM      5  N   UNL     1      -0.754   2.052  24.791  0.00  0.00    -0.196 NA
ATOM      6  C   UNL     1      -0.223   1.476  24.535  0.00  0.00    +0.300 C 
ATOM      7  O   UNL     1       0.496   1.698  24.197  0.00  0.00    -0.265 OA
BRANCH   6   8
ATOM      8  C   UNL     1      -0.411   0.676  24.616  0.00  0.00    +0.200 A 
ATOM      9  C   UNL     1      -0.308   0.093  24.041  0.00  0.00    +0.046 A 
ATOM     10  C   UNL     1      -0.568  -0.624  24.356  0.00  0.00    +0.044 A 
ATOM     11  C   UNL     1      -0.830  -0.484  25.125  0.00  0.00    +0.180 A 
ATOM     12  O   UNL     1      -0.734   0.319  25.287  0.00  0.00    -0.446 OA
ENDBRANCH   6   8
ENDBRANCH   4   5
ENDBRANCH   3   4
BRANCH  14  15
ATOM     15  C   UNL     1      -3.023   4.153  25.548  0.00  0.00    +0.119 C 
BRANCH  15  16
ATOM     16  C   UNL     1      -3.621   3.662  25.259  0.00  0.00    +0.248 C 
ATOM     17  O   UNL     1      -3.806   3.666  24.456  0.00  0.00    -0.273 OA
ATOM     18  N   UNL     1      -4.033   3.168  25.775  0.00  0.00    -0.179 NA
BRANCH  18  19
ATOM     19  C   UNL     1      -4.630   2.677  25.488  0.00  0.00    +0.073 A 
ATOM     20  C   UNL     1      -4.443   1.934  25.182  0.00  0.00    +0.017 A 
ATOM     21  C   UNL     1      -5.040   1.444  24.894  0.00  0.00    +0.001 A 
ATOM     22  C   UNL     1      -5.826   1.696  24.912  0.00  0.00    +0.000 A 
ATOM     23  C   UNL     1      -6.013   2.439  25.218  0.00  0.00    +0.001 A 
ATOM     24  C   UNL     1      -5.416   2.929  25.505  0.00  0.00    +0.017 A 
ENDBRANCH  18  19
ENDBRANCH  15  16
ENDBRANCH  14  15
TORSDOF 6
ENDMDL
