REMARK  Name = 
REMARK  7 active torsions:
REMARK  status: ('A' for Active; 'I' for Inactive)
REMARK    1  A    between atoms: C_2  and  C_3
REMARK    2  A    between atoms: C_5  and  C_6
REMARK    3  A    between atoms: C_6  and  N_7
REMARK    4  A    between atoms: N_7  and  S_8
REMARK    5  A    between atoms: S_8  and  C_11
REMARK    6  A    between atoms: C_17  and  N_20
REMARK    7  A    between atoms: N_23  and  C_26
REMARK                            x       y       z     vdW  Elec       q    Type
REMARK                         _______ _______ _______ _____ _____    ______ ____
ROOT
ATOM      3  C   UNL     1       0.715  -3.712   0.000  0.00  0.00    +0.180 C 
ATOM      4  O   UNL     1       1.382  -4.197   0.000  0.00  0.00    -0.350 OA
ATOM      5  C   UNL     1       1.127  -4.982   0.000  0.00  0.00    +0.152 C 
ATOM     17  C   UNL     1       0.302  -4.982   0.000  0.00  0.00    +0.120 C 
ATOM     18  C   UNL     1       0.047  -4.197   0.000  0.00  0.00    +0.198 C 
ATOM     19  O   UNL     1      -0.738  -3.942   0.000  0.00  0.00    -0.219 OA
ENDROOT
BRANCH  17  20
ATOM     20  N   UNL     1      -0.183  -5.649   0.000  0.00  0.00    -0.267 NA
ATOM     21  C   UNL     1       0.153  -6.403   0.000  0.00  0.00    +0.094 C 
ATOM     22  C   UNL     1      -0.332  -7.071   0.000  0.00  0.00    +0.108 C 
ATOM     23  N   UNL     1      -1.153  -6.984   0.000  0.00  0.00    -0.305 N 
ATOM     24  C   UNL     1      -1.488  -6.231   0.000  0.00  0.00    +0.108 C 
ATOM     25  C   UNL     1      -1.003  -5.563   0.000  0.00  0.00    +0.094 C 
BRANCH  23  26
ATOM     26  C   UNL     1      -1.638  -7.652   0.000  0.00  0.00    +0.048 A 
ATOM     27  C   UNL     1      -1.302  -8.405   0.000  0.00  0.00    +0.015 A 
ATOM     28  C   UNL     1      -1.787  -9.073   0.000  0.00  0.00    +0.001 A 
ATOM     29  C   UNL     1      -2.608  -8.987   0.000  0.00  0.00    +0.000 A 
ATOM     30  C   UNL     1      -2.943  -8.233   0.000  0.00  0.00    +0.001 A 
ATOM     31  C   UNL     1      -2.458  -7.566   0.000  0.00  0.00    +0.015 A 
ENDBRANCH  23  26
ENDBRANCH  17  20
BRANCH   3   2
ATOM      1  O   UNL     1       0.000  -2.475   0.000  0.00  0.00    -0.218 OA
ATOM      2  C   UNL     1       0.715  -2.888   0.000  0.00  0.00    +0.214 C 
ENDBRANCH   3   2
BRANCH   5   6
ATOM      6  C   UNL     1       1.612  -5.649   0.000  0.00  0.00    +0.146 C 
BRANCH   6   7
ATOM      7  N   UNL     1       2.432  -5.563   0.000  0.00  0.00    -0.075 NA
BRANCH   7   8
ATOM      8  S   UNL     1       2.917  -6.231   0.000  0.00  0.00    +0.077 S 
ATOM      9  O   UNL     1       3.585  -5.746   0.000  0.00  0.00    -0.152 OA
ATOM     10  O   UNL     1       2.250  -6.716   0.000  0.00  0.00    -0.152 OA
BRANCH   8  11
ATOM     11  C   UNL     1       3.402  -6.898   0.000  0.00  0.00    +0.124 A 
ATOM     12  C   UNL     1       4.223  -6.812   0.000  0.00  0.00    +0.020 A 
ATOM     13  C   UNL     1       4.708  -7.479   0.000  0.00  0.00    +0.001 A 
ATOM     14  C   UNL     1       4.372  -8.233   0.000  0.00  0.00    +0.000 A 
ATOM     15  C   UNL     1       3.552  -8.319   0.000  0.00  0.00    +0.001 A 
ATOM     16  C   UNL     1       3.067  -7.652   0.000  0.00  0.00    +0.020 A 
ENDBRANCH   8  11
ENDBRANCH   7   8
ENDBRANCH   6   7
ENDBRANCH   5   6
TORSDOF 7
