MODEL 1
REMARK VINA RESULT:     -11.6      0.000      0.000
REMARK  Name = 
REMARK  9 active torsions:
REMARK  status: ('A' for Active; 'I' for Inactive)
REMARK    1  A    between atoms: O_2  and  C_3
REMARK    2  A    between atoms: C_3  and  C_4
REMARK    3  A    between atoms: C_4  and  O_5
REMARK    4  A    between atoms: O_5  and  C_6
REMARK    5  A    between atoms: C_8  and  C_12
REMARK    6  A    between atoms: C_15  and  C_17
REMARK    7  A    between atoms: N_21  and  C_22
REMARK    8  A    between atoms: C_22  and  C_23
REMARK    9  A    between atoms: C_26  and  N_27
REMARK                            x       y       z     vdW  Elec       q    Type
REMARK                         _______ _______ _______ _____ _____    ______ ____
ROOT
ATOM     12  C   UNL     1      -2.983   3.705  25.566  0.00  0.00    +0.221 A 
ATOM     13  N   UNL     1      -3.422   3.916  26.232  0.00  0.00    -0.054 NA
ATOM     14  O   UNL     1      -4.142   3.513  26.200  0.00  0.00    -0.336 OA
ATOM     15  C   UNL     1      -4.147   3.054  25.515  0.00  0.00    +0.251 A 
ATOM     16  N   UNL     1      -3.431   3.173  25.123  0.00  0.00    -0.188 NA
ENDROOT
BRANCH  12   8
ATOM      6  C   UNL     1      -0.842   3.724  25.140  0.00  0.00    +0.142 A 
ATOM      7  C   UNL     1      -1.597   3.450  25.330  0.00  0.00    +0.059 A 
ATOM      8  C   UNL     1      -2.228   3.979  25.376  0.00  0.00    +0.123 A 
ATOM      9  N   UNL     1      -2.105   4.782  25.232  0.00  0.00    -0.240 NA
ATOM     10  C   UNL     1      -1.350   5.056  25.043  0.00  0.00    +0.102 A 
ATOM     11  C   UNL     1      -0.718   4.526  24.997  0.00  0.00    +0.058 A 
BRANCH   6   5
ATOM      5  O   UNL     1      -0.210   3.194  25.094  0.00  0.00    -0.473 OA
BRANCH   5   4
ATOM      4  C   UNL     1      -0.189   2.629  24.494  0.00  0.00    +0.237 C 
BRANCH   4   3
ATOM      3  C   UNL     1       0.298   1.968  24.568  0.00  0.00    +0.189 C 
BRANCH   3   2
ATOM      1  C   UNL     1       0.190   0.699  23.919  0.00  0.00    +0.174 C 
ATOM      2  O   UNL     1       0.440   1.485  23.914  0.00  0.00    -0.347 OA
ENDBRANCH   3   2
ENDBRANCH   4   3
ENDBRANCH   5   4
ENDBRANCH   6   5
ENDBRANCH  12   8
BRANCH  15  17
ATOM     17  C   UNL     1      -4.761   2.562  25.266  0.00  0.00    +0.138 C 
ATOM     18  C   UNL     1      -5.555   2.776  25.194  0.00  0.00    +0.027 C 
ATOM     19  C   UNL     1      -5.973   2.117  24.928  0.00  0.00    +0.019 C 
ATOM     20  C   UNL     1      -5.438   1.496  24.835  0.00  0.00    +0.073 C 
ATOM     21  N   UNL     1      -4.689   1.771  25.044  0.00  0.00    -0.263 NA
BRANCH  21  22
ATOM     22  C   UNL     1      -3.991   1.332  25.033  0.00  0.00    +0.099 C 
BRANCH  22  23
ATOM     23  C   UNL     1      -4.011   0.530  24.843  0.00  0.00    -0.006 A 
ATOM     24  C   UNL     1      -4.132  -0.032  25.435  0.00  0.00    -0.002 A 
ATOM     25  C   UNL     1      -4.152  -0.835  25.244  0.00  0.00    +0.016 A 
ATOM     26  C   UNL     1      -4.050  -1.075  24.462  0.00  0.00    +0.073 A 
ATOM     31  C   UNL     1      -3.929  -0.513  23.870  0.00  0.00    +0.016 A 
ATOM     32  C   UNL     1      -3.909   0.289  24.060  0.00  0.00    -0.002 A 
BRANCH  26  27
ATOM     27  N   UNL     1      -4.070  -1.878  24.271  0.00  0.00    -0.179 NA
ATOM     28  C   UNL     1      -3.405  -2.349  24.402  0.00  0.00    +0.246 C 
ATOM     29  C   UNL     1      -2.722  -2.018  24.722  0.00  0.00    +0.097 C 
ATOM     30  O   UNL     1      -3.425  -3.152  24.212  0.00  0.00    -0.273 OA
ENDBRANCH  26  27
ENDBRANCH  22  23
ENDBRANCH  21  22
ENDBRANCH  15  17
TORSDOF 9
ENDMDL
MODEL 2
REMARK VINA RESULT:     -11.3      1.556      3.724
REMARK  Name = 
REMARK  9 active torsions:
REMARK  status: ('A' for Active; 'I' for Inactive)
REMARK    1  A    between atoms: O_2  and  C_3
REMARK    2  A    between atoms: C_3  and  C_4
REMARK    3  A    between atoms: C_4  and  O_5
REMARK    4  A    between atoms: O_5  and  C_6
REMARK    5  A    between atoms: C_8  and  C_12
REMARK    6  A    between atoms: C_15  and  C_17
REMARK    7  A    between atoms: N_21  and  C_22
REMARK    8  A    between atoms: C_22  and  C_23
REMARK    9  A    between atoms: C_26  and  N_27
REMARK                            x       y       z     vdW  Elec       q    Type
REMARK                         _______ _______ _______ _____ _____    ______ ____
ROOT
ATOM     12  C   UNL     1      -0.638   2.938  25.196  0.00  0.00    +0.221 A 
ATOM     13  N   UNL     1      -0.057   2.716  25.738  0.00  0.00    -0.054 NA
ATOM     14  O   UNL     1       0.296   2.021  25.464  0.00  0.00    -0.336 OA
ATOM     15  C   UNL     1      -0.067   1.815  24.753  0.00  0.00    +0.251 A 
ATOM     16  N   UNL     1      -0.644   2.381  24.587  0.00  0.00    -0.188 NA
ENDROOT
BRANCH  12   8
ATOM      6  C   UNL     1      -2.374   4.189  25.622  0.00  0.00    +0.142 A 
ATOM      7  C   UNL     1      -1.886   3.526  25.565  0.00  0.00    +0.059 A 
ATOM      8  C   UNL     1      -1.126   3.600  25.253  0.00  0.00    +0.123 A 
ATOM      9  N   UNL     1      -0.854   4.336  24.998  0.00  0.00    -0.240 NA
ATOM     10  C   UNL     1      -1.342   4.999  25.055  0.00  0.00    +0.102 A 
ATOM     11  C   UNL     1      -2.103   4.925  25.367  0.00  0.00    +0.058 A 
BRANCH   6   5
ATOM      5  O   UNL     1      -3.135   4.115  25.934  0.00  0.00    -0.473 OA
BRANCH   5   4
ATOM      4  C   UNL     1      -3.752   3.843  25.458  0.00  0.00    +0.237 C 
BRANCH   4   3
ATOM      3  C   UNL     1      -4.463   3.607  25.801  0.00  0.00    +0.189 C 
BRANCH   3   2
ATOM      1  C   UNL     1      -5.589   2.762  25.552  0.00  0.00    +0.174 C 
ATOM      2  O   UNL     1      -5.098   3.384  25.323  0.00  0.00    -0.347 OA
ENDBRANCH   3   2
ENDBRANCH   4   3
ENDBRANCH   5   4
ENDBRANCH   6   5
ENDBRANCH  12   8
BRANCH  15  17
ATOM     17  C   UNL     1       0.114   1.158  24.289  0.00  0.00    +0.138 C 
ATOM     18  C   UNL     1       0.647   1.142  23.659  0.00  0.00    +0.027 C 
ATOM     19  C   UNL     1       0.657   0.376  23.353  0.00  0.00    +0.019 C 
ATOM     20  C   UNL     1       0.131  -0.082  23.794  0.00  0.00    +0.073 C 
ATOM     21  N   UNL     1      -0.205   0.402  24.372  0.00  0.00    -0.263 NA
BRANCH  21  22
ATOM     22  C   UNL     1      -0.762   0.170  24.935  0.00  0.00    +0.099 C 
BRANCH  22  23
ATOM     23  C   UNL     1      -1.220  -0.504  24.808  0.00  0.00    -0.006 A 
ATOM     24  C   UNL     1      -1.921  -0.451  24.377  0.00  0.00    -0.002 A 
ATOM     25  C   UNL     1      -2.380  -1.126  24.251  0.00  0.00    +0.016 A 
ATOM     26  C   UNL     1      -2.136  -1.853  24.556  0.00  0.00    +0.073 A 
ATOM     31  C   UNL     1      -1.435  -1.905  24.987  0.00  0.00    +0.016 A 
ATOM     32  C   UNL     1      -0.977  -1.232  25.113  0.00  0.00    -0.002 A 
BRANCH  26  27
ATOM     27  N   UNL     1      -2.595  -2.527  24.429  0.00  0.00    -0.179 NA
ATOM     28  C   UNL     1      -3.324  -2.607  24.808  0.00  0.00    +0.246 C 
ATOM     29  C   UNL     1      -3.593  -2.014  25.313  0.00  0.00    +0.097 C 
ATOM     30  O   UNL     1      -3.783  -3.281  24.682  0.00  0.00    -0.273 OA
ENDBRANCH  26  27
ENDBRANCH  22  23
ENDBRANCH  21  22
ENDBRANCH  15  17
TORSDOF 9
ENDMDL
MODEL 3
REMARK VINA RESULT:     -10.8      1.377      4.761
REMARK  Name = 
REMARK  9 active torsions:
REMARK  status: ('A' for Active; 'I' for Inactive)
REMARK    1  A    between atoms: O_2  and  C_3
REMARK    2  A    between atoms: C_3  and  C_4
REMARK    3  A    between atoms: C_4  and  O_5
REMARK    4  A    between atoms: O_5  and  C_6
REMARK    5  A    between atoms: C_8  and  C_12
REMARK    6  A    between atoms: C_15  and  C_17
REMARK    7  A    between atoms: N_21  and  C_22
REMARK    8  A    between atoms: C_22  and  C_23
REMARK    9  A    between atoms: C_26  and  N_27
REMARK                            x       y       z     vdW  Elec       q    Type
REMARK                         _______ _______ _______ _____ _____    ______ ____
ROOT
ATOM     12  C   UNL     1      -4.025  -0.534  24.694  0.00  0.00    +0.221 A 
ATOM     13  N   UNL     1      -4.575  -0.461  24.082  0.00  0.00    -0.054 NA
ATOM     14  O   UNL     1      -4.980   0.250  24.188  0.00  0.00    -0.336 OA
ATOM     15  C   UNL     1      -4.681   0.616  24.864  0.00  0.00    +0.251 A 
ATOM     16  N   UNL     1      -4.091   0.131  25.177  0.00  0.00    -0.188 NA
ENDROOT
BRANCH  12   8
ATOM      6  C   UNL     1      -2.167  -1.652  24.935  0.00  0.00    +0.142 A 
ATOM      7  C   UNL     1      -2.690  -1.024  24.826  0.00  0.00    +0.059 A 
ATOM      8  C   UNL     1      -3.502  -1.163  24.803  0.00  0.00    +0.123 A 
ATOM      9  N   UNL     1      -3.793  -1.931  24.887  0.00  0.00    -0.240 NA
ATOM     10  C   UNL     1      -3.269  -2.559  24.996  0.00  0.00    +0.102 A 
ATOM     11  C   UNL     1      -2.456  -2.420  25.020  0.00  0.00    +0.058 A 
BRANCH   6   5
ATOM      5  O   UNL     1      -1.353  -1.513  24.959  0.00  0.00    -0.473 OA
BRANCH   5   4
ATOM      4  C   UNL     1      -0.956  -1.268  24.279  0.00  0.00    +0.237 C 
BRANCH   4   3
ATOM      3  C   UNL     1      -0.230  -0.884  24.341  0.00  0.00    +0.189 C 
BRANCH   3   2
ATOM      1  C   UNL     1       0.564  -0.026  23.520  0.00  0.00    +0.174 C 
ATOM      2  O   UNL     1       0.234  -0.767  23.669  0.00  0.00    -0.347 OA
ENDBRANCH   3   2
ENDBRANCH   4   3
ENDBRANCH   5   4
ENDBRANCH   6   5
ENDBRANCH  12   8
BRANCH  15  17
ATOM     17  C   UNL     1      -4.928   1.340  25.174  0.00  0.00    +0.138 C 
ATOM     18  C   UNL     1      -5.606   1.467  25.626  0.00  0.00    +0.027 C 
ATOM     19  C   UNL     1      -5.638   2.269  25.818  0.00  0.00    +0.019 C 
ATOM     20  C   UNL     1      -4.979   2.637  25.484  0.00  0.00    +0.073 C 
ATOM     21  N   UNL     1      -4.540   2.063  25.086  0.00  0.00    -0.263 NA
BRANCH  21  22
ATOM     22  C   UNL     1      -3.838   2.189  24.673  0.00  0.00    +0.099 C 
BRANCH  22  23
ATOM     23  C   UNL     1      -3.389   2.866  24.819  0.00  0.00    -0.006 A 
ATOM     24  C   UNL     1      -3.484   3.534  24.345  0.00  0.00    -0.002 A 
ATOM     25  C   UNL     1      -3.035   4.211  24.492  0.00  0.00    +0.016 A 
ATOM     26  C   UNL     1      -2.492   4.219  25.113  0.00  0.00    +0.073 A 
ATOM     31  C   UNL     1      -2.397   3.550  25.586  0.00  0.00    +0.016 A 
ATOM     32  C   UNL     1      -2.845   2.874  25.440  0.00  0.00    -0.002 A 
BRANCH  26  27
ATOM     27  N   UNL     1      -2.043   4.896  25.259  0.00  0.00    -0.179 NA
ATOM     28  C   UNL     1      -1.255   4.928  25.015  0.00  0.00    +0.246 C 
ATOM     29  C   UNL     1      -0.916   4.286  24.626  0.00  0.00    +0.097 C 
ATOM     30  O   UNL     1      -0.806   5.605  25.162  0.00  0.00    -0.273 OA
ENDBRANCH  26  27
ENDBRANCH  22  23
ENDBRANCH  21  22
ENDBRANCH  15  17
TORSDOF 9
ENDMDL
MODEL 4
REMARK VINA RESULT:     -10.5      1.697      4.384
REMARK  Name = 
REMARK  9 active torsions:
REMARK  status: ('A' for Active; 'I' for Inactive)
REMARK    1  A    between atoms: O_2  and  C_3
REMARK    2  A    between atoms: C_3  and  C_4
REMARK    3  A    between atoms: C_4  and  O_5
REMARK    4  A    between atoms: O_5  and  C_6
REMARK    5  A    between atoms: C_8  and  C_12
REMARK    6  A    between atoms: C_15  and  C_17
REMARK    7  A    between atoms: N_21  and  C_22
REMARK    8  A    between atoms: C_22  and  C_23
REMARK    9  A    between atoms: C_26  and  N_27
REMARK                            x       y       z     vdW  Elec       q    Type
REMARK                         _______ _______ _______ _____ _____    ______ ____
ROOT
ATOM     12  C   UNL     1      -0.073   1.849  24.807  0.00  0.00    +0.221 A 
ATOM     13  N   UNL     1       0.345   2.111  25.469  0.00  0.00    -0.054 NA
ATOM     14  O   UNL     1       0.068   2.864  25.665  0.00  0.00    -0.336 OA
ATOM     15  C   UNL     1      -0.521   3.066  25.124  0.00  0.00    +0.251 A 
ATOM     16  N   UNL     1      -0.608   2.440  24.595  0.00  0.00    -0.188 NA
ENDROOT
BRANCH  12   8
ATOM      6  C   UNL     1      -0.240  -0.276  24.342  0.00  0.00    +0.142 A 
ATOM      7  C   UNL     1      -0.340   0.449  24.723  0.00  0.00    +0.059 A 
ATOM      8  C   UNL     1       0.027   1.125  24.426  0.00  0.00    +0.123 A 
ATOM      9  N   UNL     1       0.494   1.077  23.748  0.00  0.00    -0.240 NA
ATOM     10  C   UNL     1       0.595   0.352  23.367  0.00  0.00    +0.102 A 
ATOM     11  C   UNL     1       0.227  -0.325  23.664  0.00  0.00    +0.058 A 
BRANCH   6   5
ATOM      5  O   UNL     1      -0.607  -0.953  24.639  0.00  0.00    -0.473 OA
BRANCH   5   4
ATOM      4  C   UNL     1      -1.354  -1.172  24.364  0.00  0.00    +0.237 C 
BRANCH   4   3
ATOM      3  C   UNL     1      -1.751  -1.805  24.712  0.00  0.00    +0.189 C 
BRANCH   3   2
ATOM      1  C   UNL     1      -3.003  -2.492  24.763  0.00  0.00    +0.174 C 
ATOM      2  O   UNL     1      -2.393  -2.150  24.326  0.00  0.00    -0.347 OA
ENDBRANCH   3   2
ENDBRANCH   4   3
ENDBRANCH   5   4
ENDBRANCH   6   5
ENDBRANCH  12   8
BRANCH  15  17
ATOM     17  C   UNL     1      -0.949   3.772  25.115  0.00  0.00    +0.138 C 
ATOM     18  C   UNL     1      -0.688   4.492  24.808  0.00  0.00    +0.027 C 
ATOM     19  C   UNL     1      -1.290   5.047  24.914  0.00  0.00    +0.019 C 
ATOM     20  C   UNL     1      -1.923   4.669  25.286  0.00  0.00    +0.073 C 
ATOM     21  N   UNL     1      -1.711   3.881  25.410  0.00  0.00    -0.263 NA
BRANCH  21  22
ATOM     22  C   UNL     1      -2.181   3.304  25.766  0.00  0.00    +0.099 C 
BRANCH  22  23
ATOM     23  C   UNL     1      -2.990   3.275  25.610  0.00  0.00    -0.006 A 
ATOM     24  C   UNL     1      -3.268   2.869  24.949  0.00  0.00    -0.002 A 
ATOM     25  C   UNL     1      -4.078   2.840  24.792  0.00  0.00    +0.016 A 
ATOM     26  C   UNL     1      -4.609   3.219  25.297  0.00  0.00    +0.073 A 
ATOM     31  C   UNL     1      -4.331   3.625  25.959  0.00  0.00    +0.016 A 
ATOM     32  C   UNL     1      -3.522   3.654  26.115  0.00  0.00    -0.002 A 
BRANCH  26  27
ATOM     27  N   UNL     1      -5.419   3.190  25.141  0.00  0.00    -0.179 NA
ATOM     28  C   UNL     1      -5.838   2.490  25.265  0.00  0.00    +0.246 C 
ATOM     29  C   UNL     1      -5.449   1.820  25.546  0.00  0.00    +0.097 C 
ATOM     30  O   UNL     1      -6.648   2.461  25.109  0.00  0.00    -0.273 OA
ENDBRANCH  26  27
ENDBRANCH  22  23
ENDBRANCH  21  22
ENDBRANCH  15  17
TORSDOF 9
ENDMDL
MODEL 5
REMARK VINA RESULT:     -10.4      1.659      5.978
REMARK  Name = 
REMARK  9 active torsions:
REMARK  status: ('A' for Active; 'I' for Inactive)
REMARK    1  A    between atoms: O_2  and  C_3
REMARK    2  A    between atoms: C_3  and  C_4
REMARK    3  A    between atoms: C_4  and  O_5
REMARK    4  A    between atoms: O_5  and  C_6
REMARK    5  A    between atoms: C_8  and  C_12
REMARK    6  A    between atoms: C_15  and  C_17
REMARK    7  A    between atoms: N_21  and  C_22
REMARK    8  A    between atoms: C_22  and  C_23
REMARK    9  A    between atoms: C_26  and  N_27
REMARK                            x       y       z     vdW  Elec       q    Type
REMARK                         _______ _______ _______ _____ _____    ______ ____
ROOT
ATOM     12  C   UNL     1      -1.666  -1.328  24.604  0.00  0.00    +0.221 A 
ATOM     13  N   UNL     1      -1.064  -1.640  25.074  0.00  0.00    -0.054 NA
ATOM     14  O   UNL     1      -0.379  -1.201  24.937  0.00  0.00    -0.336 OA
ATOM     15  C   UNL     1      -0.558  -0.617  24.382  0.00  0.00    +0.251 A 
ATOM     16  N   UNL     1      -1.353  -0.696  24.177  0.00  0.00    -0.188 NA
ENDROOT
BRANCH  12   8
ATOM      6  C   UNL     1      -3.847  -1.336  24.530  0.00  0.00    +0.142 A 
ATOM      7  C   UNL     1      -3.069  -1.063  24.566  0.00  0.00    +0.059 A 
ATOM      8  C   UNL     1      -2.444  -1.601  24.568  0.00  0.00    +0.123 A 
ATOM      9  N   UNL     1      -2.595  -2.411  24.534  0.00  0.00    -0.240 NA
ATOM     10  C   UNL     1      -3.373  -2.684  24.498  0.00  0.00    +0.102 A 
ATOM     11  C   UNL     1      -4.000  -2.146  24.496  0.00  0.00    +0.058 A 
BRANCH   6   5
ATOM      5  O   UNL     1      -4.473  -0.798  24.528  0.00  0.00    -0.473 OA
BRANCH   5   4
ATOM      4  C   UNL     1      -4.416  -0.096  24.959  0.00  0.00    +0.237 C 
BRANCH   4   3
ATOM      3  C   UNL     1      -4.968   0.504  24.842  0.00  0.00    +0.189 C 
BRANCH   3   2
ATOM      1  C   UNL     1      -5.470   1.799  25.181  0.00  0.00    +0.174 C 
ATOM      2  O   UNL     1      -4.983   1.155  25.350  0.00  0.00    -0.347 OA
ENDBRANCH   3   2
ENDBRANCH   4   3
ENDBRANCH   5   4
ENDBRANCH   6   5
ENDBRANCH  12   8
BRANCH  15  17
ATOM     17  C   UNL     1      -0.034  -0.053  24.085  0.00  0.00    +0.138 C 
ATOM     18  C   UNL     1       0.544  -0.184  23.511  0.00  0.00    +0.027 C 
ATOM     19  C   UNL     1       0.939   0.528  23.381  0.00  0.00    +0.019 C 
ATOM     20  C   UNL     1       0.606   1.099  23.875  0.00  0.00    +0.073 C 
ATOM     21  N   UNL     1       0.004   0.740  24.310  0.00  0.00    -0.263 NA
BRANCH  21  22
ATOM     22  C   UNL     1      -0.475   1.108  24.871  0.00  0.00    +0.099 C 
BRANCH  22  23
ATOM     23  C   UNL     1      -0.544   1.930  24.879  0.00  0.00    -0.006 A 
ATOM     24  C   UNL     1      -1.011   2.310  24.315  0.00  0.00    -0.002 A 
ATOM     25  C   UNL     1      -1.080   3.133  24.323  0.00  0.00    +0.016 A 
ATOM     26  C   UNL     1      -0.682   3.574  24.895  0.00  0.00    +0.073 A 
ATOM     31  C   UNL     1      -0.215   3.194  25.459  0.00  0.00    +0.016 A 
ATOM     32  C   UNL     1      -0.146   2.372  25.451  0.00  0.00    -0.002 A 
BRANCH  26  27
ATOM     27  N   UNL     1      -0.751   4.397  24.903  0.00  0.00    -0.179 NA
ATOM     28  C   UNL     1      -1.426   4.750  25.220  0.00  0.00    +0.246 C 
ATOM     29  C   UNL     1      -2.030   4.283  25.529  0.00  0.00    +0.097 C 
ATOM     30  O   UNL     1      -1.495   5.573  25.228  0.00  0.00    -0.273 OA
ENDBRANCH  26  27
ENDBRANCH  22  23
ENDBRANCH  21  22
ENDBRANCH  15  17
TORSDOF 9
ENDMDL
MODEL 6
REMARK VINA RESULT:     -10.3      1.488      4.247
REMARK  Name = 
REMARK  9 active torsions:
REMARK  status: ('A' for Active; 'I' for Inactive)
REMARK    1  A    between atoms: O_2  and  C_3
REMARK    2  A    between atoms: C_3  and  C_4
REMARK    3  A    between atoms: C_4  and  O_5
REMARK    4  A    between atoms: O_5  and  C_6
REMARK    5  A    between atoms: C_8  and  C_12
REMARK    6  A    between atoms: C_15  and  C_17
REMARK    7  A    between atoms: N_21  and  C_22
REMARK    8  A    between atoms: C_22  and  C_23
REMARK    9  A    between atoms: C_26  and  N_27
REMARK                            x       y       z     vdW  Elec       q    Type
REMARK                         _______ _______ _______ _____ _____    ______ ____
ROOT
ATOM     12  C   UNL     1      -3.885   3.483  25.762  0.00  0.00    +0.221 A 
ATOM     13  N   UNL     1      -3.746   3.900  26.460  0.00  0.00    -0.054 NA
ATOM     14  O   UNL     1      -3.002   4.252  26.404  0.00  0.00    -0.336 OA
ATOM     15  C   UNL     1      -2.680   4.052  25.671  0.00  0.00    +0.251 A 
ATOM     16  N   UNL     1      -3.226   3.577  25.274  0.00  0.00    -0.188 NA
ENDROOT
BRANCH  12   8
ATOM      6  C   UNL     1      -5.176   1.891  25.013  0.00  0.00    +0.142 A 
ATOM      7  C   UNL     1      -4.498   2.325  25.192  0.00  0.00    +0.059 A 
ATOM      8  C   UNL     1      -4.563   3.049  25.583  0.00  0.00    +0.123 A 
ATOM      9  N   UNL     1      -5.306   3.339  25.794  0.00  0.00    -0.240 NA
ATOM     10  C   UNL     1      -5.984   2.904  25.615  0.00  0.00    +0.102 A 
ATOM     11  C   UNL     1      -5.919   2.180  25.225  0.00  0.00    +0.058 A 
BRANCH   6   5
ATOM      5  O   UNL     1      -5.111   1.167  24.622  0.00  0.00    -0.473 OA
BRANCH   5   4
ATOM      4  C   UNL     1      -4.654   0.562  24.947  0.00  0.00    +0.237 C 
BRANCH   4   3
ATOM      3  C   UNL     1      -4.475  -0.106  24.499  0.00  0.00    +0.189 C 
BRANCH   3   2
ATOM      1  C   UNL     1      -3.934  -1.426  24.407  0.00  0.00    +0.174 C 
ATOM      2  O   UNL     1      -4.141  -0.768  24.860  0.00  0.00    -0.347 OA
ENDBRANCH   3   2
ENDBRANCH   4   3
ENDBRANCH   5   4
ENDBRANCH   6   5
ENDBRANCH  12   8
BRANCH  15  17
ATOM     17  C   UNL     1      -1.943   4.286  25.385  0.00  0.00    +0.138 C 
ATOM     18  C   UNL     1      -1.739   5.045  25.135  0.00  0.00    +0.027 C 
ATOM     19  C   UNL     1      -0.950   5.031  24.893  0.00  0.00    +0.019 C 
ATOM     20  C   UNL     1      -0.666   4.262  24.995  0.00  0.00    +0.073 C 
ATOM     21  N   UNL     1      -1.280   3.802  25.298  0.00  0.00    -0.263 NA
BRANCH  21  22
ATOM     22  C   UNL     1      -1.239   2.999  25.483  0.00  0.00    +0.099 C 
BRANCH  22  23
ATOM     23  C   UNL     1      -0.776   2.494  25.024  0.00  0.00    -0.006 A 
ATOM     24  C   UNL     1      -1.058   2.221  24.299  0.00  0.00    -0.002 A 
ATOM     25  C   UNL     1      -0.596   1.715  23.839  0.00  0.00    +0.016 A 
ATOM     26  C   UNL     1       0.150   1.482  24.107  0.00  0.00    +0.073 A 
ATOM     31  C   UNL     1       0.432   1.755  24.832  0.00  0.00    +0.016 A 
ATOM     32  C   UNL     1      -0.031   2.261  25.291  0.00  0.00    -0.002 A 
BRANCH  26  27
ATOM     27  N   UNL     1       0.612   0.976  23.647  0.00  0.00    -0.179 NA
ATOM     28  C   UNL     1       0.421   0.175  23.597  0.00  0.00    +0.246 C 
ATOM     29  C   UNL     1      -0.231  -0.120  24.005  0.00  0.00    +0.097 C 
ATOM     30  O   UNL     1       0.884  -0.331  23.138  0.00  0.00    -0.273 OA
ENDBRANCH  26  27
ENDBRANCH  22  23
ENDBRANCH  21  22
ENDBRANCH  15  17
TORSDOF 9
ENDMDL
MODEL 7
REMARK VINA RESULT:      -9.9      1.450      4.122
REMARK  Name = 
REMARK  9 active torsions:
REMARK  status: ('A' for Active; 'I' for Inactive)
REMARK    1  A    between atoms: O_2  and  C_3
REMARK    2  A    between atoms: C_3  and  C_4
REMARK    3  A    between atoms: C_4  and  O_5
REMARK    4  A    between atoms: O_5  and  C_6
REMARK    5  A    between atoms: C_8  and  C_12
REMARK    6  A    between atoms: C_15  and  C_17
REMARK    7  A    between atoms: N_21  and  C_22
REMARK    8  A    between atoms: C_22  and  C_23
REMARK    9  A    between atoms: C_26  and  N_27
REMARK                            x       y       z     vdW  Elec       q    Type
REMARK                         _______ _______ _______ _____ _____    ______ ____
ROOT
ATOM     12  C   UNL     1      -1.027  -0.663  24.334  0.00  0.00    +0.221 A 
ATOM     13  N   UNL     1      -1.019  -1.295  24.866  0.00  0.00    -0.054 NA
ATOM     14  O   UNL     1      -1.793  -1.573  24.943  0.00  0.00    -0.336 OA
ATOM     15  C   UNL     1      -2.278  -1.113  24.460  0.00  0.00    +0.251 A 
ATOM     16  N   UNL     1      -1.805  -0.551  24.083  0.00  0.00    -0.188 NA
ENDROOT
BRANCH  12   8
ATOM      6  C   UNL     1       0.364   1.001  24.104  0.00  0.00    +0.142 A 
ATOM      7  C   UNL     1      -0.291   0.560  24.342  0.00  0.00    +0.059 A 
ATOM      8  C   UNL     1      -0.372  -0.222  24.096  0.00  0.00    +0.123 A 
ATOM      9  N   UNL     1       0.201  -0.565  23.611  0.00  0.00    -0.240 NA
ATOM     10  C   UNL     1       0.856  -0.124  23.373  0.00  0.00    +0.102 A 
ATOM     11  C   UNL     1       0.938   0.660  23.619  0.00  0.00    +0.058 A 
BRANCH   6   5
ATOM      5  O   UNL     1       0.446   1.785  24.350  0.00  0.00    -0.473 OA
BRANCH   5   4
ATOM      4  C   UNL     1      -0.198   2.299  24.312  0.00  0.00    +0.237 C 
BRANCH   4   3
ATOM      3  C   UNL     1      -0.155   3.041  24.670  0.00  0.00    +0.189 C 
BRANCH   3   2
ATOM      1  C   UNL     1      -0.937   4.189  25.004  0.00  0.00    +0.174 C 
ATOM      2  O   UNL     1      -0.681   3.637  24.448  0.00  0.00    -0.347 OA
ENDBRANCH   3   2
ENDBRANCH   4   3
ENDBRANCH   5   4
ENDBRANCH   6   5
ENDBRANCH  12   8
BRANCH  15  17
ATOM     17  C   UNL     1      -3.093  -1.199  24.368  0.00  0.00    +0.138 C 
ATOM     18  C   UNL     1      -3.474  -1.811  23.965  0.00  0.00    +0.027 C 
ATOM     19  C   UNL     1      -4.287  -1.680  24.011  0.00  0.00    +0.019 C 
ATOM     20  C   UNL     1      -4.409  -0.987  24.442  0.00  0.00    +0.073 C 
ATOM     21  N   UNL     1      -3.671  -0.690  24.663  0.00  0.00    -0.263 NA
BRANCH  21  22
ATOM     22  C   UNL     1      -3.536  -0.005  25.102  0.00  0.00    +0.099 C 
BRANCH  22  23
ATOM     23  C   UNL     1      -4.082   0.612  25.081  0.00  0.00    -0.006 A 
ATOM     24  C   UNL     1      -4.745   0.594  25.571  0.00  0.00    -0.002 A 
ATOM     25  C   UNL     1      -5.292   1.212  25.551  0.00  0.00    +0.016 A 
ATOM     26  C   UNL     1      -5.174   1.849  25.040  0.00  0.00    +0.073 A 
ATOM     31  C   UNL     1      -4.511   1.868  24.550  0.00  0.00    +0.016 A 
ATOM     32  C   UNL     1      -3.965   1.250  24.570  0.00  0.00    -0.002 A 
BRANCH  26  27
ATOM     27  N   UNL     1      -5.721   2.467  25.020  0.00  0.00    -0.179 NA
ATOM     28  C   UNL     1      -5.573   3.161  25.441  0.00  0.00    +0.246 C 
ATOM     29  C   UNL     1      -4.881   3.238  25.881  0.00  0.00    +0.097 C 
ATOM     30  O   UNL     1      -6.120   3.779  25.420  0.00  0.00    -0.273 OA
ENDBRANCH  26  27
ENDBRANCH  22  23
ENDBRANCH  21  22
ENDBRANCH  15  17
TORSDOF 9
ENDMDL
MODEL 8
REMARK VINA RESULT:      -9.8      2.249      4.294
REMARK  Name = 
REMARK  9 active torsions:
REMARK  status: ('A' for Active; 'I' for Inactive)
REMARK    1  A    between atoms: O_2  and  C_3
REMARK    2  A    between atoms: C_3  and  C_4
REMARK    3  A    between atoms: C_4  and  O_5
REMARK    4  A    between atoms: O_5  and  C_6
REMARK    5  A    between atoms: C_8  and  C_12
REMARK    6  A    between atoms: C_15  and  C_17
REMARK    7  A    between atoms: N_21  and  C_22
REMARK    8  A    between atoms: C_22  and  C_23
REMARK    9  A    between atoms: C_26  and  N_27
REMARK                            x       y       z     vdW  Elec       q    Type
REMARK                         _______ _______ _______ _____ _____    ______ ____
ROOT
ATOM     12  C   UNL     1       0.095   1.935  24.637  0.00  0.00    +0.221 A 
ATOM     13  N   UNL     1       0.408   2.124  25.377  0.00  0.00    -0.054 NA
ATOM     14  O   UNL     1       0.063   2.831  25.626  0.00  0.00    -0.336 OA
ATOM     15  C   UNL     1      -0.463   3.079  25.041  0.00  0.00    +0.251 A 
ATOM     16  N   UNL     1      -0.444   2.524  24.430  0.00  0.00    -0.188 NA
ENDROOT
BRANCH  12   8
ATOM      6  C   UNL     1       1.156   0.612  23.265  0.00  0.00    +0.142 A 
ATOM      7  C   UNL     1       0.965   1.274  23.717  0.00  0.00    +0.059 A 
ATOM      8  C   UNL     1       0.286   1.272  24.185  0.00  0.00    +0.123 A 
ATOM      9  N   UNL     1      -0.202   0.607  24.202  0.00  0.00    -0.240 NA
ATOM     10  C   UNL     1      -0.010  -0.056  23.750  0.00  0.00    +0.102 A 
ATOM     11  C   UNL     1       0.669  -0.054  23.281  0.00  0.00    +0.058 A 
BRANCH   6   5
ATOM      5  O   UNL     1       1.836   0.614  22.796  0.00  0.00    -0.473 OA
BRANCH   5   4
ATOM      4  C   UNL     1       2.579   0.542  23.146  0.00  0.00    +0.237 C 
BRANCH   4   3
ATOM      3  C   UNL     1       3.256   0.520  22.676  0.00  0.00    +0.189 C 
BRANCH   3   2
ATOM      1  C   UNL     1       4.663   0.408  22.901  0.00  0.00    +0.174 C 
ATOM      2  O   UNL     1       3.963   0.841  22.955  0.00  0.00    -0.347 OA
ENDBRANCH   3   2
ENDBRANCH   4   3
ENDBRANCH   5   4
ENDBRANCH   6   5
ENDBRANCH  12   8
BRANCH  15  17
ATOM     17  C   UNL     1      -0.927   3.760  25.063  0.00  0.00    +0.138 C 
ATOM     18  C   UNL     1      -0.698   4.511  24.811  0.00  0.00    +0.027 C 
ATOM     19  C   UNL     1      -1.331   5.026  24.932  0.00  0.00    +0.019 C 
ATOM     20  C   UNL     1      -1.953   4.592  25.259  0.00  0.00    +0.073 C 
ATOM     21  N   UNL     1      -1.703   3.810  25.340  0.00  0.00    -0.263 NA
BRANCH  21  22
ATOM     22  C   UNL     1      -2.150   3.187  25.644  0.00  0.00    +0.099 C 
BRANCH  22  23
ATOM     23  C   UNL     1      -2.959   3.145  25.486  0.00  0.00    -0.006 A 
ATOM     24  C   UNL     1      -3.228   2.747  24.816  0.00  0.00    -0.002 A 
ATOM     25  C   UNL     1      -4.038   2.704  24.659  0.00  0.00    +0.016 A 
ATOM     26  C   UNL     1      -4.576   3.060  25.173  0.00  0.00    +0.073 A 
ATOM     31  C   UNL     1      -4.307   3.458  25.843  0.00  0.00    +0.016 A 
ATOM     32  C   UNL     1      -3.498   3.501  26.000  0.00  0.00    -0.002 A 
BRANCH  26  27
ATOM     27  N   UNL     1      -5.386   3.018  25.015  0.00  0.00    -0.179 NA
ATOM     28  C   UNL     1      -5.796   2.316  25.156  0.00  0.00    +0.246 C 
ATOM     29  C   UNL     1      -5.399   1.658  25.454  0.00  0.00    +0.097 C 
ATOM     30  O   UNL     1      -6.605   2.273  24.999  0.00  0.00    -0.273 OA
ENDBRANCH  26  27
ENDBRANCH  22  23
ENDBRANCH  21  22
ENDBRANCH  15  17
TORSDOF 9
ENDMDL
MODEL 9
REMARK VINA RESULT:      -9.7      2.681      4.647
REMARK  Name = 
REMARK  9 active torsions:
REMARK  status: ('A' for Active; 'I' for Inactive)
REMARK    1  A    between atoms: O_2  and  C_3
REMARK    2  A    between atoms: C_3  and  C_4
REMARK    3  A    between atoms: C_4  and  O_5
REMARK    4  A    between atoms: O_5  and  C_6
REMARK    5  A    between atoms: C_8  and  C_12
REMARK    6  A    between atoms: C_15  and  C_17
REMARK    7  A    between atoms: N_21  and  C_22
REMARK    8  A    between atoms: C_22  and  C_23
REMARK    9  A    between atoms: C_26  and  N_27
REMARK                            x       y       z     vdW  Elec       q    Type
REMARK                         _______ _______ _______ _____ _____    ______ ____
ROOT
ATOM     12  C   UNL     1       0.461   0.227  23.652  0.00  0.00    +0.221 A 
ATOM     13  N   UNL     1       0.071  -0.366  24.074  0.00  0.00    -0.054 NA
ATOM     14  O   UNL     1      -0.459  -0.003  24.593  0.00  0.00    -0.336 OA
ATOM     15  C   UNL     1      -0.395   0.814  24.492  0.00  0.00    +0.251 A 
ATOM     16  N   UNL     1       0.173   0.956  23.911  0.00  0.00    -0.188 NA
ENDROOT
BRANCH  12   8
ATOM      6  C   UNL     1       2.360   0.338  22.583  0.00  0.00    +0.142 A 
ATOM      7  C   UNL     1       1.783   0.454  23.161  0.00  0.00    +0.059 A 
ATOM      8  C   UNL     1       1.038   0.111  23.074  0.00  0.00    +0.123 A 
ATOM      9  N   UNL     1       0.869  -0.348  22.410  0.00  0.00    -0.240 NA
ATOM     10  C   UNL     1       1.446  -0.464  21.832  0.00  0.00    +0.102 A 
ATOM     11  C   UNL     1       2.192  -0.121  21.918  0.00  0.00    +0.058 A 
BRANCH   6   5
ATOM      5  O   UNL     1       3.106   0.682  22.669  0.00  0.00    -0.473 OA
BRANCH   5   4
ATOM      4  C   UNL     1       3.769   0.205  22.786  0.00  0.00    +0.237 C 
BRANCH   4   3
ATOM      3  C   UNL     1       4.477   0.539  23.043  0.00  0.00    +0.189 C 
BRANCH   3   2
ATOM      1  C   UNL     1       5.624   0.155  23.804  0.00  0.00    +0.174 C 
ATOM      2  O   UNL     1       5.146   0.066  23.138  0.00  0.00    -0.347 OA
ENDBRANCH   3   2
ENDBRANCH   4   3
ENDBRANCH   5   4
ENDBRANCH   6   5
ENDBRANCH  12   8
BRANCH  15  17
ATOM     17  C   UNL     1      -0.825   1.387  24.900  0.00  0.00    +0.138 C 
ATOM     18  C   UNL     1      -0.524   1.907  25.467  0.00  0.00    +0.027 C 
ATOM     19  C   UNL     1      -1.143   2.383  25.731  0.00  0.00    +0.019 C 
ATOM     20  C   UNL     1      -1.827   2.159  25.328  0.00  0.00    +0.073 C 
ATOM     21  N   UNL     1      -1.630   1.543  24.814  0.00  0.00    -0.263 NA
BRANCH  21  22
ATOM     22  C   UNL     1      -2.148   1.153  24.305  0.00  0.00    +0.099 C 
BRANCH  22  23
ATOM     23  C   UNL     1      -2.963   1.237  24.400  0.00  0.00    -0.006 A 
ATOM     24  C   UNL     1      -3.380   0.711  24.879  0.00  0.00    -0.002 A 
ATOM     25  C   UNL     1      -4.195   0.796  24.974  0.00  0.00    +0.016 A 
ATOM     26  C   UNL     1      -4.593   1.408  24.590  0.00  0.00    +0.073 A 
ATOM     31  C   UNL     1      -4.176   1.934  24.111  0.00  0.00    +0.016 A 
ATOM     32  C   UNL     1      -3.362   1.850  24.016  0.00  0.00    -0.002 A 
BRANCH  26  27
ATOM     27  N   UNL     1      -5.409   1.493  24.685  0.00  0.00    -0.179 NA
ATOM     28  C   UNL     1      -5.705   2.051  25.215  0.00  0.00    +0.246 C 
ATOM     29  C   UNL     1      -5.189   2.524  25.649  0.00  0.00    +0.097 C 
ATOM     30  O   UNL     1      -6.521   2.136  25.310  0.00  0.00    -0.273 OA
ENDBRANCH  26  27
ENDBRANCH  22  23
ENDBRANCH  21  22
ENDBRANCH  15  17
TORSDOF 9
ENDMDL
MODEL 10
REMARK VINA RESULT:      -9.6      1.612      3.719
REMARK  Name = 
REMARK  9 active torsions:
REMARK  status: ('A' for Active; 'I' for Inactive)
REMARK    1  A    between atoms: O_2  and  C_3
REMARK    2  A    between atoms: C_3  and  C_4
REMARK    3  A    between atoms: C_4  and  O_5
REMARK    4  A    between atoms: O_5  and  C_6
REMARK    5  A    between atoms: C_8  and  C_12
REMARK    6  A    between atoms: C_15  and  C_17
REMARK    7  A    between atoms: N_21  and  C_22
REMARK    8  A    between atoms: C_22  and  C_23
REMARK    9  A    between atoms: C_26  and  N_27
REMARK                            x       y       z     vdW  Elec       q    Type
REMARK                         _______ _______ _______ _____ _____    ______ ____
ROOT
ATOM     12  C   UNL     1      -4.681   1.255  25.265  0.00  0.00    +0.221 A 
ATOM     13  N   UNL     1      -4.962   0.753  25.858  0.00  0.00    -0.054 NA
ATOM     14  O   UNL     1      -4.746  -0.019  25.662  0.00  0.00    -0.336 OA
ATOM     15  C   UNL     1      -4.333   0.006  24.948  0.00  0.00    +0.251 A 
ATOM     16  N   UNL     1      -4.293   0.793  24.704  0.00  0.00    -0.188 NA
ENDROOT
BRANCH  12   8
ATOM      6  C   UNL     1      -4.248   3.370  24.946  0.00  0.00    +0.142 A 
ATOM      7  C   UNL     1      -4.156   2.550  24.972  0.00  0.00    +0.059 A 
ATOM      8  C   UNL     1      -4.773   2.074  25.240  0.00  0.00    +0.123 A 
ATOM      9  N   UNL     1      -5.484   2.417  25.483  0.00  0.00    -0.240 NA
ATOM     10  C   UNL     1      -5.576   3.236  25.457  0.00  0.00    +0.102 A 
ATOM     11  C   UNL     1      -4.958   3.713  25.189  0.00  0.00    +0.058 A 
BRANCH   6   5
ATOM      5  O   UNL     1      -3.630   3.847  24.678  0.00  0.00    -0.473 OA
BRANCH   5   4
ATOM      4  C   UNL     1      -3.002   4.029  25.180  0.00  0.00    +0.237 C 
BRANCH   4   3
ATOM      3  C   UNL     1      -2.303   4.337  24.870  0.00  0.00    +0.189 C 
BRANCH   3   2
ATOM      1  C   UNL     1      -1.072   5.039  25.054  0.00  0.00    +0.174 C 
ATOM      2  O   UNL     1      -1.772   4.732  25.363  0.00  0.00    -0.347 OA
ENDBRANCH   3   2
ENDBRANCH   4   3
ENDBRANCH   5   4
ENDBRANCH   6   5
ENDBRANCH  12   8
BRANCH  15  17
ATOM     17  C   UNL     1      -4.015  -0.643  24.549  0.00  0.00    +0.138 C 
ATOM     18  C   UNL     1      -4.409  -1.113  23.997  0.00  0.00    +0.027 C 
ATOM     19  C   UNL     1      -3.886  -1.695  23.739  0.00  0.00    +0.019 C 
ATOM     20  C   UNL     1      -3.168  -1.586  24.131  0.00  0.00    +0.073 C 
ATOM     21  N   UNL     1      -3.248  -0.935  24.632  0.00  0.00    -0.263 NA
BRANCH  21  22
ATOM     22  C   UNL     1      -2.664  -0.631  25.129  0.00  0.00    +0.099 C 
BRANCH  22  23
ATOM     23  C   UNL     1      -1.880  -0.602  24.874  0.00  0.00    -0.006 A 
ATOM     24  C   UNL     1      -1.425  -1.290  24.860  0.00  0.00    -0.002 A 
ATOM     25  C   UNL     1      -0.640  -1.261  24.606  0.00  0.00    +0.016 A 
ATOM     26  C   UNL     1      -0.311  -0.544  24.366  0.00  0.00    +0.073 A 
ATOM     31  C   UNL     1      -0.766   0.144  24.379  0.00  0.00    +0.016 A 
ATOM     32  C   UNL     1      -1.550   0.115  24.634  0.00  0.00    -0.002 A 
BRANCH  26  27
ATOM     27  N   UNL     1       0.473  -0.515  24.111  0.00  0.00    -0.179 NA
ATOM     28  C   UNL     1       0.646  -0.316  23.329  0.00  0.00    +0.246 C 
ATOM     29  C   UNL     1       0.035  -0.146  22.802  0.00  0.00    +0.097 C 
ATOM     30  O   UNL     1       1.430  -0.288  23.075  0.00  0.00    -0.273 OA
ENDBRANCH  26  27
ENDBRANCH  22  23
ENDBRANCH  21  22
ENDBRANCH  15  17
TORSDOF 9
ENDMDL
