REMARK  Name = 
REMARK  4 active torsions:
REMARK  status: ('A' for Active; 'I' for Inactive)
REMARK    1  A    between atoms: O_2  and  C_3
REMARK    2  A    between atoms: C_8  and  C_10
REMARK    3  A    between atoms: N_13  and  C_14
REMARK    4  A    between atoms: C_14  and  C_15
REMARK                            x       y       z     vdW  Elec       q    Type
REMARK                         _______ _______ _______ _____ _____    ______ ____
ROOT
ATOM     10  C   UNL     1      -1.453   1.523   0.000  0.00  0.00    +0.076 C 
ATOM     11  C   UNL     1      -1.938   0.856   0.000  0.00  0.00    +0.026 C 
ATOM     12  C   UNL     1      -2.723   1.110   0.000  0.00  0.00    +0.073 C 
ATOM     13  N   UNL     1      -2.723   1.935   0.000  0.00  0.00    -0.267 NA
ATOM     21  C   UNL     1      -1.938   2.190   0.000  0.00  0.00    +0.080 C 
ENDROOT
BRANCH  10   8
ATOM      3  C   UNL     1       2.070   1.110   0.000  0.00  0.00    +0.140 A 
ATOM      4  C   UNL     1       1.356   0.698   0.000  0.00  0.00    +0.058 A 
ATOM      5  C   UNL     1       0.641   1.110   0.000  0.00  0.00    +0.103 A 
ATOM      6  C   UNL     1       0.641   1.935   0.000  0.00  0.00    +0.100 A 
ATOM      7  N   UNL     1      -0.143   2.190   0.000  0.00  0.00    -0.229 NA
ATOM      8  C   UNL     1      -0.628   1.523   0.000  0.00  0.00    +0.140 A 
ATOM      9  N   UNL     1      -0.143   0.856   0.000  0.00  0.00    -0.229 NA
ATOM     22  C   UNL     1       1.356   2.348   0.000  0.00  0.00    +0.024 A 
ATOM     23  C   UNL     1       2.070   1.935   0.000  0.00  0.00    +0.039 A 
BRANCH   3   2
ATOM      1  C   UNL     1       3.499   1.110   0.000  0.00  0.00    +0.252 C 
ATOM      2  O   UNL     1       2.784   0.698   0.000  0.00  0.00    -0.471 OA
ENDBRANCH   3   2
ENDBRANCH  10   8
BRANCH  13  14
ATOM     14  C   UNL     1      -3.390   2.420   0.000  0.00  0.00    +0.119 C 
BRANCH  14  15
ATOM     15  C   UNL     1      -3.304   3.241   0.000  0.00  0.00    +0.075 A 
ATOM     16  N   UNL     1      -3.972   3.726   0.000  0.00  0.00    -0.247 NA
ATOM     17  C   UNL     1      -3.885   4.546   0.000  0.00  0.00    +0.098 A 
ATOM     18  C   UNL     1      -3.132   4.882   0.000  0.00  0.00    +0.021 A 
ATOM     19  C   UNL     1      -2.464   4.397   0.000  0.00  0.00    +0.003 A 
ATOM     20  C   UNL     1      -2.550   3.576   0.000  0.00  0.00    +0.016 A 
ENDBRANCH  14  15
ENDBRANCH  13  14
TORSDOF 4
