MODEL 1
REMARK VINA RESULT:     -10.1      0.000      0.000
REMARK  Name = 
REMARK  9 active torsions:
REMARK  status: ('A' for Active; 'I' for Inactive)
REMARK    1  A    between atoms: C_2  and  C_4
REMARK    2  A    between atoms: C_6  and  C_7
REMARK    3  A    between atoms: C_7  and  C_8
REMARK    4  A    between atoms: C_11  and  C_13
REMARK    5  A    between atoms: C_16  and  N_19
REMARK    6  A    between atoms: C_25  and  C_26
REMARK    7  A    between atoms: C_26  and  N_27
REMARK    8  A    between atoms: N_27  and  C_29
REMARK    9  A    between atoms: C_29  and  C_30
REMARK                            x       y       z     vdW  Elec       q    Type
REMARK                         _______ _______ _______ _____ _____    ______ ____
ROOT
ATOM      4  C   UNL     1      -3.063   3.720  25.434  0.00  0.00    +0.006 C 
ATOM      5  C   UNL     1      -3.704   3.325  25.099  0.00  0.00    +0.005 C 
ATOM      6  C   UNL     1      -3.627   2.962  24.361  0.00  0.00    +0.027 C 
ATOM     22  C   UNL     1      -2.907   2.995  23.960  0.00  0.00    -0.048 C 
ATOM     23  C   UNL     1      -2.829   2.632  23.222  0.00  0.00    +0.026 C 
ATOM     24  C   UNL     1      -2.265   3.391  24.295  0.00  0.00    -0.034 C 
ATOM     25  C   UNL     1      -2.343   3.753  25.031  0.00  0.00    +0.037 C 
ENDROOT
BRANCH   4   2
ATOM      1  C   UNL     1      -3.296   4.892  26.217  0.00  0.00    +0.000 C 
ATOM      2  C   UNL     1      -3.141   4.083  26.170  0.00  0.00    +0.000 C 
ATOM      3  C   UNL     1      -3.064   3.637  26.859  0.00  0.00    +0.000 C 
ENDBRANCH   4   2
BRANCH   6   7
ATOM      7  C   UNL     1      -4.269   2.567  24.026  0.00  0.00    +0.091 C 
BRANCH   7   8
ATOM      8  C   UNL     1      -4.488   1.824  24.309  0.00  0.00    +0.227 A 
ATOM      9  N   UNL     1      -5.181   1.647  24.721  0.00  0.00    -0.111 NA
ATOM     10  N   UNL     1      -5.175   0.841  24.896  0.00  0.00    -0.107 NA
ATOM     11  C   UNL     1      -4.479   0.519  24.593  0.00  0.00    +0.250 A 
ATOM     12  O   UNL     1      -4.055   1.127  24.230  0.00  0.00    -0.420 OA
BRANCH  11  13
ATOM     13  C   UNL     1      -4.247  -0.271  24.643  0.00  0.00    +0.055 A 
ATOM     14  C   UNL     1      -4.387  -0.781  24.010  0.00  0.00    +0.006 A 
ATOM     15  C   UNL     1      -4.156  -1.572  24.059  0.00  0.00    +0.015 A 
ATOM     16  C   UNL     1      -3.785  -1.851  24.741  0.00  0.00    +0.048 A 
ATOM     17  C   UNL     1      -3.645  -1.341  25.373  0.00  0.00    +0.015 A 
ATOM     18  C   UNL     1      -3.877  -0.550  25.324  0.00  0.00    +0.006 A 
BRANCH  16  19
ATOM     19  N   UNL     1      -3.553  -2.642  24.790  0.00  0.00    -0.304 N 
ATOM     20  C   UNL     1      -3.216  -2.931  25.486  0.00  0.00    +0.112 C 
ATOM     21  C   UNL     1      -3.658  -3.144  24.144  0.00  0.00    +0.112 C 
ENDBRANCH  16  19
ENDBRANCH  11  13
ENDBRANCH   7   8
ENDBRANCH   6   7
BRANCH  25  26
ATOM     26  C   UNL     1      -1.701   4.148  25.366  0.00  0.00    +0.077 C 
BRANCH  26  27
ATOM     27  N   UNL     1      -0.932   3.957  25.136  0.00  0.00    -0.269 NA
ATOM     28  C   UNL     1      -0.522   4.451  24.617  0.00  0.00    +0.090 C 
BRANCH  27  29
ATOM     29  C   UNL     1      -0.574   3.272  25.425  0.00  0.00    +0.108 C 
BRANCH  29  30
ATOM     30  C   UNL     1       0.230   3.275  25.611  0.00  0.00    +0.199 C 
ATOM     31  O   UNL     1       0.559   2.647  26.033  0.00  0.00    -0.219 OA
ENDBRANCH  29  30
ENDBRANCH  27  29
ENDBRANCH  26  27
ENDBRANCH  25  26
TORSDOF 9
ENDMDL
MODEL 2
REMARK VINA RESULT:      -9.7      2.900      4.649
REMARK  Name = 
REMARK  9 active torsions:
REMARK  status: ('A' for Active; 'I' for Inactive)
REMARK    1  A    between atoms: C_2  and  C_4
REMARK    2  A    between atoms: C_6  and  C_7
REMARK    3  A    between atoms: C_7  and  C_8
REMARK    4  A    between atoms: C_11  and  C_13
REMARK    5  A    between atoms: C_16  and  N_19
REMARK    6  A    between atoms: C_25  and  C_26
REMARK    7  A    between atoms: C_26  and  N_27
REMARK    8  A    between atoms: N_27  and  C_29
REMARK    9  A    between atoms: C_29  and  C_30
REMARK                            x       y       z     vdW  Elec       q    Type
REMARK                         _______ _______ _______ _____ _____    ______ ____
ROOT
ATOM      4  C   UNL     1      -3.527   1.699  24.098  0.00  0.00    +0.006 C 
ATOM      5  C   UNL     1      -3.035   1.037  24.123  0.00  0.00    +0.005 C 
ATOM      6  C   UNL     1      -3.263   0.369  24.552  0.00  0.00    +0.027 C 
ATOM     22  C   UNL     1      -3.982   0.364  24.956  0.00  0.00    -0.048 C 
ATOM     23  C   UNL     1      -4.209  -0.304  25.385  0.00  0.00    +0.026 C 
ATOM     24  C   UNL     1      -4.474   1.026  24.931  0.00  0.00    -0.034 C 
ATOM     25  C   UNL     1      -4.247   1.692  24.503  0.00  0.00    +0.037 C 
ENDROOT
BRANCH   4   2
ATOM      1  C   UNL     1      -2.870   2.965  24.038  0.00  0.00    +0.000 C 
ATOM      2  C   UNL     1      -3.300   2.365  23.670  0.00  0.00    +0.000 C 
ATOM      3  C   UNL     1      -3.503   2.433  22.874  0.00  0.00    +0.000 C 
ENDBRANCH   4   2
BRANCH   6   7
ATOM      7  C   UNL     1      -2.770  -0.293  24.577  0.00  0.00    +0.091 C 
BRANCH   7   8
ATOM      8  C   UNL     1      -1.954  -0.197  24.643  0.00  0.00    +0.227 A 
ATOM      9  N   UNL     1      -1.529  -0.134  25.348  0.00  0.00    -0.111 NA
ATOM     10  N   UNL     1      -0.731  -0.045  25.157  0.00  0.00    -0.107 NA
ATOM     11  C   UNL     1      -0.663  -0.054  24.335  0.00  0.00    +0.250 A 
ATOM     12  O   UNL     1      -1.419  -0.148  24.018  0.00  0.00    -0.420 OA
BRANCH  11  13
ATOM     13  C   UNL     1       0.038   0.019  23.905  0.00  0.00    +0.055 A 
ATOM     14  C   UNL     1       0.341  -0.633  23.500  0.00  0.00    +0.006 A 
ATOM     15  C   UNL     1       1.042  -0.562  23.070  0.00  0.00    +0.015 A 
ATOM     16  C   UNL     1       1.438   0.162  23.045  0.00  0.00    +0.048 A 
ATOM     17  C   UNL     1       1.135   0.813  23.450  0.00  0.00    +0.015 A 
ATOM     18  C   UNL     1       0.434   0.741  23.880  0.00  0.00    +0.006 A 
BRANCH  16  19
ATOM     19  N   UNL     1       2.139   0.233  22.615  0.00  0.00    -0.304 N 
ATOM     20  C   UNL     1       2.203  -0.117  21.870  0.00  0.00    +0.112 C 
ATOM     21  C   UNL     1       2.774   0.655  22.929  0.00  0.00    +0.112 C 
ENDBRANCH  16  19
ENDBRANCH  11  13
ENDBRANCH   7   8
ENDBRANCH   6   7
BRANCH  25  26
ATOM     26  C   UNL     1      -4.739   2.354  24.478  0.00  0.00    +0.077 C 
BRANCH  26  27
ATOM     27  N   UNL     1      -5.396   2.398  24.974  0.00  0.00    -0.269 NA
ATOM     28  C   UNL     1      -6.048   1.911  24.840  0.00  0.00    +0.090 C 
BRANCH  27  29
ATOM     29  C   UNL     1      -5.402   2.931  25.605  0.00  0.00    +0.108 C 
BRANCH  29  30
ATOM     30  C   UNL     1      -5.981   3.517  25.644  0.00  0.00    +0.199 C 
ATOM     31  O   UNL     1      -5.804   4.252  25.974  0.00  0.00    -0.219 OA
ENDBRANCH  29  30
ENDBRANCH  27  29
ENDBRANCH  26  27
ENDBRANCH  25  26
TORSDOF 9
ENDMDL
MODEL 3
REMARK VINA RESULT:      -9.5      2.043      3.785
REMARK  Name = 
REMARK  9 active torsions:
REMARK  status: ('A' for Active; 'I' for Inactive)
REMARK    1  A    between atoms: C_2  and  C_4
REMARK    2  A    between atoms: C_6  and  C_7
REMARK    3  A    between atoms: C_7  and  C_8
REMARK    4  A    between atoms: C_11  and  C_13
REMARK    5  A    between atoms: C_16  and  N_19
REMARK    6  A    between atoms: C_25  and  C_26
REMARK    7  A    between atoms: C_26  and  N_27
REMARK    8  A    between atoms: N_27  and  C_29
REMARK    9  A    between atoms: C_29  and  C_30
REMARK                            x       y       z     vdW  Elec       q    Type
REMARK                         _______ _______ _______ _____ _____    ______ ____
ROOT
ATOM      4  C   UNL     1      -3.373   3.160  24.236  0.00  0.00    +0.006 C 
ATOM      5  C   UNL     1      -2.557   3.168  24.356  0.00  0.00    +0.005 C 
ATOM      6  C   UNL     1      -2.249   3.410  25.082  0.00  0.00    +0.027 C 
ATOM     22  C   UNL     1      -2.758   3.645  25.688  0.00  0.00    -0.048 C 
ATOM     23  C   UNL     1      -2.450   3.887  26.414  0.00  0.00    +0.026 C 
ATOM     24  C   UNL     1      -3.574   3.637  25.567  0.00  0.00    -0.034 C 
ATOM     25  C   UNL     1      -3.881   3.395  24.842  0.00  0.00    +0.037 C 
ENDROOT
BRANCH   4   2
ATOM      1  C   UNL     1      -3.864   3.478  22.932  0.00  0.00    +0.000 C 
ATOM      2  C   UNL     1      -3.681   2.918  23.510  0.00  0.00    +0.000 C 
ATOM      3  C   UNL     1      -3.805   2.117  23.361  0.00  0.00    +0.000 C 
ENDBRANCH   4   2
BRANCH   6   7
ATOM      7  C   UNL     1      -1.433   3.418  25.203  0.00  0.00    +0.091 C 
BRANCH   7   8
ATOM      8  C   UNL     1      -0.990   2.735  25.070  0.00  0.00    +0.227 A 
ATOM      9  N   UNL     1      -0.202   2.707  24.826  0.00  0.00    -0.111 NA
ATOM     10  N   UNL     1       0.017   1.914  24.763  0.00  0.00    -0.107 NA
ATOM     11  C   UNL     1      -0.635   1.452  24.967  0.00  0.00    +0.250 A 
ATOM     12  O   UNL     1      -1.257   1.959  25.157  0.00  0.00    -0.420 OA
BRANCH  11  13
ATOM     13  C   UNL     1      -0.660   0.627  24.980  0.00  0.00    +0.055 A 
ATOM     14  C   UNL     1      -0.954   0.235  25.644  0.00  0.00    +0.006 A 
ATOM     15  C   UNL     1      -0.980  -0.590  25.658  0.00  0.00    +0.015 A 
ATOM     16  C   UNL     1      -0.712  -1.021  25.008  0.00  0.00    +0.048 A 
ATOM     17  C   UNL     1      -0.418  -0.629  24.345  0.00  0.00    +0.015 A 
ATOM     18  C   UNL     1      -0.392   0.196  24.331  0.00  0.00    +0.006 A 
BRANCH  16  19
ATOM     19  N   UNL     1      -0.738  -1.846  25.022  0.00  0.00    -0.304 N 
ATOM     20  C   UNL     1      -1.378  -2.244  24.686  0.00  0.00    +0.112 C 
ATOM     21  C   UNL     1      -0.124  -2.273  25.371  0.00  0.00    +0.112 C 
ENDBRANCH  16  19
ENDBRANCH  11  13
ENDBRANCH   7   8
ENDBRANCH   6   7
BRANCH  25  26
ATOM     26  C   UNL     1      -4.697   3.388  24.722  0.00  0.00    +0.077 C 
BRANCH  26  27
ATOM     27  N   UNL     1      -5.210   3.385  25.368  0.00  0.00    -0.269 NA
ATOM     28  C   UNL     1      -5.517   4.095  25.655  0.00  0.00    +0.090 C 
BRANCH  27  29
ATOM     29  C   UNL     1      -5.416   2.671  25.727  0.00  0.00    +0.108 C 
BRANCH  29  30
ATOM     30  C   UNL     1      -6.191   2.547  25.983  0.00  0.00    +0.199 C 
ATOM     31  O   UNL     1      -6.405   1.824  26.318  0.00  0.00    -0.219 OA
ENDBRANCH  29  30
ENDBRANCH  27  29
ENDBRANCH  26  27
ENDBRANCH  25  26
TORSDOF 9
ENDMDL
MODEL 4
REMARK VINA RESULT:      -9.0      2.880      4.271
REMARK  Name = 
REMARK  9 active torsions:
REMARK  status: ('A' for Active; 'I' for Inactive)
REMARK    1  A    between atoms: C_2  and  C_4
REMARK    2  A    between atoms: C_6  and  C_7
REMARK    3  A    between atoms: C_7  and  C_8
REMARK    4  A    between atoms: C_11  and  C_13
REMARK    5  A    between atoms: C_16  and  N_19
REMARK    6  A    between atoms: C_25  and  C_26
REMARK    7  A    between atoms: C_26  and  N_27
REMARK    8  A    between atoms: N_27  and  C_29
REMARK    9  A    between atoms: C_29  and  C_30
REMARK                            x       y       z     vdW  Elec       q    Type
REMARK                         _______ _______ _______ _____ _____    ______ ____
ROOT
ATOM      4  C   UNL     1      -0.225   0.779  24.196  0.00  0.00    +0.006 C 
ATOM      5  C   UNL     1      -0.831   0.433  24.636  0.00  0.00    +0.005 C 
ATOM      6  C   UNL     1      -0.900  -0.390  24.668  0.00  0.00    +0.027 C 
ATOM     22  C   UNL     1      -0.362  -0.864  24.260  0.00  0.00    -0.048 C 
ATOM     23  C   UNL     1      -0.431  -1.686  24.291  0.00  0.00    +0.026 C 
ATOM     24  C   UNL     1       0.244  -0.517  23.820  0.00  0.00    -0.034 C 
ATOM     25  C   UNL     1       0.312   0.303  23.789  0.00  0.00    +0.037 C 
ENDROOT
BRANCH   4   2
ATOM      1  C   UNL     1       0.290   1.999  24.733  0.00  0.00    +0.000 C 
ATOM      2  C   UNL     1      -0.156   1.600  24.165  0.00  0.00    +0.000 C 
ATOM      3  C   UNL     1      -0.533   2.023  23.566  0.00  0.00    +0.000 C 
ENDBRANCH   4   2
BRANCH   6   7
ATOM      7  C   UNL     1      -1.506  -0.736  25.107  0.00  0.00    +0.091 C 
BRANCH   7   8
ATOM      8  C   UNL     1      -2.293  -0.570  24.927  0.00  0.00    +0.227 A 
ATOM      9  N   UNL     1      -2.806  -1.056  24.500  0.00  0.00    -0.111 NA
ATOM     10  N   UNL     1      -3.536  -0.675  24.450  0.00  0.00    -0.107 NA
ATOM     11  C   UNL     1      -3.475   0.046  24.846  0.00  0.00    +0.250 A 
ATOM     12  O   UNL     1      -2.707   0.111  25.141  0.00  0.00    -0.420 OA
BRANCH  11  13
ATOM     13  C   UNL     1      -4.076   0.605  24.933  0.00  0.00    +0.055 A 
ATOM     14  C   UNL     1      -4.721   0.442  25.420  0.00  0.00    +0.006 A 
ATOM     15  C   UNL     1      -5.323   1.000  25.508  0.00  0.00    +0.015 A 
ATOM     16  C   UNL     1      -5.278   1.720  25.108  0.00  0.00    +0.048 A 
ATOM     17  C   UNL     1      -4.633   1.883  24.621  0.00  0.00    +0.015 A 
ATOM     18  C   UNL     1      -4.031   1.324  24.534  0.00  0.00    +0.006 A 
BRANCH  16  19
ATOM     19  N   UNL     1      -5.879   2.279  25.195  0.00  0.00    -0.304 N 
ATOM     20  C   UNL     1      -5.715   3.012  25.536  0.00  0.00    +0.112 C 
ATOM     21  C   UNL     1      -6.645   2.104  24.942  0.00  0.00    +0.112 C 
ENDBRANCH  16  19
ENDBRANCH  11  13
ENDBRANCH   7   8
ENDBRANCH   6   7
BRANCH  25  26
ATOM     26  C   UNL     1       0.918   0.650  23.349  0.00  0.00    +0.077 C 
BRANCH  26  27
ATOM     27  N   UNL     1       1.421   0.179  22.896  0.00  0.00    -0.269 NA
ATOM     28  C   UNL     1       1.126  -0.237  22.247  0.00  0.00    +0.090 C 
BRANCH  27  29
ATOM     29  C   UNL     1       2.222   0.123  23.092  0.00  0.00    +0.108 C 
BRANCH  29  30
ATOM     30  C   UNL     1       2.797   0.253  22.516  0.00  0.00    +0.199 C 
ATOM     31  O   UNL     1       3.579   0.395  22.737  0.00  0.00    -0.219 OA
ENDBRANCH  29  30
ENDBRANCH  27  29
ENDBRANCH  26  27
ENDBRANCH  25  26
TORSDOF 9
ENDMDL
MODEL 5
REMARK VINA RESULT:      -9.0      1.808      5.924
REMARK  Name = 
REMARK  9 active torsions:
REMARK  status: ('A' for Active; 'I' for Inactive)
REMARK    1  A    between atoms: C_2  and  C_4
REMARK    2  A    between atoms: C_6  and  C_7
REMARK    3  A    between atoms: C_7  and  C_8
REMARK    4  A    between atoms: C_11  and  C_13
REMARK    5  A    between atoms: C_16  and  N_19
REMARK    6  A    between atoms: C_25  and  C_26
REMARK    7  A    between atoms: C_26  and  N_27
REMARK    8  A    between atoms: N_27  and  C_29
REMARK    9  A    between atoms: C_29  and  C_30
REMARK                            x       y       z     vdW  Elec       q    Type
REMARK                         _______ _______ _______ _____ _____    ______ ____
ROOT
ATOM      4  C   UNL     1      -2.897  -0.331  24.782  0.00  0.00    +0.006 C 
ATOM      5  C   UNL     1      -2.196   0.103  24.796  0.00  0.00    +0.005 C 
ATOM      6  C   UNL     1      -1.472  -0.284  24.880  0.00  0.00    +0.027 C 
ATOM     22  C   UNL     1      -1.450  -1.106  24.951  0.00  0.00    -0.048 C 
ATOM     23  C   UNL     1      -0.726  -1.493  25.035  0.00  0.00    +0.026 C 
ATOM     24  C   UNL     1      -2.151  -1.540  24.937  0.00  0.00    -0.034 C 
ATOM     25  C   UNL     1      -2.874  -1.153  24.853  0.00  0.00    +0.037 C 
ENDROOT
BRANCH   4   2
ATOM      1  C   UNL     1      -4.090   0.201  25.361  0.00  0.00    +0.000 C 
ATOM      2  C   UNL     1      -3.620   0.056  24.698  0.00  0.00    +0.000 C 
ATOM      3  C   UNL     1      -3.874   0.298  23.952  0.00  0.00    +0.000 C 
ENDBRANCH   4   2
BRANCH   6   7
ATOM      7  C   UNL     1      -0.771   0.150  24.894  0.00  0.00    +0.091 C 
BRANCH   7   8
ATOM      8  C   UNL     1      -0.751   0.889  25.260  0.00  0.00    +0.227 A 
ATOM      9  N   UNL     1      -0.533   1.039  26.042  0.00  0.00    -0.111 NA
ATOM     10  N   UNL     1      -0.593   1.851  26.173  0.00  0.00    -0.107 NA
ATOM     11  C   UNL     1      -0.848   2.204  25.473  0.00  0.00    +0.250 A 
ATOM     12  O   UNL     1      -0.946   1.610  24.908  0.00  0.00    -0.420 OA
BRANCH  11  13
ATOM     13  C   UNL     1      -0.982   3.010  25.356  0.00  0.00    +0.055 A 
ATOM     14  C   UNL     1      -1.616   3.380  25.733  0.00  0.00    +0.006 A 
ATOM     15  C   UNL     1      -1.751   4.186  25.617  0.00  0.00    +0.015 A 
ATOM     16  C   UNL     1      -1.252   4.620  25.124  0.00  0.00    +0.048 A 
ATOM     17  C   UNL     1      -0.619   4.250  24.748  0.00  0.00    +0.015 A 
ATOM     18  C   UNL     1      -0.484   3.444  24.864  0.00  0.00    +0.006 A 
BRANCH  16  19
ATOM     19  N   UNL     1      -1.387   5.426  25.008  0.00  0.00    -0.304 N 
ATOM     20  C   UNL     1      -0.798   5.900  24.676  0.00  0.00    +0.112 C 
ATOM     21  C   UNL     1      -2.110   5.759  25.224  0.00  0.00    +0.112 C 
ENDBRANCH  16  19
ENDBRANCH  11  13
ENDBRANCH   7   8
ENDBRANCH   6   7
BRANCH  25  26
ATOM     26  C   UNL     1      -3.575  -1.588  24.839  0.00  0.00    +0.077 C 
BRANCH  26  27
ATOM     27  N   UNL     1      -3.552  -2.405  24.733  0.00  0.00    -0.269 NA
ATOM     28  C   UNL     1      -3.400  -2.901  25.374  0.00  0.00    +0.090 C 
BRANCH  27  29
ATOM     29  C   UNL     1      -3.682  -2.727  23.983  0.00  0.00    +0.108 C 
BRANCH  29  30
ATOM     30  C   UNL     1      -4.295  -3.267  23.868  0.00  0.00    +0.199 C 
ATOM     31  O   UNL     1      -4.707  -3.278  23.153  0.00  0.00    -0.219 OA
ENDBRANCH  29  30
ENDBRANCH  27  29
ENDBRANCH  26  27
ENDBRANCH  25  26
TORSDOF 9
ENDMDL
MODEL 6
REMARK VINA RESULT:      -8.8      1.776      2.804
REMARK  Name = 
REMARK  9 active torsions:
REMARK  status: ('A' for Active; 'I' for Inactive)
REMARK    1  A    between atoms: C_2  and  C_4
REMARK    2  A    between atoms: C_6  and  C_7
REMARK    3  A    between atoms: C_7  and  C_8
REMARK    4  A    between atoms: C_11  and  C_13
REMARK    5  A    between atoms: C_16  and  N_19
REMARK    6  A    between atoms: C_25  and  C_26
REMARK    7  A    between atoms: C_26  and  N_27
REMARK    8  A    between atoms: N_27  and  C_29
REMARK    9  A    between atoms: C_29  and  C_30
REMARK                            x       y       z     vdW  Elec       q    Type
REMARK                         _______ _______ _______ _____ _____    ______ ____
ROOT
ATOM      4  C   UNL     1      -2.034   2.382  24.569  0.00  0.00    +0.006 C 
ATOM      5  C   UNL     1      -1.603   1.687  24.679  0.00  0.00    +0.005 C 
ATOM      6  C   UNL     1      -0.991   1.663  25.233  0.00  0.00    +0.027 C 
ATOM     22  C   UNL     1      -0.811   2.335  25.677  0.00  0.00    -0.048 C 
ATOM     23  C   UNL     1      -0.199   2.311  26.230  0.00  0.00    +0.026 C 
ATOM     24  C   UNL     1      -1.242   3.030  25.567  0.00  0.00    -0.034 C 
ATOM     25  C   UNL     1      -1.853   3.053  25.014  0.00  0.00    +0.037 C 
ENDROOT
BRANCH   4   2
ATOM      1  C   UNL     1      -3.426   2.310  24.261  0.00  0.00    +0.000 C 
ATOM      2  C   UNL     1      -2.644   2.405  24.016  0.00  0.00    +0.000 C 
ATOM      3  C   UNL     1      -2.474   2.523  23.218  0.00  0.00    +0.000 C 
ENDBRANCH   4   2
BRANCH   6   7
ATOM      7  C   UNL     1      -0.560   0.968  25.342  0.00  0.00    +0.091 C 
BRANCH   7   8
ATOM      8  C   UNL     1      -0.952   0.261  25.502  0.00  0.00    +0.227 A 
ATOM      9  N   UNL     1      -0.883  -0.187  26.192  0.00  0.00    -0.111 NA
ATOM     10  N   UNL     1      -1.371  -0.848  26.117  0.00  0.00    -0.107 NA
ATOM     11  C   UNL     1      -1.742  -0.809  25.382  0.00  0.00    +0.250 A 
ATOM     12  O   UNL     1      -1.484  -0.123  25.002  0.00  0.00    -0.420 OA
BRANCH  11  13
ATOM     13  C   UNL     1      -2.278  -1.358  25.078  0.00  0.00    +0.055 A 
ATOM     14  C   UNL     1      -3.080  -1.297  25.265  0.00  0.00    +0.006 A 
ATOM     15  C   UNL     1      -3.617  -1.845  24.962  0.00  0.00    +0.015 A 
ATOM     16  C   UNL     1      -3.351  -2.454  24.473  0.00  0.00    +0.048 A 
ATOM     17  C   UNL     1      -2.551  -2.515  24.287  0.00  0.00    +0.015 A 
ATOM     18  C   UNL     1      -2.014  -1.966  24.589  0.00  0.00    +0.006 A 
BRANCH  16  19
ATOM     19  N   UNL     1      -3.888  -3.003  24.170  0.00  0.00    -0.304 N 
ATOM     20  C   UNL     1      -4.499  -2.753  23.675  0.00  0.00    +0.112 C 
ATOM     21  C   UNL     1      -3.815  -3.802  24.362  0.00  0.00    +0.112 C 
ENDBRANCH  16  19
ENDBRANCH  11  13
ENDBRANCH   7   8
ENDBRANCH   6   7
BRANCH  25  26
ATOM     26  C   UNL     1      -2.284   3.748  24.904  0.00  0.00    +0.077 C 
BRANCH  26  27
ATOM     27  N   UNL     1      -2.133   4.406  25.378  0.00  0.00    -0.269 NA
ATOM     28  C   UNL     1      -2.555   4.516  26.079  0.00  0.00    +0.090 C 
BRANCH  27  29
ATOM     29  C   UNL     1      -1.560   4.956  25.151  0.00  0.00    +0.108 C 
BRANCH  29  30
ATOM     30  C   UNL     1      -1.750   5.758  25.115  0.00  0.00    +0.199 C 
ATOM     31  O   UNL     1      -1.200   6.300  24.825  0.00  0.00    -0.219 OA
ENDBRANCH  29  30
ENDBRANCH  27  29
ENDBRANCH  26  27
ENDBRANCH  25  26
TORSDOF 9
ENDMDL
