MODEL 1
REMARK VINA RESULT:     -12.1      0.000      0.000
REMARK  Name = 
REMARK  6 active torsions:
REMARK  status: ('A' for Active; 'I' for Inactive)
REMARK    1  A    between atoms: O_2  and  C_3
REMARK    2  A    between atoms: C_6  and  N_9
REMARK    3  A    between atoms: C_13  and  C_14
REMARK    4  A    between atoms: C_16  and  N_17
REMARK    5  A    between atoms: N_17  and  S_18
REMARK    6  A    between atoms: S_18  and  C_21
REMARK                            x       y       z     vdW  Elec       q    Type
REMARK                         _______ _______ _______ _____ _____    ______ ____
ROOT
ATOM      9  N   UNL     1      -4.417   0.163  24.849  0.00  0.00    -0.234 N 
ATOM     10  N   UNL     1      -5.162   0.397  25.114  0.00  0.00    -0.170 NA
ATOM     11  C   UNL     1      -5.181   1.223  25.125  0.00  0.00    +0.077 A 
ATOM     12  C   UNL     1      -5.821   1.689  25.355  0.00  0.00    +0.054 C 
ATOM     13  C   UNL     1      -4.447   1.498  24.867  0.00  0.00    +0.010 A 
ATOM     28  C   UNL     1      -3.975   0.843  24.696  0.00  0.00    +0.058 A 
ATOM     29  C   UNL     1      -3.197   0.865  24.420  0.00  0.00    +0.052 C 
ENDROOT
BRANCH   9   6
ATOM      3  C   UNL     1      -3.643  -2.170  24.562  0.00  0.00    +0.139 A 
ATOM      4  C   UNL     1      -3.481  -1.766  25.262  0.00  0.00    +0.038 A 
ATOM      5  C   UNL     1      -3.739  -0.988  25.357  0.00  0.00    +0.022 A 
ATOM      6  C   UNL     1      -4.159  -0.615  24.753  0.00  0.00    +0.083 A 
ATOM      7  C   UNL     1      -4.321  -1.021  24.053  0.00  0.00    +0.022 A 
ATOM      8  C   UNL     1      -4.063  -1.798  23.957  0.00  0.00    +0.038 A 
BRANCH   3   2
ATOM      1  C   UNL     1      -2.582  -3.106  24.353  0.00  0.00    +0.252 C 
ATOM      2  O   UNL     1      -3.384  -2.948  24.466  0.00  0.00    -0.471 OA
ENDBRANCH   3   2
ENDBRANCH   9   6
BRANCH  13  14
ATOM     14  C   UNL     1      -4.225   2.288  24.792  0.00  0.00    +0.048 C 
ATOM     15  C   UNL     1      -3.827   2.735  25.360  0.00  0.00    +0.033 C 
ATOM     16  C   UNL     1      -3.717   3.494  25.055  0.00  0.00    +0.120 C 
ATOM     26  C   UNL     1      -4.047   3.516  24.300  0.00  0.00    -0.011 C 
ATOM     27  C   UNL     1      -4.361   2.771  24.137  0.00  0.00    -0.025 C 
BRANCH  16  17
ATOM     17  N   UNL     1      -3.343   4.122  25.440  0.00  0.00    -0.074 NA
BRANCH  17  18
ATOM     18  S   UNL     1      -2.538   4.255  25.324  0.00  0.00    +0.083 S 
ATOM     19  O   UNL     1      -2.701   4.615  24.600  0.00  0.00    -0.151 OA
ATOM     20  O   UNL     1      -2.375   3.894  26.047  0.00  0.00    -0.151 OA
BRANCH  18  21
ATOM     21  C   UNL     1      -1.732   4.387  25.208  0.00  0.00    +0.153 A 
ATOM     22  C   UNL     1      -1.128   3.837  25.323  0.00  0.00    +0.027 A 
ATOM     23  C   UNL     1      -0.411   4.204  25.143  0.00  0.00    +0.009 A 
ATOM     24  C   UNL     1      -0.572   4.981  24.918  0.00  0.00    +0.037 A 
ATOM     25  S   UNL     1      -1.388   5.095  24.958  0.00  0.00    -0.067 S 
ENDBRANCH  18  21
ENDBRANCH  17  18
ENDBRANCH  16  17
ENDBRANCH  13  14
TORSDOF 6
ENDMDL
MODEL 2
REMARK VINA RESULT:     -10.7      1.999      5.246
REMARK  Name = 
REMARK  6 active torsions:
REMARK  status: ('A' for Active; 'I' for Inactive)
REMARK    1  A    between atoms: O_2  and  C_3
REMARK    2  A    between atoms: C_6  and  N_9
REMARK    3  A    between atoms: C_13  and  C_14
REMARK    4  A    between atoms: C_16  and  N_17
REMARK    5  A    between atoms: N_17  and  S_18
REMARK    6  A    between atoms: S_18  and  C_21
REMARK                            x       y       z     vdW  Elec       q    Type
REMARK                         _______ _______ _______ _____ _____    ______ ____
ROOT
ATOM      9  N   UNL     1      -3.655   2.829  25.183  0.00  0.00    -0.234 N 
ATOM     10  N   UNL     1      -4.455   2.856  25.385  0.00  0.00    -0.170 NA
ATOM     11  C   UNL     1      -4.772   2.102  25.274  0.00  0.00    +0.077 A 
ATOM     12  C   UNL     1      -5.555   1.881  25.409  0.00  0.00    +0.054 C 
ATOM     13  C   UNL     1      -4.168   1.609  25.003  0.00  0.00    +0.010 A 
ATOM     28  C   UNL     1      -3.478   2.058  24.947  0.00  0.00    +0.058 A 
ATOM     29  C   UNL     1      -2.740   1.784  24.699  0.00  0.00    +0.052 C 
ENDROOT
BRANCH   9   6
ATOM      3  C   UNL     1      -2.067   4.725  25.270  0.00  0.00    +0.139 A 
ATOM      4  C   UNL     1      -2.431   4.524  24.558  0.00  0.00    +0.038 A 
ATOM      5  C   UNL     1      -2.960   3.892  24.529  0.00  0.00    +0.022 A 
ATOM      6  C   UNL     1      -3.126   3.461  25.212  0.00  0.00    +0.083 A 
ATOM      7  C   UNL     1      -2.762   3.662  25.925  0.00  0.00    +0.022 A 
ATOM      8  C   UNL     1      -2.232   4.294  25.954  0.00  0.00    +0.038 A 
BRANCH   3   2
ATOM      1  C   UNL     1      -0.838   5.329  24.863  0.00  0.00    +0.252 C 
ATOM      2  O   UNL     1      -1.538   5.357  25.299  0.00  0.00    -0.471 OA
ENDBRANCH   3   2
ENDBRANCH   9   6
BRANCH  13  14
ATOM     14  C   UNL     1      -4.241   0.808  24.821  0.00  0.00    +0.048 C 
ATOM     15  C   UNL     1      -3.993   0.179  25.293  0.00  0.00    +0.033 C 
ATOM     16  C   UNL     1      -4.174  -0.523  24.898  0.00  0.00    +0.120 C 
ATOM     26  C   UNL     1      -4.534  -0.327  24.183  0.00  0.00    -0.011 C 
ATOM     27  C   UNL     1      -4.575   0.495  24.135  0.00  0.00    -0.025 C 
BRANCH  16  17
ATOM     17  N   UNL     1      -4.021  -1.287  25.172  0.00  0.00    -0.074 NA
BRANCH  17  18
ATOM     18  S   UNL     1      -3.310  -1.658  24.983  0.00  0.00    +0.083 S 
ATOM     19  O   UNL     1      -3.619  -1.877  24.251  0.00  0.00    -0.151 OA
ATOM     20  O   UNL     1      -3.001  -1.439  25.715  0.00  0.00    -0.151 OA
BRANCH  18  21
ATOM     21  C   UNL     1      -2.598  -2.029  24.793  0.00  0.00    +0.153 A 
ATOM     22  C   UNL     1      -2.505  -2.671  24.283  0.00  0.00    +0.027 A 
ATOM     23  C   UNL     1      -1.702  -2.861  24.257  0.00  0.00    +0.009 A 
ATOM     24  C   UNL     1      -1.300  -2.338  24.750  0.00  0.00    +0.037 A 
ATOM     25  S   UNL     1      -1.852  -1.824  25.082  0.00  0.00    -0.067 S 
ENDBRANCH  18  21
ENDBRANCH  17  18
ENDBRANCH  16  17
ENDBRANCH  13  14
TORSDOF 6
ENDMDL
MODEL 3
REMARK VINA RESULT:      -9.4      2.712      4.197
REMARK  Name = 
REMARK  6 active torsions:
REMARK  status: ('A' for Active; 'I' for Inactive)
REMARK    1  A    between atoms: O_2  and  C_3
REMARK    2  A    between atoms: C_6  and  N_9
REMARK    3  A    between atoms: C_13  and  C_14
REMARK    4  A    between atoms: C_16  and  N_17
REMARK    5  A    between atoms: N_17  and  S_18
REMARK    6  A    between atoms: S_18  and  C_21
REMARK                            x       y       z     vdW  Elec       q    Type
REMARK                         _______ _______ _______ _____ _____    ______ ____
ROOT
ATOM      9  N   UNL     1      -0.132   1.826  24.759  0.00  0.00    -0.234 N 
ATOM     10  N   UNL     1       0.082   1.951  25.546  0.00  0.00    -0.170 NA
ATOM     11  C   UNL     1      -0.408   2.539  25.853  0.00  0.00    +0.077 A 
ATOM     12  C   UNL     1      -0.385   2.836  26.622  0.00  0.00    +0.054 C 
ATOM     13  C   UNL     1      -0.924   2.779  25.256  0.00  0.00    +0.010 A 
ATOM     28  C   UNL     1      -0.754   2.338  24.579  0.00  0.00    +0.058 A 
ATOM     29  C   UNL     1      -1.138   2.399  23.851  0.00  0.00    +0.052 C 
ENDROOT
BRANCH   9   6
ATOM      3  C   UNL     1       0.910   0.203  23.207  0.00  0.00    +0.139 A 
ATOM      4  C   UNL     1       1.283   0.921  23.363  0.00  0.00    +0.038 A 
ATOM      5  C   UNL     1       0.936   1.463  23.880  0.00  0.00    +0.022 A 
ATOM      6  C   UNL     1       0.216   1.285  24.242  0.00  0.00    +0.083 A 
ATOM      7  C   UNL     1      -0.158   0.565  24.085  0.00  0.00    +0.022 A 
ATOM      8  C   UNL     1       0.189   0.024  23.568  0.00  0.00    +0.038 A 
BRANCH   3   2
ATOM      1  C   UNL     1       1.966  -0.151  22.312  0.00  0.00    +0.252 C 
ATOM      2  O   UNL     1       1.257  -0.338  22.690  0.00  0.00    -0.471 OA
ENDBRANCH   3   2
ENDBRANCH   9   6
BRANCH  13  14
ATOM     14  C   UNL     1      -1.508   3.357  25.323  0.00  0.00    +0.048 C 
ATOM     15  C   UNL     1      -2.270   3.244  25.617  0.00  0.00    +0.033 C 
ATOM     16  C   UNL     1      -2.666   3.967  25.584  0.00  0.00    +0.120 C 
ATOM     26  C   UNL     1      -2.149   4.527  25.269  0.00  0.00    -0.011 C 
ATOM     27  C   UNL     1      -1.433   4.150  25.108  0.00  0.00    -0.025 C 
BRANCH  16  17
ATOM     17  N   UNL     1      -3.444   4.106  25.824  0.00  0.00    -0.074 NA
BRANCH  17  18
ATOM     18  S   UNL     1      -4.047   3.598  25.582  0.00  0.00    +0.083 S 
ATOM     19  O   UNL     1      -4.090   3.993  24.859  0.00  0.00    -0.151 OA
ATOM     20  O   UNL     1      -4.004   3.204  26.305  0.00  0.00    -0.151 OA
BRANCH  18  21
ATOM     21  C   UNL     1      -4.650   3.090  25.340  0.00  0.00    +0.153 A 
ATOM     22  C   UNL     1      -4.679   2.675  24.628  0.00  0.00    +0.027 A 
ATOM     23  C   UNL     1      -5.378   2.236  24.618  0.00  0.00    +0.009 A 
ATOM     24  C   UNL     1      -5.780   2.380  25.323  0.00  0.00    +0.037 A 
ATOM     25  S   UNL     1      -5.331   2.907  25.770  0.00  0.00    -0.067 S 
ENDBRANCH  18  21
ENDBRANCH  17  18
ENDBRANCH  16  17
ENDBRANCH  13  14
TORSDOF 6
ENDMDL
MODEL 4
REMARK VINA RESULT:      -9.2      2.569      5.946
REMARK  Name = 
REMARK  6 active torsions:
REMARK  status: ('A' for Active; 'I' for Inactive)
REMARK    1  A    between atoms: O_2  and  C_3
REMARK    2  A    between atoms: C_6  and  N_9
REMARK    3  A    between atoms: C_13  and  C_14
REMARK    4  A    between atoms: C_16  and  N_17
REMARK    5  A    between atoms: N_17  and  S_18
REMARK    6  A    between atoms: S_18  and  C_21
REMARK                            x       y       z     vdW  Elec       q    Type
REMARK                         _______ _______ _______ _____ _____    ______ ____
ROOT
ATOM      9  N   UNL     1      -1.245   2.509  24.569  0.00  0.00    -0.234 N 
ATOM     10  N   UNL     1      -1.108   2.160  23.835  0.00  0.00    -0.170 NA
ATOM     11  C   UNL     1      -1.151   1.341  23.930  0.00  0.00    +0.077 A 
ATOM     12  C   UNL     1      -1.048   0.778  23.336  0.00  0.00    +0.054 C 
ATOM     13  C   UNL     1      -1.314   1.184  24.723  0.00  0.00    +0.010 A 
ATOM     28  C   UNL     1      -1.373   1.906  25.119  0.00  0.00    +0.058 A 
ATOM     29  C   UNL     1      -1.531   2.008  25.923  0.00  0.00    +0.052 C 
ENDROOT
BRANCH   9   6
ATOM      3  C   UNL     1      -1.270   4.938  25.043  0.00  0.00    +0.139 A 
ATOM      4  C   UNL     1      -1.975   4.510  25.046  0.00  0.00    +0.038 A 
ATOM      5  C   UNL     1      -1.967   3.701  24.888  0.00  0.00    +0.022 A 
ATOM      6  C   UNL     1      -1.254   3.319  24.727  0.00  0.00    +0.083 A 
ATOM      7  C   UNL     1      -0.548   3.747  24.724  0.00  0.00    +0.022 A 
ATOM      8  C   UNL     1      -0.556   4.557  24.882  0.00  0.00    +0.038 A 
BRANCH   3   2
ATOM      1  C   UNL     1      -1.948   6.197  25.022  0.00  0.00    +0.252 C 
ATOM      2  O   UNL     1      -1.279   5.748  25.201  0.00  0.00    -0.471 OA
ENDBRANCH   3   2
ENDBRANCH   9   6
BRANCH  13  14
ATOM     14  C   UNL     1      -1.404   0.438  25.062  0.00  0.00    +0.048 C 
ATOM     15  C   UNL     1      -2.120   0.065  25.230  0.00  0.00    +0.033 C 
ATOM     16  C   UNL     1      -1.951  -0.671  25.564  0.00  0.00    +0.120 C 
ATOM     26  C   UNL     1      -1.131  -0.752  25.602  0.00  0.00    -0.011 C 
ATOM     27  C   UNL     1      -0.793  -0.067  25.292  0.00  0.00    -0.025 C 
BRANCH  16  17
ATOM     17  N   UNL     1      -2.507  -1.228  25.816  0.00  0.00    -0.074 NA
BRANCH  17  18
ATOM     18  S   UNL     1      -2.990  -1.606  25.265  0.00  0.00    +0.083 S 
ATOM     19  O   UNL     1      -3.616  -1.112  25.476  0.00  0.00    -0.151 OA
ATOM     20  O   UNL     1      -2.364  -2.099  25.054  0.00  0.00    -0.151 OA
BRANCH  18  21
ATOM     21  C   UNL     1      -3.473  -1.984  24.714  0.00  0.00    +0.153 A 
ATOM     22  C   UNL     1      -4.055  -1.627  24.251  0.00  0.00    +0.027 A 
ATOM     23  C   UNL     1      -4.400  -2.209  23.780  0.00  0.00    +0.009 A 
ATOM     24  C   UNL     1      -4.032  -2.927  23.951  0.00  0.00    +0.037 A 
ATOM     25  S   UNL     1      -3.459  -2.788  24.528  0.00  0.00    -0.067 S 
ENDBRANCH  18  21
ENDBRANCH  17  18
ENDBRANCH  16  17
ENDBRANCH  13  14
TORSDOF 6
ENDMDL
MODEL 5
REMARK VINA RESULT:      -9.2      2.541      5.482
REMARK  Name = 
REMARK  6 active torsions:
REMARK  status: ('A' for Active; 'I' for Inactive)
REMARK    1  A    between atoms: O_2  and  C_3
REMARK    2  A    between atoms: C_6  and  N_9
REMARK    3  A    between atoms: C_13  and  C_14
REMARK    4  A    between atoms: C_16  and  N_17
REMARK    5  A    between atoms: N_17  and  S_18
REMARK    6  A    between atoms: S_18  and  C_21
REMARK                            x       y       z     vdW  Elec       q    Type
REMARK                         _______ _______ _______ _____ _____    ______ ____
ROOT
ATOM      9  N   UNL     1      -2.282   2.847  25.251  0.00  0.00    -0.234 N 
ATOM     10  N   UNL     1      -1.559   3.125  25.532  0.00  0.00    -0.170 NA
ATOM     11  C   UNL     1      -0.993   2.538  25.406  0.00  0.00    +0.077 A 
ATOM     12  C   UNL     1      -0.194   2.584  25.604  0.00  0.00    +0.054 C 
ATOM     13  C   UNL     1      -1.367   1.896  25.047  0.00  0.00    +0.010 A 
ATOM     28  C   UNL     1      -2.164   2.087  24.951  0.00  0.00    +0.058 A 
ATOM     29  C   UNL     1      -2.742   1.603  24.615  0.00  0.00    +0.052 C 
ENDROOT
BRANCH   9   6
ATOM      3  C   UNL     1      -4.431   4.074  25.298  0.00  0.00    +0.139 A 
ATOM      4  C   UNL     1      -4.065   3.913  24.577  0.00  0.00    +0.038 A 
ATOM      5  C   UNL     1      -3.348   3.504  24.562  0.00  0.00    +0.022 A 
ATOM      6  C   UNL     1      -2.999   3.256  25.267  0.00  0.00    +0.083 A 
ATOM      7  C   UNL     1      -3.366   3.418  25.988  0.00  0.00    +0.022 A 
ATOM      8  C   UNL     1      -4.083   3.827  26.004  0.00  0.00    +0.038 A 
BRANCH   3   2
ATOM      1  C   UNL     1      -5.851   4.079  25.469  0.00  0.00    +0.252 C 
ATOM      2  O   UNL     1      -5.148   4.483  25.314  0.00  0.00    -0.471 OA
ENDBRANCH   3   2
ENDBRANCH   9   6
BRANCH  13  14
ATOM     14  C   UNL     1      -1.008   1.188  24.824  0.00  0.00    +0.048 C 
ATOM     15  C   UNL     1      -1.079   0.465  25.214  0.00  0.00    +0.033 C 
ATOM     16  C   UNL     1      -0.630  -0.091  24.802  0.00  0.00    +0.120 C 
ATOM     26  C   UNL     1      -0.282   0.288  24.158  0.00  0.00    -0.011 C 
ATOM     27  C   UNL     1      -0.515   1.079  24.171  0.00  0.00    -0.025 C 
BRANCH  16  17
ATOM     17  N   UNL     1      -0.544  -0.889  25.000  0.00  0.00    -0.074 NA
BRANCH  17  18
ATOM     18  S   UNL     1      -1.177  -1.408  24.903  0.00  0.00    +0.083 S 
ATOM     19  O   UNL     1      -0.986  -1.490  24.105  0.00  0.00    -0.151 OA
ATOM     20  O   UNL     1      -1.366  -1.325  25.701  0.00  0.00    -0.151 OA
BRANCH  18  21
ATOM     21  C   UNL     1      -1.810  -1.927  24.806  0.00  0.00    +0.153 A 
ATOM     22  C   UNL     1      -2.534  -1.888  25.198  0.00  0.00    +0.027 A 
ATOM     23  C   UNL     1      -3.002  -2.515  24.934  0.00  0.00    +0.009 A 
ATOM     24  C   UNL     1      -2.566  -2.941  24.379  0.00  0.00    +0.037 A 
ATOM     25  S   UNL     1      -1.829  -2.579  24.299  0.00  0.00    -0.067 S 
ENDBRANCH  18  21
ENDBRANCH  17  18
ENDBRANCH  16  17
ENDBRANCH  13  14
TORSDOF 6
ENDMDL
MODEL 6
REMARK VINA RESULT:      -9.1      1.880      3.069
REMARK  Name = 
REMARK  6 active torsions:
REMARK  status: ('A' for Active; 'I' for Inactive)
REMARK    1  A    between atoms: O_2  and  C_3
REMARK    2  A    between atoms: C_6  and  N_9
REMARK    3  A    between atoms: C_13  and  C_14
REMARK    4  A    between atoms: C_16  and  N_17
REMARK    5  A    between atoms: N_17  and  S_18
REMARK    6  A    between atoms: S_18  and  C_21
REMARK                            x       y       z     vdW  Elec       q    Type
REMARK                         _______ _______ _______ _____ _____    ______ ____
ROOT
ATOM      9  N   UNL     1      -1.090  -0.238  24.581  0.00  0.00    -0.234 N 
ATOM     10  N   UNL     1      -0.426  -0.030  24.138  0.00  0.00    -0.170 NA
ATOM     11  C   UNL     1      -0.234   0.753  24.318  0.00  0.00    +0.077 A 
ATOM     12  C   UNL     1       0.393   1.183  23.999  0.00  0.00    +0.054 C 
ATOM     13  C   UNL     1      -0.780   1.029  24.871  0.00  0.00    +0.010 A 
ATOM     28  C   UNL     1      -1.309   0.416  25.034  0.00  0.00    +0.058 A 
ATOM     29  C   UNL     1      -1.946   0.452  25.559  0.00  0.00    +0.052 C 
ENDROOT
BRANCH   9   6
ATOM      3  C   UNL     1      -2.226  -2.436  24.556  0.00  0.00    +0.139 A 
ATOM      4  C   UNL     1      -1.466  -2.369  24.866  0.00  0.00    +0.038 A 
ATOM      5  C   UNL     1      -1.087  -1.636  24.874  0.00  0.00    +0.022 A 
ATOM      6  C   UNL     1      -1.469  -0.970  24.573  0.00  0.00    +0.083 A 
ATOM      7  C   UNL     1      -2.231  -1.038  24.262  0.00  0.00    +0.022 A 
ATOM      8  C   UNL     1      -2.610  -1.771  24.253  0.00  0.00    +0.038 A 
BRANCH   3   2
ATOM      1  C   UNL     1      -3.427  -3.210  24.610  0.00  0.00    +0.252 C 
ATOM      2  O   UNL     1      -2.605  -3.169  24.547  0.00  0.00    -0.471 OA
ENDBRANCH   3   2
ENDBRANCH   9   6
BRANCH  13  14
ATOM     14  C   UNL     1      -0.795   1.783  25.204  0.00  0.00    +0.048 C 
ATOM     15  C   UNL     1      -1.289   2.403  24.977  0.00  0.00    +0.033 C 
ATOM     16  C   UNL     1      -1.118   3.054  25.455  0.00  0.00    +0.120 C 
ATOM     26  C   UNL     1      -0.517   2.835  25.976  0.00  0.00    -0.011 C 
ATOM     27  C   UNL     1      -0.318   2.051  25.821  0.00  0.00    -0.025 C 
BRANCH  16  17
ATOM     17  N   UNL     1      -1.483   3.793  25.417  0.00  0.00    -0.074 NA
BRANCH  17  18
ATOM     18  S   UNL     1      -2.306   3.847  25.428  0.00  0.00    +0.083 S 
ATOM     19  O   UNL     1      -2.295   3.833  26.253  0.00  0.00    -0.151 OA
ATOM     20  O   UNL     1      -2.316   3.862  24.604  0.00  0.00    -0.151 OA
BRANCH  18  21
ATOM     21  C   UNL     1      -3.129   3.902  25.439  0.00  0.00    +0.153 A 
ATOM     22  C   UNL     1      -3.605   3.922  26.112  0.00  0.00    +0.027 A 
ATOM     23  C   UNL     1      -4.391   3.978  25.866  0.00  0.00    +0.009 A 
ATOM     24  C   UNL     1      -4.400   3.993  25.042  0.00  0.00    +0.037 A 
ATOM     25  S   UNL     1      -3.620   3.945  24.778  0.00  0.00    -0.067 S 
ENDBRANCH  18  21
ENDBRANCH  17  18
ENDBRANCH  16  17
ENDBRANCH  13  14
TORSDOF 6
ENDMDL
MODEL 7
REMARK VINA RESULT:      -8.9      2.845      4.060
REMARK  Name = 
REMARK  6 active torsions:
REMARK  status: ('A' for Active; 'I' for Inactive)
REMARK    1  A    between atoms: O_2  and  C_3
REMARK    2  A    between atoms: C_6  and  N_9
REMARK    3  A    between atoms: C_13  and  C_14
REMARK    4  A    between atoms: C_16  and  N_17
REMARK    5  A    between atoms: N_17  and  S_18
REMARK    6  A    between atoms: S_18  and  C_21
REMARK                            x       y       z     vdW  Elec       q    Type
REMARK                         _______ _______ _______ _____ _____    ______ ____
ROOT
ATOM      9  N   UNL     1      -1.153  -0.125  24.443  0.00  0.00    -0.234 N 
ATOM     10  N   UNL     1      -1.266  -0.619  25.093  0.00  0.00    -0.170 NA
ATOM     11  C   UNL     1      -2.076  -0.656  25.248  0.00  0.00    +0.077 A 
ATOM     12  C   UNL     1      -2.435  -1.089  25.852  0.00  0.00    +0.054 C 
ATOM     13  C   UNL     1      -2.463  -0.184  24.694  0.00  0.00    +0.010 A 
ATOM     28  C   UNL     1      -1.893   0.145  24.196  0.00  0.00    +0.058 A 
ATOM     29  C   UNL     1      -2.037   0.654  23.562  0.00  0.00    +0.052 C 
ENDROOT
BRANCH   9   6
ATOM      3  C   UNL     1       1.023   0.452  23.414  0.00  0.00    +0.139 A 
ATOM      4  C   UNL     1       0.646   0.991  23.911  0.00  0.00    +0.038 A 
ATOM      5  C   UNL     1      -0.079   0.799  24.254  0.00  0.00    +0.022 A 
ATOM      6  C   UNL     1      -0.428   0.067  24.100  0.00  0.00    +0.083 A 
ATOM      7  C   UNL     1      -0.050  -0.473  23.603  0.00  0.00    +0.022 A 
ATOM      8  C   UNL     1       0.675  -0.281  23.260  0.00  0.00    +0.038 A 
BRANCH   3   2
ATOM      1  C   UNL     1       2.133   0.097  22.586  0.00  0.00    +0.252 C 
ATOM      2  O   UNL     1       1.748   0.644  23.071  0.00  0.00    -0.471 OA
ENDBRANCH   3   2
ENDBRANCH   9   6
BRANCH  13  14
ATOM     14  C   UNL     1      -3.277  -0.061  24.645  0.00  0.00    +0.048 C 
ATOM     15  C   UNL     1      -3.710   0.495  25.073  0.00  0.00    +0.033 C 
ATOM     16  C   UNL     1      -4.502   0.427  24.852  0.00  0.00    +0.120 C 
ATOM     26  C   UNL     1      -4.559  -0.172  24.288  0.00  0.00    -0.011 C 
ATOM     27  C   UNL     1      -3.802  -0.474  24.160  0.00  0.00    -0.025 C 
BRANCH  16  17
ATOM     17  N   UNL     1      -5.128   0.879  25.145  0.00  0.00    -0.074 NA
BRANCH  17  18
ATOM     18  S   UNL     1      -5.076   1.701  25.148  0.00  0.00    +0.083 S 
ATOM     19  O   UNL     1      -4.834   1.683  25.936  0.00  0.00    -0.151 OA
ATOM     20  O   UNL     1      -5.319   1.719  24.360  0.00  0.00    -0.151 OA
BRANCH  18  21
ATOM     21  C   UNL     1      -5.025   2.525  25.151  0.00  0.00    +0.153 A 
ATOM     22  C   UNL     1      -4.697   2.993  24.557  0.00  0.00    +0.027 A 
ATOM     23  C   UNL     1      -4.762   3.782  24.788  0.00  0.00    +0.009 A 
ATOM     24  C   UNL     1      -5.130   3.802  25.525  0.00  0.00    +0.037 A 
ATOM     25  S   UNL     1      -5.293   3.025  25.750  0.00  0.00    -0.067 S 
ENDBRANCH  18  21
ENDBRANCH  17  18
ENDBRANCH  16  17
ENDBRANCH  13  14
TORSDOF 6
ENDMDL
