REMARK  Name = 
REMARK  7 active torsions:
REMARK  status: ('A' for Active; 'I' for Inactive)
REMARK    1  A    between atoms: C_2  and  C_4
REMARK    2  A    between atoms: C_4  and  C_5
REMARK    3  A    between atoms: C_4  and  N_13
REMARK    4  A    between atoms: C_5  and  C_6
REMARK    5  A    between atoms: C_14  and  C_16
REMARK    6  A    between atoms: C_18  and  N_19
REMARK    7  A    between atoms: C_20  and  C_22
REMARK                            x       y       z     vdW  Elec       q    Type
REMARK                         _______ _______ _______ _____ _____    ______ ____
ROOT
ATOM     16  C   UNL     1       1.429  -5.775   0.000  0.00  0.00    +0.033 C 
ATOM     17  C   UNL     1       2.143  -5.362   0.000  0.00  0.00    -0.002 C 
ATOM     18  C   UNL     1       2.858  -5.775   0.000  0.00  0.00    +0.150 C 
ATOM     28  C   UNL     1       2.858  -6.600   0.000  0.00  0.00    +0.206 C 
ATOM     29  O   UNL     1       3.572  -7.013   0.000  0.00  0.00    -0.218 OA
ATOM     30  C   UNL     1       2.143  -7.013   0.000  0.00  0.00    +0.189 C 
ATOM     31  O   UNL     1       2.143  -7.838   0.000  0.00  0.00    -0.220 OA
ATOM     32  C   UNL     1       1.429  -6.600   0.000  0.00  0.00    +0.066 C 
ENDROOT
BRANCH  16  14
ATOM     13  N   UNL     1       0.000  -5.775   0.000  0.00  0.00    -0.194 NA
ATOM     14  C   UNL     1       0.715  -5.362   0.000  0.00  0.00    +0.261 C 
ATOM     15  O   UNL     1       0.715  -4.537   0.000  0.00  0.00    -0.269 OA
BRANCH  13   4
ATOM      4  C   UNL     1      -0.715  -5.362   0.000  0.00  0.00    +0.179 C 
BRANCH   4   2
ATOM      1  N   UNL     1       0.000  -4.125   0.000  0.00  0.00    -0.086 NA
ATOM      2  C   UNL     1      -0.715  -4.537   0.000  0.00  0.00    +0.281 C 
ATOM      3  O   UNL     1      -1.429  -4.125   0.000  0.00  0.00    -0.270 OA
ENDBRANCH   4   2
BRANCH   4   5
ATOM      5  C   UNL     1      -1.429  -5.775   0.000  0.00  0.00    +0.057 C 
BRANCH   5   6
ATOM      6  C   UNL     1      -2.143  -5.362   0.000  0.00  0.00    -0.020 A 
ATOM      7  C   UNL     1      -2.858  -5.775   0.000  0.00  0.00    -0.001 A 
ATOM      8  C   UNL     1      -3.572  -5.362   0.000  0.00  0.00    +0.042 A 
ATOM      9  C   UNL     1      -3.572  -4.537   0.000  0.00  0.00    +0.196 A 
ATOM     10  O   UNL     1      -4.287  -4.125   0.000  0.00  0.00    -0.287 OA
ATOM     11  C   UNL     1      -2.858  -4.125   0.000  0.00  0.00    +0.042 A 
ATOM     12  C   UNL     1      -2.143  -4.537   0.000  0.00  0.00    -0.001 A 
ENDBRANCH   5   6
ENDBRANCH   4   5
ENDBRANCH  13   4
ENDBRANCH  16  14
BRANCH  18  19
ATOM     19  N   UNL     1       3.572  -5.362   0.000  0.00  0.00    -0.196 NA
ATOM     20  C   UNL     1       3.572  -4.537   0.000  0.00  0.00    +0.267 C 
ATOM     21  O   UNL     1       2.858  -4.125   0.000  0.00  0.00    -0.268 OA
BRANCH  20  22
ATOM     22  C   UNL     1       4.287  -4.125   0.000  0.00  0.00    +0.074 A 
ATOM     23  C   UNL     1       4.287  -3.300   0.000  0.00  0.00    +0.103 A 
ATOM     24  N   UNL     1       5.001  -2.888   0.000  0.00  0.00    -0.242 NA
ATOM     25  C   UNL     1       5.716  -3.300   0.000  0.00  0.00    +0.099 A 
ATOM     26  C   UNL     1       5.716  -4.125   0.000  0.00  0.00    +0.021 A 
ATOM     27  C   UNL     1       5.001  -4.537   0.000  0.00  0.00    +0.008 A 
ENDBRANCH  20  22
ENDBRANCH  18  19
TORSDOF 7
