MODEL 1
REMARK VINA RESULT:     -10.2      0.000      0.000
REMARK  Name = 
REMARK  5 active torsions:
REMARK  status: ('A' for Active; 'I' for Inactive)
REMARK    1  A    between atoms: C_1  and  N_2
REMARK    2  A    between atoms: C_1  and  C_24
REMARK    3  A    between atoms: C_6  and  C_7
REMARK    4  A    between atoms: C_9  and  C_12
REMARK    5  A    between atoms: C_15  and  C_18
REMARK                            x       y       z     vdW  Elec       q    Type
REMARK                         _______ _______ _______ _____ _____    ______ ____
ROOT
ATOM      7  C   UNL     1      -3.898   2.882  25.113  0.00  0.00    +0.251 A 
ATOM      8  N   UNL     1      -3.698   2.093  25.249  0.00  0.00    -0.190 NA
ATOM      9  C   UNL     1      -4.053   1.636  24.662  0.00  0.00    +0.205 A 
ATOM     10  N   UNL     1      -4.471   2.142  24.163  0.00  0.00    -0.056 NA
ATOM     11  O   UNL     1      -4.375   2.911  24.442  0.00  0.00    -0.336 OA
ENDROOT
BRANCH   9  12
ATOM     12  C   UNL     1      -3.999   0.816  24.586  0.00  0.00    +0.058 A 
ATOM     13  C   UNL     1      -4.390   0.326  25.122  0.00  0.00    +0.006 A 
ATOM     14  C   UNL     1      -4.336  -0.494  25.047  0.00  0.00    +0.019 A 
ATOM     15  C   UNL     1      -3.891  -0.824  24.436  0.00  0.00    +0.081 A 
ATOM     16  N   UNL     1      -3.499  -0.334  23.900  0.00  0.00    -0.244 NA
ATOM     17  C   UNL     1      -3.554   0.486  23.975  0.00  0.00    +0.102 A 
BRANCH  15  18
ATOM     18  C   UNL     1      -3.836  -1.644  24.361  0.00  0.00    +0.021 A 
ATOM     19  C   UNL     1      -4.290  -2.037  23.795  0.00  0.00    +0.022 A 
ATOM     20  C   UNL     1      -4.236  -2.857  23.719  0.00  0.00    +0.099 A 
ATOM     21  N   UNL     1      -3.728  -3.283  24.210  0.00  0.00    -0.242 NA
ATOM     22  C   UNL     1      -3.274  -2.891  24.776  0.00  0.00    +0.099 A 
ATOM     23  C   UNL     1      -3.329  -2.070  24.851  0.00  0.00    +0.022 A 
ENDBRANCH  15  18
ENDBRANCH   9  12
BRANCH   7   6
ATOM      2  N   UNL     1      -2.994   3.994  25.439  0.00  0.00    -0.260 NA
ATOM      3  C   UNL     1      -2.969   4.575  26.024  0.00  0.00    +0.073 C 
ATOM      4  C   UNL     1      -3.622   4.467  26.517  0.00  0.00    +0.019 C 
ATOM      5  C   UNL     1      -4.050   3.819  26.236  0.00  0.00    +0.027 C 
ATOM      6  C   UNL     1      -3.661   3.527  25.569  0.00  0.00    +0.138 C 
BRANCH   2   1
ATOM      1  C   UNL     1      -2.446   3.897  24.829  0.00  0.00    +0.139 C 
BRANCH   1  24
ATOM     24  C   UNL     1      -1.700   4.245  24.886  0.00  0.00    +0.155 A 
ATOM     25  N   UNL     1      -0.991   3.850  25.035  0.00  0.00    -0.226 NA
ATOM     26  C   UNL     1      -0.385   4.410  25.045  0.00  0.00    +0.121 A 
ATOM     27  C   UNL     1      -0.718   5.150  24.901  0.00  0.00    +0.121 A 
ATOM     28  N   UNL     1      -1.532   5.049  24.802  0.00  0.00    -0.226 NA
ENDBRANCH   1  24
ENDBRANCH   2   1
ENDBRANCH   7   6
TORSDOF 5
ENDMDL
MODEL 2
REMARK VINA RESULT:      -9.4      2.027      6.170
REMARK  Name = 
REMARK  5 active torsions:
REMARK  status: ('A' for Active; 'I' for Inactive)
REMARK    1  A    between atoms: C_1  and  N_2
REMARK    2  A    between atoms: C_1  and  C_24
REMARK    3  A    between atoms: C_6  and  C_7
REMARK    4  A    between atoms: C_9  and  C_12
REMARK    5  A    between atoms: C_15  and  C_18
REMARK                            x       y       z     vdW  Elec       q    Type
REMARK                         _______ _______ _______ _____ _____    ______ ____
ROOT
ATOM      7  C   UNL     1      -1.219  -0.638  25.267  0.00  0.00    +0.251 A 
ATOM      8  N   UNL     1      -1.276   0.116  24.934  0.00  0.00    -0.190 NA
ATOM      9  C   UNL     1      -1.206   0.669  25.542  0.00  0.00    +0.205 A 
ATOM     10  N   UNL     1      -1.105   0.259  26.250  0.00  0.00    -0.056 NA
ATOM     11  O   UNL     1      -1.114  -0.548  26.081  0.00  0.00    -0.336 OA
ENDROOT
BRANCH   9  12
ATOM     12  C   UNL     1      -1.231   1.489  25.456  0.00  0.00    +0.058 A 
ATOM     13  C   UNL     1      -0.651   1.959  25.807  0.00  0.00    +0.006 A 
ATOM     14  C   UNL     1      -0.676   2.779  25.721  0.00  0.00    +0.019 A 
ATOM     15  C   UNL     1      -1.282   3.129  25.284  0.00  0.00    +0.081 A 
ATOM     16  N   UNL     1      -1.863   2.660  24.933  0.00  0.00    -0.244 NA
ATOM     17  C   UNL     1      -1.837   1.840  25.019  0.00  0.00    +0.102 A 
BRANCH  15  18
ATOM     18  C   UNL     1      -1.308   3.950  25.198  0.00  0.00    +0.021 A 
ATOM     19  C   UNL     1      -1.966   4.371  25.462  0.00  0.00    +0.022 A 
ATOM     20  C   UNL     1      -1.992   5.192  25.376  0.00  0.00    +0.099 A 
ATOM     21  N   UNL     1      -1.359   5.590  25.026  0.00  0.00    -0.242 NA
ATOM     22  C   UNL     1      -0.701   5.168  24.763  0.00  0.00    +0.099 A 
ATOM     23  C   UNL     1      -0.675   4.348  24.849  0.00  0.00    +0.022 A 
ENDBRANCH  15  18
ENDBRANCH   9  12
BRANCH   7   6
ATOM      2  N   UNL     1      -1.941  -1.798  24.729  0.00  0.00    -0.260 NA
ATOM      3  C   UNL     1      -1.730  -2.469  24.298  0.00  0.00    +0.073 C 
ATOM      4  C   UNL     1      -0.917  -2.438  24.161  0.00  0.00    +0.019 C 
ATOM      5  C   UNL     1      -0.626  -1.748  24.508  0.00  0.00    +0.027 C 
ATOM      6  C   UNL     1      -1.260  -1.353  24.859  0.00  0.00    +0.138 C 
BRANCH   2   1
ATOM      1  C   UNL     1      -2.701  -1.607  24.986  0.00  0.00    +0.139 C 
BRANCH   1  24
ATOM     24  C   UNL     1      -3.359  -1.875  24.565  0.00  0.00    +0.155 A 
ATOM     25  N   UNL     1      -3.691  -2.628  24.612  0.00  0.00    -0.226 NA
ATOM     26  C   UNL     1      -4.337  -2.655  24.099  0.00  0.00    +0.121 A 
ATOM     27  C   UNL     1      -4.404  -1.918  23.735  0.00  0.00    +0.121 A 
ATOM     28  N   UNL     1      -3.799  -1.435  24.022  0.00  0.00    -0.226 NA
ENDBRANCH   1  24
ENDBRANCH   2   1
ENDBRANCH   7   6
TORSDOF 5
ENDMDL
MODEL 3
REMARK VINA RESULT:      -8.7      1.893      2.565
REMARK  Name = 
REMARK  5 active torsions:
REMARK  status: ('A' for Active; 'I' for Inactive)
REMARK    1  A    between atoms: C_1  and  N_2
REMARK    2  A    between atoms: C_1  and  C_24
REMARK    3  A    between atoms: C_6  and  C_7
REMARK    4  A    between atoms: C_9  and  C_12
REMARK    5  A    between atoms: C_15  and  C_18
REMARK                            x       y       z     vdW  Elec       q    Type
REMARK                         _______ _______ _______ _____ _____    ______ ____
ROOT
ATOM      7  C   UNL     1      -0.445   1.579  25.220  0.00  0.00    +0.251 A 
ATOM      8  N   UNL     1      -1.064   1.050  25.351  0.00  0.00    -0.190 NA
ATOM      9  C   UNL     1      -1.091   0.527  24.713  0.00  0.00    +0.205 A 
ATOM     10  N   UNL     1      -0.488   0.733  24.189  0.00  0.00    -0.056 NA
ATOM     11  O   UNL     1      -0.089   1.382  24.502  0.00  0.00    -0.336 OA
ENDROOT
BRANCH   9  12
ATOM     12  C   UNL     1      -1.626  -0.094  24.617  0.00  0.00    +0.058 A 
ATOM     13  C   UNL     1      -2.432   0.066  24.538  0.00  0.00    +0.006 A 
ATOM     14  C   UNL     1      -2.968  -0.554  24.442  0.00  0.00    +0.019 A 
ATOM     15  C   UNL     1      -2.697  -1.334  24.425  0.00  0.00    +0.081 A 
ATOM     16  N   UNL     1      -1.892  -1.493  24.503  0.00  0.00    -0.244 NA
ATOM     17  C   UNL     1      -1.356  -0.873  24.600  0.00  0.00    +0.102 A 
BRANCH  15  18
ATOM     18  C   UNL     1      -3.233  -1.954  24.328  0.00  0.00    +0.021 A 
ATOM     19  C   UNL     1      -3.092  -2.681  24.693  0.00  0.00    +0.022 A 
ATOM     20  C   UNL     1      -3.628  -3.301  24.597  0.00  0.00    +0.099 A 
ATOM     21  N   UNL     1      -4.304  -3.195  24.136  0.00  0.00    -0.242 NA
ATOM     22  C   UNL     1      -4.445  -2.468  23.771  0.00  0.00    +0.099 A 
ATOM     23  C   UNL     1      -3.909  -1.848  23.868  0.00  0.00    +0.022 A 
ENDBRANCH  15  18
ENDBRANCH   9  12
BRANCH   7   6
ATOM      2  N   UNL     1      -0.401   2.993  25.616  0.00  0.00    -0.260 NA
ATOM      3  C   UNL     1      -0.069   3.415  26.243  0.00  0.00    +0.073 C 
ATOM      4  C   UNL     1       0.316   2.876  26.735  0.00  0.00    +0.019 C 
ATOM      5  C   UNL     1       0.223   2.123  26.412  0.00  0.00    +0.027 C 
ATOM      6  C   UNL     1      -0.221   2.196  25.720  0.00  0.00    +0.138 C 
BRANCH   2   1
ATOM      1  C   UNL     1      -0.837   3.315  24.994  0.00  0.00    +0.139 C 
BRANCH   1  24
ATOM     24  C   UNL     1      -1.143   4.079  25.055  0.00  0.00    +0.155 A 
ATOM     25  N   UNL     1      -0.763   4.774  24.828  0.00  0.00    -0.226 NA
ATOM     26  C   UNL     1      -1.268   5.406  24.988  0.00  0.00    +0.121 A 
ATOM     27  C   UNL     1      -1.962   5.101  25.313  0.00  0.00    +0.121 A 
ATOM     28  N   UNL     1      -1.885   4.280  25.356  0.00  0.00    -0.226 NA
ENDBRANCH   1  24
ENDBRANCH   2   1
ENDBRANCH   7   6
TORSDOF 5
ENDMDL
MODEL 4
REMARK VINA RESULT:      -8.7      1.321      5.585
REMARK  Name = 
REMARK  5 active torsions:
REMARK  status: ('A' for Active; 'I' for Inactive)
REMARK    1  A    between atoms: C_1  and  N_2
REMARK    2  A    between atoms: C_1  and  C_24
REMARK    3  A    between atoms: C_6  and  C_7
REMARK    4  A    between atoms: C_9  and  C_12
REMARK    5  A    between atoms: C_15  and  C_18
REMARK                            x       y       z     vdW  Elec       q    Type
REMARK                         _______ _______ _______ _____ _____    ______ ____
ROOT
ATOM      7  C   UNL     1      -3.954  -0.015  24.669  0.00  0.00    +0.251 A 
ATOM      8  N   UNL     1      -3.362   0.545  24.538  0.00  0.00    -0.190 NA
ATOM      9  C   UNL     1      -3.581   1.242  24.919  0.00  0.00    +0.205 A 
ATOM     10  N   UNL     1      -4.309   1.114  25.285  0.00  0.00    -0.056 NA
ATOM     11  O   UNL     1      -4.539   0.338  25.131  0.00  0.00    -0.336 OA
ENDROOT
BRANCH   9  12
ATOM     12  C   UNL     1      -3.149   1.945  24.932  0.00  0.00    +0.058 A 
ATOM     13  C   UNL     1      -3.402   2.593  24.487  0.00  0.00    +0.006 A 
ATOM     14  C   UNL     1      -2.969   3.295  24.500  0.00  0.00    +0.019 A 
ATOM     15  C   UNL     1      -2.284   3.350  24.956  0.00  0.00    +0.081 A 
ATOM     16  N   UNL     1      -2.031   2.703  25.401  0.00  0.00    -0.244 NA
ATOM     17  C   UNL     1      -2.464   2.000  25.388  0.00  0.00    +0.102 A 
BRANCH  15  18
ATOM     18  C   UNL     1      -1.852   4.053  24.969  0.00  0.00    +0.021 A 
ATOM     19  C   UNL     1      -2.207   4.751  25.229  0.00  0.00    +0.022 A 
ATOM     20  C   UNL     1      -1.774   5.454  25.241  0.00  0.00    +0.099 A 
ATOM     21  N   UNL     1      -0.987   5.458  24.994  0.00  0.00    -0.242 NA
ATOM     22  C   UNL     1      -0.632   4.760  24.734  0.00  0.00    +0.099 A 
ATOM     23  C   UNL     1      -1.065   4.057  24.722  0.00  0.00    +0.022 A 
ENDBRANCH  15  18
ENDBRANCH   9  12
BRANCH   7   6
ATOM      2  N   UNL     1      -3.415  -1.378  24.577  0.00  0.00    -0.260 NA
ATOM      3  C   UNL     1      -3.629  -2.065  24.173  0.00  0.00    +0.073 C 
ATOM      4  C   UNL     1      -4.307  -1.901  23.733  0.00  0.00    +0.019 C 
ATOM      5  C   UNL     1      -4.512  -1.112  23.865  0.00  0.00    +0.027 C 
ATOM      6  C   UNL     1      -3.960  -0.790  24.387  0.00  0.00    +0.138 C 
BRANCH   2   1
ATOM      1  C   UNL     1      -2.768  -1.295  25.082  0.00  0.00    +0.139 C 
BRANCH   1  24
ATOM     24  C   UNL     1      -2.070  -1.709  24.931  0.00  0.00    +0.155 A 
ATOM     25  N   UNL     1      -1.388  -1.399  24.586  0.00  0.00    -0.226 NA
ATOM     26  C   UNL     1      -0.828  -2.003  24.540  0.00  0.00    +0.121 A 
ATOM     27  C   UNL     1      -1.164  -2.687  24.857  0.00  0.00    +0.121 A 
ATOM     28  N   UNL     1      -1.932  -2.505  25.098  0.00  0.00    -0.226 NA
ENDBRANCH   1  24
ENDBRANCH   2   1
ENDBRANCH   7   6
TORSDOF 5
ENDMDL
MODEL 5
REMARK VINA RESULT:      -8.4      1.691      2.569
REMARK  Name = 
REMARK  5 active torsions:
REMARK  status: ('A' for Active; 'I' for Inactive)
REMARK    1  A    between atoms: C_1  and  N_2
REMARK    2  A    between atoms: C_1  and  C_24
REMARK    3  A    between atoms: C_6  and  C_7
REMARK    4  A    between atoms: C_9  and  C_12
REMARK    5  A    between atoms: C_15  and  C_18
REMARK                            x       y       z     vdW  Elec       q    Type
REMARK                         _______ _______ _______ _____ _____    ______ ____
ROOT
ATOM      7  C   UNL     1      -1.081   2.612  25.408  0.00  0.00    +0.251 A 
ATOM      8  N   UNL     1      -1.564   1.996  25.146  0.00  0.00    -0.190 NA
ATOM      9  C   UNL     1      -1.207   1.284  25.360  0.00  0.00    +0.205 A 
ATOM     10  N   UNL     1      -0.504   1.459  25.753  0.00  0.00    -0.056 NA
ATOM     11  O   UNL     1      -0.426   2.279  25.783  0.00  0.00    -0.336 OA
ENDROOT
BRANCH   9  12
ATOM     12  C   UNL     1      -1.502   0.528  25.207  0.00  0.00    +0.058 A 
ATOM     13  C   UNL     1      -1.463  -0.055  25.789  0.00  0.00    +0.006 A 
ATOM     14  C   UNL     1      -1.758  -0.811  25.635  0.00  0.00    +0.019 A 
ATOM     15  C   UNL     1      -2.092  -0.982  24.901  0.00  0.00    +0.081 A 
ATOM     16  N   UNL     1      -2.132  -0.398  24.319  0.00  0.00    -0.244 NA
ATOM     17  C   UNL     1      -1.836   0.357  24.472  0.00  0.00    +0.102 A 
BRANCH  15  18
ATOM     18  C   UNL     1      -2.387  -1.737  24.748  0.00  0.00    +0.021 A 
ATOM     19  C   UNL     1      -3.183  -1.904  24.884  0.00  0.00    +0.022 A 
ATOM     20  C   UNL     1      -3.478  -2.659  24.731  0.00  0.00    +0.099 A 
ATOM     21  N   UNL     1      -2.977  -3.247  24.442  0.00  0.00    -0.242 NA
ATOM     22  C   UNL     1      -2.181  -3.081  24.305  0.00  0.00    +0.099 A 
ATOM     23  C   UNL     1      -1.886  -2.325  24.459  0.00  0.00    +0.022 A 
ENDBRANCH  15  18
ENDBRANCH   9  12
BRANCH   7   6
ATOM      2  N   UNL     1      -1.928   3.808  25.500  0.00  0.00    -0.260 NA
ATOM      3  C   UNL     1      -1.834   4.607  25.315  0.00  0.00    +0.073 C 
ATOM      4  C   UNL     1      -1.074   4.709  25.011  0.00  0.00    +0.019 C 
ATOM      5  C   UNL     1      -0.699   3.974  25.009  0.00  0.00    +0.027 C 
ATOM      6  C   UNL     1      -1.228   3.417  25.311  0.00  0.00    +0.138 C 
BRANCH   2   1
ATOM      1  C   UNL     1      -2.606   3.462  25.818  0.00  0.00    +0.139 C 
BRANCH   1  24
ATOM     24  C   UNL     1      -3.353   3.740  25.602  0.00  0.00    +0.155 A 
ATOM     25  N   UNL     1      -3.863   4.179  26.078  0.00  0.00    -0.226 NA
ATOM     26  C   UNL     1      -4.545   4.338  25.643  0.00  0.00    +0.121 A 
ATOM     27  C   UNL     1      -4.457   3.998  24.897  0.00  0.00    +0.121 A 
ATOM     28  N   UNL     1      -3.719   3.628  24.871  0.00  0.00    -0.226 NA
ENDBRANCH   1  24
ENDBRANCH   2   1
ENDBRANCH   7   6
TORSDOF 5
ENDMDL
MODEL 6
REMARK VINA RESULT:      -8.3      3.357      4.697
REMARK  Name = 
REMARK  5 active torsions:
REMARK  status: ('A' for Active; 'I' for Inactive)
REMARK    1  A    between atoms: C_1  and  N_2
REMARK    2  A    between atoms: C_1  and  C_24
REMARK    3  A    between atoms: C_6  and  C_7
REMARK    4  A    between atoms: C_9  and  C_12
REMARK    5  A    between atoms: C_15  and  C_18
REMARK                            x       y       z     vdW  Elec       q    Type
REMARK                         _______ _______ _______ _____ _____    ______ ____
ROOT
ATOM      7  C   UNL     1      -2.560   0.247  24.926  0.00  0.00    +0.251 A 
ATOM      8  N   UNL     1      -2.021   0.279  24.302  0.00  0.00    -0.190 NA
ATOM      9  C   UNL     1      -1.265   0.176  24.614  0.00  0.00    +0.205 A 
ATOM     10  N   UNL     1      -1.336   0.079  25.429  0.00  0.00    -0.056 NA
ATOM     11  O   UNL     1      -2.136   0.123  25.622  0.00  0.00    -0.336 OA
ENDROOT
BRANCH   9  12
ATOM     12  C   UNL     1      -0.560   0.169  24.184  0.00  0.00    +0.058 A 
ATOM     13  C   UNL     1      -0.216   0.881  23.946  0.00  0.00    +0.006 A 
ATOM     14  C   UNL     1       0.488   0.875  23.516  0.00  0.00    +0.019 A 
ATOM     15  C   UNL     1       0.849   0.158  23.326  0.00  0.00    +0.081 A 
ATOM     16  N   UNL     1       0.506  -0.554  23.564  0.00  0.00    -0.244 NA
ATOM     17  C   UNL     1      -0.199  -0.547  23.993  0.00  0.00    +0.102 A 
BRANCH  15  18
ATOM     18  C   UNL     1       1.554   0.152  22.896  0.00  0.00    +0.021 A 
ATOM     19  C   UNL     1       2.226   0.520  23.201  0.00  0.00    +0.022 A 
ATOM     20  C   UNL     1       2.930   0.514  22.772  0.00  0.00    +0.099 A 
ATOM     21  N   UNL     1       2.963   0.140  22.038  0.00  0.00    -0.242 NA
ATOM     22  C   UNL     1       2.291  -0.229  21.732  0.00  0.00    +0.099 A 
ATOM     23  C   UNL     1       1.586  -0.223  22.162  0.00  0.00    +0.022 A 
ENDBRANCH  15  18
ENDBRANCH   9  12
BRANCH   7   6
ATOM      2  N   UNL     1      -3.803   1.030  24.903  0.00  0.00    -0.260 NA
ATOM      3  C   UNL     1      -4.604   0.853  24.815  0.00  0.00    +0.073 C 
ATOM      4  C   UNL     1      -4.675   0.036  24.721  0.00  0.00    +0.019 C 
ATOM      5  C   UNL     1      -3.918  -0.290  24.751  0.00  0.00    +0.027 C 
ATOM      6  C   UNL     1      -3.379   0.325  24.864  0.00  0.00    +0.138 C 
BRANCH   2   1
ATOM      1  C   UNL     1      -3.483   1.783  25.012  0.00  0.00    +0.139 C 
BRANCH   1  24
ATOM     24  C   UNL     1      -3.974   2.446  25.003  0.00  0.00    +0.155 A 
ATOM     25  N   UNL     1      -4.391   2.750  25.646  0.00  0.00    -0.226 NA
ATOM     26  C   UNL     1      -4.809   3.413  25.390  0.00  0.00    +0.121 A 
ATOM     27  C   UNL     1      -4.651   3.520  24.587  0.00  0.00    +0.121 A 
ATOM     28  N   UNL     1      -4.134   2.922  24.348  0.00  0.00    -0.226 NA
ENDBRANCH   1  24
ENDBRANCH   2   1
ENDBRANCH   7   6
TORSDOF 5
ENDMDL
