REMARK  Name = 
REMARK  8 active torsions:
REMARK  status: ('A' for Active; 'I' for Inactive)
REMARK    1  A    between atoms: O_2  and  C_3
REMARK    2  A    between atoms: C_8  and  N_9
REMARK    3  A    between atoms: C_15  and  C_16
REMARK    4  A    between atoms: C_16  and  C_17
REMARK    5  A    between atoms: C_20  and  C_21
REMARK    6  A    between atoms: C_21  and  C_22
REMARK    7  A    between atoms: C_29  and  O_30
REMARK    8  A    between atoms: C_32  and  O_33
REMARK                            x       y       z     vdW  Elec       q    Type
REMARK                         _______ _______ _______ _____ _____    ______ ____
ROOT
ATOM      9  N   UNL     1      -2.143   3.712   0.000  0.00  0.00    -0.159 NA
ATOM     10  C   UNL     1      -1.429   3.300   0.000  0.00  0.00    +0.328 C 
ATOM     11  O   UNL     1      -0.715   3.712   0.000  0.00  0.00    -0.250 OA
ATOM     12  N   UNL     1      -1.429   2.475   0.000  0.00  0.00    -0.263 N 
ATOM     13  C   UNL     1      -2.143   2.062   0.000  0.00  0.00    +0.095 C 
ATOM     14  C   UNL     1      -2.143   1.238   0.000  0.00  0.00    +0.022 C 
ATOM     15  C   UNL     1      -1.429   0.825   0.000  0.00  0.00    +0.015 C 
ATOM     20  C   UNL     1      -0.715   1.238   0.000  0.00  0.00    +0.026 C 
ATOM     36  C   UNL     1      -0.715   2.062   0.000  0.00  0.00    +0.095 C 
ENDROOT
BRANCH   9   8
ATOM      3  C   UNL     1      -2.858   4.950   0.000  0.00  0.00    +0.154 A 
ATOM      4  C   UNL     1      -2.858   5.775   0.000  0.00  0.00    +0.038 A 
ATOM      5  C   UNL     1      -2.143   6.188   0.000  0.00  0.00    +0.003 A 
ATOM      6  C   UNL     1      -1.429   5.775   0.000  0.00  0.00    +0.002 A 
ATOM      7  C   UNL     1      -1.429   4.950   0.000  0.00  0.00    +0.020 A 
ATOM      8  C   UNL     1      -2.143   4.537   0.000  0.00  0.00    +0.109 A 
BRANCH   3   2
ATOM      1  C   UNL     1      -4.287   4.950   0.000  0.00  0.00    +0.253 C 
ATOM      2  O   UNL     1      -3.572   4.537   0.000  0.00  0.00    -0.470 OA
ENDBRANCH   3   2
ENDBRANCH   9   8
BRANCH  15  16
ATOM     16  C   UNL     1      -1.429   0.000   0.000  0.00  0.00    +0.114 C 
BRANCH  16  17
ATOM     17  C   UNL     1      -2.143  -0.412   0.000  0.00  0.00    +0.365 C 
ATOM     18  O   UNL     1      -2.858   0.000   0.000  0.00  0.00    -0.246 OA
ATOM     19  O   UNL     1      -2.143  -1.238   0.000  0.00  0.00    -0.246 OA
ENDBRANCH  16  17
ENDBRANCH  15  16
BRANCH  20  21
ATOM     21  C   UNL     1       0.000   0.825   0.000  0.00  0.00    +0.047 C 
BRANCH  21  22
ATOM     22  C   UNL     1       0.000   0.000   0.000  0.00  0.00    +0.054 C 
ATOM     23  N   UNL     1      -0.715  -0.412   0.000  0.00  0.00    -0.274 NA
ATOM     24  C   UNL     1      -0.715  -1.238   0.000  0.00  0.00    +0.130 C 
ATOM     25  C   UNL     1       0.000  -1.650   0.000  0.00  0.00    +0.053 C 
ATOM     26  C   UNL     1       0.715  -1.238   0.000  0.00  0.00    -0.016 A 
ATOM     27  C   UNL     1       0.715  -0.412   0.000  0.00  0.00    +0.012 A 
ATOM     28  C   UNL     1       1.429   0.000   0.000  0.00  0.00    +0.041 A 
ATOM     29  C   UNL     1       2.143  -0.412   0.000  0.00  0.00    +0.172 A 
ATOM     32  C   UNL     1       2.143  -1.238   0.000  0.00  0.00    +0.172 A 
ATOM     35  C   UNL     1       1.429  -1.650   0.000  0.00  0.00    +0.036 A 
BRANCH  29  30
ATOM     30  O   UNL     1       2.858   0.000   0.000  0.00  0.00    -0.468 OA
ATOM     31  C   UNL     1       3.572  -0.412   0.000  0.00  0.00    +0.253 C 
ENDBRANCH  29  30
BRANCH  32  33
ATOM     33  O   UNL     1       2.858  -1.650   0.000  0.00  0.00    -0.468 OA
ATOM     34  C   UNL     1       3.572  -1.238   0.000  0.00  0.00    +0.253 C 
ENDBRANCH  32  33
ENDBRANCH  21  22
ENDBRANCH  20  21
TORSDOF 8
