MODEL 1
REMARK VINA RESULT:     -11.6      0.000      0.000
REMARK  Name = 
REMARK  7 active torsions:
REMARK  status: ('A' for Active; 'I' for Inactive)
REMARK    1  A    between atoms: O_2  and  C_3
REMARK    2  A    between atoms: C_8  and  C_9
REMARK    3  A    between atoms: C_9  and  N_10
REMARK    4  A    between atoms: C_11  and  C_17
REMARK    5  A    between atoms: C_17  and  C_19
REMARK    6  A    between atoms: C_22  and  N_23
REMARK    7  A    between atoms: C_24  and  C_26
REMARK                            x       y       z     vdW  Elec       q    Type
REMARK                         _______ _______ _______ _____ _____    ______ ____
ROOT
ATOM     17  C   UNL     1      -3.767   2.880  24.208  0.00  0.00    +0.195 C 
ATOM     18  O   UNL     1      -3.546   3.304  23.535  0.00  0.00    -0.216 OA
ENDROOT
BRANCH  17  11
ATOM     10  N   UNL     1      -3.309   3.499  25.412  0.00  0.00    -0.270 N 
ATOM     11  C   UNL     1      -3.928   3.279  24.912  0.00  0.00    +0.140 C 
ATOM     12  C   UNL     1      -4.707   3.459  25.116  0.00  0.00    +0.165 C 
ATOM     13  O   UNL     1      -4.867   3.857  25.819  0.00  0.00    -0.343 OA
ATOM     14  C   UNL     1      -4.250   4.077  26.320  0.00  0.00    +0.227 C 
ATOM     15  C   UNL     1      -3.470   3.898  26.116  0.00  0.00    +0.256 C 
ATOM     16  O   UNL     1      -2.852   4.117  26.616  0.00  0.00    -0.272 OA
BRANCH  10   9
ATOM      9  C   UNL     1      -2.531   3.319  25.208  0.00  0.00    +0.123 C 
BRANCH   9   8
ATOM      3  C   UNL     1      -1.168   3.749  25.182  0.00  0.00    +0.136 A 
ATOM      4  C   UNL     1      -0.611   4.353  25.112  0.00  0.00    +0.037 A 
ATOM      5  C   UNL     1      -0.858   5.131  25.000  0.00  0.00    +0.003 A 
ATOM      6  C   UNL     1      -1.663   5.307  24.957  0.00  0.00    -0.000 A 
ATOM      7  C   UNL     1      -2.220   4.702  25.027  0.00  0.00    +0.000 A 
ATOM      8  C   UNL     1      -1.973   3.924  25.139  0.00  0.00    +0.032 A 
BRANCH   3   2
ATOM      1  C   UNL     1      -0.118   2.782  25.253  0.00  0.00    +0.252 C 
ATOM      2  O   UNL     1      -0.920   2.970  25.294  0.00  0.00    -0.472 OA
ENDBRANCH   3   2
ENDBRANCH   9   8
ENDBRANCH  10   9
ENDBRANCH  17  11
BRANCH  17  19
ATOM     19  C   UNL     1      -3.828   2.058  24.177  0.00  0.00    +0.010 A 
ATOM     20  C   UNL     1      -3.304   1.623  23.709  0.00  0.00    -0.000 A 
ATOM     21  C   UNL     1      -3.365   0.801  23.679  0.00  0.00    +0.016 A 
ATOM     22  C   UNL     1      -3.948   0.413  24.114  0.00  0.00    +0.074 A 
ATOM     32  C   UNL     1      -4.472   0.849  24.582  0.00  0.00    +0.016 A 
ATOM     33  C   UNL     1      -4.411   1.670  24.613  0.00  0.00    -0.000 A 
BRANCH  22  23
ATOM     23  N   UNL     1      -4.009  -0.409  24.083  0.00  0.00    -0.174 NA
ATOM     24  C   UNL     1      -3.557  -0.875  24.592  0.00  0.00    +0.288 C 
ATOM     25  O   UNL     1      -3.043  -0.518  25.131  0.00  0.00    -0.266 OA
BRANCH  24  26
ATOM     26  C   UNL     1      -3.617  -1.697  24.562  0.00  0.00    +0.156 A 
ATOM     27  C   UNL     1      -3.308  -2.156  25.173  0.00  0.00    +0.123 A 
ATOM     28  N   UNL     1      -3.368  -2.979  25.143  0.00  0.00    -0.239 NA
ATOM     29  C   UNL     1      -3.738  -3.341  24.501  0.00  0.00    +0.120 A 
ATOM     30  C   UNL     1      -4.047  -2.882  23.890  0.00  0.00    +0.120 A 
ATOM     31  N   UNL     1      -3.987  -2.060  23.919  0.00  0.00    -0.236 NA
ENDBRANCH  24  26
ENDBRANCH  22  23
ENDBRANCH  17  19
TORSDOF 7
ENDMDL
MODEL 2
REMARK VINA RESULT:      -9.8      3.010      5.114
REMARK  Name = 
REMARK  7 active torsions:
REMARK  status: ('A' for Active; 'I' for Inactive)
REMARK    1  A    between atoms: O_2  and  C_3
REMARK    2  A    between atoms: C_8  and  C_9
REMARK    3  A    between atoms: C_9  and  N_10
REMARK    4  A    between atoms: C_11  and  C_17
REMARK    5  A    between atoms: C_17  and  C_19
REMARK    6  A    between atoms: C_22  and  N_23
REMARK    7  A    between atoms: C_24  and  C_26
REMARK                            x       y       z     vdW  Elec       q    Type
REMARK                         _______ _______ _______ _____ _____    ______ ____
ROOT
ATOM     17  C   UNL     1      -2.085   0.097  24.938  0.00  0.00    +0.195 C 
ATOM     18  O   UNL     1      -2.194   0.654  25.537  0.00  0.00    -0.216 OA
ENDROOT
BRANCH  17  11
ATOM     10  N   UNL     1      -3.394  -0.111  24.403  0.00  0.00    -0.270 N 
ATOM     11  C   UNL     1      -2.700  -0.413  24.733  0.00  0.00    +0.140 C 
ATOM     12  C   UNL     1      -2.623  -1.224  24.857  0.00  0.00    +0.165 C 
ATOM     13  O   UNL     1      -3.237  -1.734  24.652  0.00  0.00    -0.343 OA
ATOM     14  C   UNL     1      -3.931  -1.432  24.322  0.00  0.00    +0.227 C 
ATOM     15  C   UNL     1      -4.009  -0.620  24.198  0.00  0.00    +0.256 C 
ATOM     16  O   UNL     1      -4.702  -0.319  23.868  0.00  0.00    -0.272 OA
BRANCH  10   9
ATOM      9  C   UNL     1      -3.472   0.701  24.278  0.00  0.00    +0.123 C 
BRANCH   9   8
ATOM      3  C   UNL     1      -4.295   1.867  24.346  0.00  0.00    +0.136 A 
ATOM      4  C   UNL     1      -4.927   2.276  24.682  0.00  0.00    +0.037 A 
ATOM      5  C   UNL     1      -5.368   1.930  25.286  0.00  0.00    +0.003 A 
ATOM      6  C   UNL     1      -5.178   1.174  25.555  0.00  0.00    -0.000 A 
ATOM      7  C   UNL     1      -4.546   0.765  25.219  0.00  0.00    +0.000 A 
ATOM      8  C   UNL     1      -4.105   1.111  24.615  0.00  0.00    +0.032 A 
BRANCH   3   2
ATOM      1  C   UNL     1      -3.921   3.022  23.593  0.00  0.00    +0.252 C 
ATOM      2  O   UNL     1      -3.854   2.214  23.741  0.00  0.00    -0.472 OA
ENDBRANCH   3   2
ENDBRANCH   9   8
ENDBRANCH  10   9
ENDBRANCH  17  11
BRANCH  17  19
ATOM     19  C   UNL     1      -1.362   0.050  24.545  0.00  0.00    +0.010 A 
ATOM     20  C   UNL     1      -1.215   0.534  23.892  0.00  0.00    -0.000 A 
ATOM     21  C   UNL     1      -0.491   0.487  23.499  0.00  0.00    +0.016 A 
ATOM     22  C   UNL     1       0.085  -0.044  23.757  0.00  0.00    +0.074 A 
ATOM     32  C   UNL     1      -0.062  -0.528  24.409  0.00  0.00    +0.016 A 
ATOM     33  C   UNL     1      -0.785  -0.481  24.803  0.00  0.00    -0.000 A 
BRANCH  22  23
ATOM     23  N   UNL     1       0.809  -0.092  23.364  0.00  0.00    -0.174 NA
ATOM     24  C   UNL     1       1.327   0.550  23.375  0.00  0.00    +0.288 C 
ATOM     25  O   UNL     1       1.121   1.240  23.780  0.00  0.00    -0.266 OA
BRANCH  24  26
ATOM     26  C   UNL     1       2.051   0.504  22.982  0.00  0.00    +0.156 A 
ATOM     27  C   UNL     1       2.130   0.023  22.318  0.00  0.00    +0.123 A 
ATOM     28  N   UNL     1       2.855  -0.023  21.925  0.00  0.00    -0.239 NA
ATOM     29  C   UNL     1       3.499   0.412  22.198  0.00  0.00    +0.120 A 
ATOM     30  C   UNL     1       3.421   0.893  22.863  0.00  0.00    +0.120 A 
ATOM     31  N   UNL     1       2.697   0.940  23.256  0.00  0.00    -0.236 NA
ENDBRANCH  24  26
ENDBRANCH  22  23
ENDBRANCH  17  19
TORSDOF 7
ENDMDL
MODEL 3
REMARK VINA RESULT:      -9.3      1.227      2.486
REMARK  Name = 
REMARK  7 active torsions:
REMARK  status: ('A' for Active; 'I' for Inactive)
REMARK    1  A    between atoms: O_2  and  C_3
REMARK    2  A    between atoms: C_8  and  C_9
REMARK    3  A    between atoms: C_9  and  N_10
REMARK    4  A    between atoms: C_11  and  C_17
REMARK    5  A    between atoms: C_17  and  C_19
REMARK    6  A    between atoms: C_22  and  N_23
REMARK    7  A    between atoms: C_24  and  C_26
REMARK                            x       y       z     vdW  Elec       q    Type
REMARK                         _______ _______ _______ _____ _____    ______ ____
ROOT
ATOM     17  C   UNL     1      -0.974   2.069  24.191  0.00  0.00    +0.195 C 
ATOM     18  O   UNL     1      -1.017   2.626  23.585  0.00  0.00    -0.216 OA
ENDROOT
BRANCH  17  11
ATOM     10  N   UNL     1      -0.858   2.728  25.454  0.00  0.00    -0.270 N 
ATOM     11  C   UNL     1      -0.541   2.235  24.873  0.00  0.00    +0.140 C 
ATOM     12  C   UNL     1       0.210   1.908  24.976  0.00  0.00    +0.165 C 
ATOM     13  O   UNL     1       0.642   2.074  25.657  0.00  0.00    -0.343 OA
ATOM     14  C   UNL     1       0.326   2.566  26.238  0.00  0.00    +0.227 C 
ATOM     15  C   UNL     1      -0.426   2.894  26.136  0.00  0.00    +0.256 C 
ATOM     16  O   UNL     1      -0.742   3.386  26.716  0.00  0.00    -0.272 OA
BRANCH  10   9
ATOM      9  C   UNL     1      -1.609   3.054  25.352  0.00  0.00    +0.123 C 
BRANCH   9   8
ATOM      3  C   UNL     1      -2.421   4.216  25.534  0.00  0.00    +0.136 A 
ATOM      4  C   UNL     1      -2.512   5.035  25.503  0.00  0.00    +0.037 A 
ATOM      5  C   UNL     1      -1.885   5.512  25.260  0.00  0.00    +0.003 A 
ATOM      6  C   UNL     1      -1.165   5.170  25.047  0.00  0.00    -0.000 A 
ATOM      7  C   UNL     1      -1.074   4.351  25.078  0.00  0.00    +0.000 A 
ATOM      8  C   UNL     1      -1.701   3.874  25.321  0.00  0.00    +0.032 A 
BRANCH   3   2
ATOM      1  C   UNL     1      -3.820   4.029  25.752  0.00  0.00    +0.252 C 
ATOM      2  O   UNL     1      -3.048   3.739  25.777  0.00  0.00    -0.472 OA
ENDBRANCH   3   2
ENDBRANCH   9   8
ENDBRANCH  10   9
ENDBRANCH  17  11
BRANCH  17  19
ATOM     19  C   UNL     1      -1.363   1.346  24.116  0.00  0.00    +0.010 A 
ATOM     20  C   UNL     1      -2.154   1.326  23.878  0.00  0.00    -0.000 A 
ATOM     21  C   UNL     1      -2.543   0.602  23.803  0.00  0.00    +0.016 A 
ATOM     22  C   UNL     1      -2.143  -0.101  23.965  0.00  0.00    +0.074 A 
ATOM     32  C   UNL     1      -1.353  -0.080  24.203  0.00  0.00    +0.016 A 
ATOM     33  C   UNL     1      -0.963   0.642  24.278  0.00  0.00    -0.000 A 
BRANCH  22  23
ATOM     23  N   UNL     1      -2.533  -0.824  23.890  0.00  0.00    -0.174 NA
ATOM     24  C   UNL     1      -2.974  -1.122  24.520  0.00  0.00    +0.288 C 
ATOM     25  O   UNL     1      -3.026  -0.696  25.225  0.00  0.00    -0.266 OA
BRANCH  24  26
ATOM     26  C   UNL     1      -3.364  -1.846  24.446  0.00  0.00    +0.156 A 
ATOM     27  C   UNL     1      -3.141  -2.484  24.917  0.00  0.00    +0.123 A 
ATOM     28  N   UNL     1      -3.531  -3.208  24.842  0.00  0.00    -0.239 NA
ATOM     29  C   UNL     1      -4.144  -3.291  24.297  0.00  0.00    +0.120 A 
ATOM     30  C   UNL     1      -4.367  -2.653  23.826  0.00  0.00    +0.120 A 
ATOM     31  N   UNL     1      -3.977  -1.929  23.900  0.00  0.00    -0.236 NA
ENDBRANCH  24  26
ENDBRANCH  22  23
ENDBRANCH  17  19
TORSDOF 7
ENDMDL
MODEL 4
REMARK VINA RESULT:      -8.9      2.680      4.486
REMARK  Name = 
REMARK  7 active torsions:
REMARK  status: ('A' for Active; 'I' for Inactive)
REMARK    1  A    between atoms: O_2  and  C_3
REMARK    2  A    between atoms: C_8  and  C_9
REMARK    3  A    between atoms: C_9  and  N_10
REMARK    4  A    between atoms: C_11  and  C_17
REMARK    5  A    between atoms: C_17  and  C_19
REMARK    6  A    between atoms: C_22  and  N_23
REMARK    7  A    between atoms: C_24  and  C_26
REMARK                            x       y       z     vdW  Elec       q    Type
REMARK                         _______ _______ _______ _____ _____    ______ ____
ROOT
ATOM     17  C   UNL     1      -1.933   2.479  25.333  0.00  0.00    +0.195 C 
ATOM     18  O   UNL     1      -2.251   2.001  25.926  0.00  0.00    -0.216 OA
ENDROOT
BRANCH  17  11
ATOM     10  N   UNL     1      -3.078   3.122  24.768  0.00  0.00    -0.270 N 
ATOM     11  C   UNL     1      -2.325   3.168  25.105  0.00  0.00    +0.140 C 
ATOM     12  C   UNL     1      -1.967   3.903  25.212  0.00  0.00    +0.165 C 
ATOM     13  O   UNL     1      -2.359   4.591  24.984  0.00  0.00    -0.343 OA
ATOM     14  C   UNL     1      -3.110   4.546  24.648  0.00  0.00    +0.227 C 
ATOM     15  C   UNL     1      -3.470   3.810  24.540  0.00  0.00    +0.256 C 
ATOM     16  O   UNL     1      -4.222   3.765  24.203  0.00  0.00    -0.272 OA
BRANCH  10   9
ATOM      9  C   UNL     1      -3.436   2.387  24.660  0.00  0.00    +0.123 C 
BRANCH   9   8
ATOM      3  C   UNL     1      -4.598   1.562  24.765  0.00  0.00    +0.136 A 
ATOM      4  C   UNL     1      -5.347   1.419  25.080  0.00  0.00    +0.037 A 
ATOM      5  C   UNL     1      -5.682   1.958  25.605  0.00  0.00    +0.003 A 
ATOM      6  C   UNL     1      -5.270   2.641  25.816  0.00  0.00    -0.000 A 
ATOM      7  C   UNL     1      -4.522   2.783  25.501  0.00  0.00    +0.000 A 
ATOM      8  C   UNL     1      -4.186   2.244  24.976  0.00  0.00    +0.032 A 
BRANCH   3   2
ATOM      1  C   UNL     1      -4.510   0.236  24.240  0.00  0.00    +0.252 C 
ATOM      2  O   UNL     1      -4.262   1.022  24.239  0.00  0.00    -0.472 OA
ENDBRANCH   3   2
ENDBRANCH   9   8
ENDBRANCH  10   9
ENDBRANCH  17  11
BRANCH  17  19
ATOM     19  C   UNL     1      -1.223   2.269  24.969  0.00  0.00    +0.010 A 
ATOM     20  C   UNL     1      -0.533   2.205  25.418  0.00  0.00    -0.000 A 
ATOM     21  C   UNL     1       0.177   1.995  25.053  0.00  0.00    +0.016 A 
ATOM     22  C   UNL     1       0.197   1.849  24.242  0.00  0.00    +0.074 A 
ATOM     32  C   UNL     1      -0.493   1.914  23.793  0.00  0.00    +0.016 A 
ATOM     33  C   UNL     1      -1.203   2.124  24.157  0.00  0.00    -0.000 A 
BRANCH  22  23
ATOM     23  N   UNL     1       0.907   1.639  23.877  0.00  0.00    -0.174 NA
ATOM     24  C   UNL     1       1.000   0.882  23.563  0.00  0.00    +0.288 C 
ATOM     25  O   UNL     1       0.384   0.335  23.613  0.00  0.00    -0.266 OA
BRANCH  24  26
ATOM     26  C   UNL     1       1.709   0.671  23.198  0.00  0.00    +0.156 A 
ATOM     27  C   UNL     1       1.735   0.022  22.691  0.00  0.00    +0.123 A 
ATOM     28  N   UNL     1       2.445  -0.189  22.326  0.00  0.00    -0.239 NA
ATOM     29  C   UNL     1       3.128   0.250  22.470  0.00  0.00    +0.120 A 
ATOM     30  C   UNL     1       3.103   0.898  22.977  0.00  0.00    +0.120 A 
ATOM     31  N   UNL     1       2.394   1.110  23.342  0.00  0.00    -0.236 NA
ENDBRANCH  24  26
ENDBRANCH  22  23
ENDBRANCH  17  19
TORSDOF 7
ENDMDL
MODEL 5
REMARK VINA RESULT:      -8.8      3.082      5.213
REMARK  Name = 
REMARK  7 active torsions:
REMARK  status: ('A' for Active; 'I' for Inactive)
REMARK    1  A    between atoms: O_2  and  C_3
REMARK    2  A    between atoms: C_8  and  C_9
REMARK    3  A    between atoms: C_9  and  N_10
REMARK    4  A    between atoms: C_11  and  C_17
REMARK    5  A    between atoms: C_17  and  C_19
REMARK    6  A    between atoms: C_22  and  N_23
REMARK    7  A    between atoms: C_24  and  C_26
REMARK                            x       y       z     vdW  Elec       q    Type
REMARK                         _______ _______ _______ _____ _____    ______ ____
ROOT
ATOM     17  C   UNL     1      -1.756   1.082  25.033  0.00  0.00    +0.195 C 
ATOM     18  O   UNL     1      -1.808   0.694  25.759  0.00  0.00    -0.216 OA
ENDROOT
BRANCH  17  11
ATOM     10  N   UNL     1      -3.163   1.102  24.782  0.00  0.00    -0.270 N 
ATOM     11  C   UNL     1      -2.420   1.455  24.716  0.00  0.00    +0.140 C 
ATOM     12  C   UNL     1      -2.343   2.182  24.334  0.00  0.00    +0.165 C 
ATOM     13  O   UNL     1      -3.006   2.555  24.018  0.00  0.00    -0.343 OA
ATOM     14  C   UNL     1      -3.749   2.202  24.083  0.00  0.00    +0.227 C 
ATOM     15  C   UNL     1      -3.827   1.474  24.466  0.00  0.00    +0.256 C 
ATOM     16  O   UNL     1      -4.569   1.121  24.531  0.00  0.00    -0.272 OA
BRANCH  10   9
ATOM      9  C   UNL     1      -3.241   0.375  25.164  0.00  0.00    +0.123 C 
BRANCH   9   8
ATOM      3  C   UNL     1      -3.667  -0.989  25.149  0.00  0.00    +0.136 A 
ATOM      4  C   UNL     1      -3.967  -1.639  24.739  0.00  0.00    +0.037 A 
ATOM      5  C   UNL     1      -4.141  -1.576  23.936  0.00  0.00    +0.003 A 
ATOM      6  C   UNL     1      -4.016  -0.863  23.541  0.00  0.00    -0.000 A 
ATOM      7  C   UNL     1      -3.716  -0.213  23.951  0.00  0.00    +0.000 A 
ATOM      8  C   UNL     1      -3.541  -0.276  24.754  0.00  0.00    +0.032 A 
BRANCH   3   2
ATOM      1  C   UNL     1      -3.462  -1.794  26.311  0.00  0.00    +0.252 C 
ATOM      2  O   UNL     1      -3.492  -1.053  25.953  0.00  0.00    -0.472 OA
ENDBRANCH   3   2
ENDBRANCH   9   8
ENDBRANCH  10   9
ENDBRANCH  17  11
BRANCH  17  19
ATOM     19  C   UNL     1      -1.041   1.097  24.623  0.00  0.00    +0.010 A 
ATOM     20  C   UNL     1      -0.922   0.591  23.981  0.00  0.00    -0.000 A 
ATOM     21  C   UNL     1      -0.206   0.606  23.571  0.00  0.00    +0.016 A 
ATOM     22  C   UNL     1       0.391   1.126  23.802  0.00  0.00    +0.074 A 
ATOM     32  C   UNL     1       0.272   1.632  24.444  0.00  0.00    +0.016 A 
ATOM     33  C   UNL     1      -0.443   1.617  24.853  0.00  0.00    -0.000 A 
BRANCH  22  23
ATOM     23  N   UNL     1       1.107   1.141  23.392  0.00  0.00    -0.174 NA
ATOM     24  C   UNL     1       1.552   0.451  23.316  0.00  0.00    +0.288 C 
ATOM     25  O   UNL     1       1.282  -0.254  23.648  0.00  0.00    -0.266 OA
BRANCH  24  26
ATOM     26  C   UNL     1       2.268   0.465  22.906  0.00  0.00    +0.156 A 
ATOM     27  C   UNL     1       2.349   0.045  22.202  0.00  0.00    +0.123 A 
ATOM     28  N   UNL     1       3.066   0.059  21.793  0.00  0.00    -0.239 NA
ATOM     29  C   UNL     1       3.701   0.494  22.089  0.00  0.00    +0.120 A 
ATOM     30  C   UNL     1       3.620   0.915  22.793  0.00  0.00    +0.120 A 
ATOM     31  N   UNL     1       2.904   0.901  23.203  0.00  0.00    -0.236 NA
ENDBRANCH  24  26
ENDBRANCH  22  23
ENDBRANCH  17  19
TORSDOF 7
ENDMDL
MODEL 6
REMARK VINA RESULT:      -8.5      1.825      6.203
REMARK  Name = 
REMARK  7 active torsions:
REMARK  status: ('A' for Active; 'I' for Inactive)
REMARK    1  A    between atoms: O_2  and  C_3
REMARK    2  A    between atoms: C_8  and  C_9
REMARK    3  A    between atoms: C_9  and  N_10
REMARK    4  A    between atoms: C_11  and  C_17
REMARK    5  A    between atoms: C_17  and  C_19
REMARK    6  A    between atoms: C_22  and  N_23
REMARK    7  A    between atoms: C_24  and  C_26
REMARK                            x       y       z     vdW  Elec       q    Type
REMARK                         _______ _______ _______ _____ _____    ______ ____
ROOT
ATOM     17  C   UNL     1      -1.828  -0.354  25.675  0.00  0.00    +0.195 C 
ATOM     18  O   UNL     1      -2.439  -0.546  26.195  0.00  0.00    -0.216 OA
ENDROOT
BRANCH  17  11
ATOM     10  N   UNL     1      -1.683  -1.437  24.753  0.00  0.00    -0.270 N 
ATOM     11  C   UNL     1      -1.368  -0.953  25.343  0.00  0.00    +0.140 C 
ATOM     12  C   UNL     1      -0.592  -1.069  25.599  0.00  0.00    +0.165 C 
ATOM     13  O   UNL     1      -0.133  -1.667  25.267  0.00  0.00    -0.343 OA
ATOM     14  C   UNL     1      -0.447  -2.150  24.678  0.00  0.00    +0.227 C 
ATOM     15  C   UNL     1      -1.224  -2.035  24.421  0.00  0.00    +0.256 C 
ATOM     16  O   UNL     1      -1.538  -2.519  23.831  0.00  0.00    -0.272 OA
BRANCH  10   9
ATOM      9  C   UNL     1      -2.459  -1.322  24.496  0.00  0.00    +0.123 C 
BRANCH   9   8
ATOM      3  C   UNL     1      -3.696  -1.901  24.077  0.00  0.00    +0.136 A 
ATOM      4  C   UNL     1      -4.231  -2.529  24.089  0.00  0.00    +0.037 A 
ATOM      5  C   UNL     1      -4.066  -3.203  24.534  0.00  0.00    +0.003 A 
ATOM      6  C   UNL     1      -3.365  -3.251  24.966  0.00  0.00    -0.000 A 
ATOM      7  C   UNL     1      -2.830  -2.624  24.953  0.00  0.00    +0.000 A 
ATOM      8  C   UNL     1      -2.995  -1.949  24.509  0.00  0.00    +0.032 A 
BRANCH   3   2
ATOM      1  C   UNL     1      -4.643  -1.004  23.496  0.00  0.00    +0.252 C 
ATOM      2  O   UNL     1      -3.861  -1.226  23.632  0.00  0.00    -0.472 OA
ENDBRANCH   3   2
ENDBRANCH   9   8
ENDBRANCH  10   9
ENDBRANCH  17  11
BRANCH  17  19
ATOM     19  C   UNL     1      -1.676   0.434  25.488  0.00  0.00    +0.010 A 
ATOM     20  C   UNL     1      -0.989   0.799  25.765  0.00  0.00    -0.000 A 
ATOM     21  C   UNL     1      -0.838   1.589  25.577  0.00  0.00    +0.016 A 
ATOM     22  C   UNL     1      -1.372   2.012  25.113  0.00  0.00    +0.074 A 
ATOM     32  C   UNL     1      -2.059   1.647  24.836  0.00  0.00    +0.016 A 
ATOM     33  C   UNL     1      -2.210   0.858  25.023  0.00  0.00    -0.000 A 
BRANCH  22  23
ATOM     23  N   UNL     1      -1.221   2.801  24.925  0.00  0.00    -0.174 NA
ATOM     24  C   UNL     1      -1.510   3.403  25.410  0.00  0.00    +0.288 C 
ATOM     25  O   UNL     1      -1.950   3.215  26.083  0.00  0.00    -0.266 OA
BRANCH  24  26
ATOM     26  C   UNL     1      -1.359   4.192  25.224  0.00  0.00    +0.156 A 
ATOM     27  C   UNL     1      -1.927   4.769  25.381  0.00  0.00    +0.123 A 
ATOM     28  N   UNL     1      -1.775   5.559  25.194  0.00  0.00    -0.239 NA
ATOM     29  C   UNL     1      -1.056   5.770  24.850  0.00  0.00    +0.120 A 
ATOM     30  C   UNL     1      -0.489   5.193  24.693  0.00  0.00    +0.120 A 
ATOM     31  N   UNL     1      -0.639   4.404  24.879  0.00  0.00    -0.236 NA
ENDBRANCH  24  26
ENDBRANCH  22  23
ENDBRANCH  17  19
TORSDOF 7
ENDMDL
MODEL 7
REMARK VINA RESULT:      -8.3      1.396      5.549
REMARK  Name = 
REMARK  7 active torsions:
REMARK  status: ('A' for Active; 'I' for Inactive)
REMARK    1  A    between atoms: O_2  and  C_3
REMARK    2  A    between atoms: C_8  and  C_9
REMARK    3  A    between atoms: C_9  and  N_10
REMARK    4  A    between atoms: C_11  and  C_17
REMARK    5  A    between atoms: C_17  and  C_19
REMARK    6  A    between atoms: C_22  and  N_23
REMARK    7  A    between atoms: C_24  and  C_26
REMARK                            x       y       z     vdW  Elec       q    Type
REMARK                         _______ _______ _______ _____ _____    ______ ____
ROOT
ATOM     17  C   UNL     1      -3.554   0.413  23.987  0.00  0.00    +0.195 C 
ATOM     18  O   UNL     1      -3.567  -0.017  23.283  0.00  0.00    -0.216 OA
ENDROOT
BRANCH  17  11
ATOM     10  N   UNL     1      -3.589  -0.548  25.045  0.00  0.00    -0.270 N 
ATOM     11  C   UNL     1      -3.915   0.108  24.663  0.00  0.00    +0.140 C 
ATOM     12  C   UNL     1      -4.601   0.458  24.959  0.00  0.00    +0.165 C 
ATOM     13  O   UNL     1      -4.961   0.153  25.635  0.00  0.00    -0.343 OA
ATOM     14  C   UNL     1      -4.636  -0.502  26.016  0.00  0.00    +0.227 C 
ATOM     15  C   UNL     1      -3.950  -0.852  25.721  0.00  0.00    +0.256 C 
ATOM     16  O   UNL     1      -3.625  -1.508  26.102  0.00  0.00    -0.272 OA
BRANCH  10   9
ATOM      9  C   UNL     1      -2.903  -0.897  24.750  0.00  0.00    +0.123 C 
BRANCH   9   8
ATOM      3  C   UNL     1      -2.192  -2.126  24.582  0.00  0.00    +0.136 A 
ATOM      4  C   UNL     1      -2.189  -2.929  24.393  0.00  0.00    +0.037 A 
ATOM      5  C   UNL     1      -2.890  -3.306  24.181  0.00  0.00    +0.003 A 
ATOM      6  C   UNL     1      -3.597  -2.881  24.159  0.00  0.00    -0.000 A 
ATOM      7  C   UNL     1      -3.601  -2.078  24.349  0.00  0.00    +0.000 A 
ATOM      8  C   UNL     1      -2.899  -1.701  24.560  0.00  0.00    +0.032 A 
BRANCH   3   2
ATOM      1  C   UNL     1      -0.770  -2.142  24.714  0.00  0.00    +0.252 C 
ATOM      2  O   UNL     1      -1.490  -1.748  24.794  0.00  0.00    -0.472 OA
ENDBRANCH   3   2
ENDBRANCH   9   8
ENDBRANCH  10   9
ENDBRANCH  17  11
BRANCH  17  19
ATOM     19  C   UNL     1      -3.181   1.148  24.015  0.00  0.00    +0.010 A 
ATOM     20  C   UNL     1      -3.631   1.839  24.056  0.00  0.00    -0.000 A 
ATOM     21  C   UNL     1      -3.257   2.574  24.083  0.00  0.00    +0.016 A 
ATOM     22  C   UNL     1      -2.434   2.619  24.071  0.00  0.00    +0.074 A 
ATOM     32  C   UNL     1      -1.983   1.928  24.030  0.00  0.00    +0.016 A 
ATOM     33  C   UNL     1      -2.357   1.193  24.002  0.00  0.00    -0.000 A 
BRANCH  22  23
ATOM     23  N   UNL     1      -2.060   3.354  24.099  0.00  0.00    -0.174 NA
ATOM     24  C   UNL     1      -1.853   3.683  24.826  0.00  0.00    +0.288 C 
ATOM     25  O   UNL     1      -2.020   3.278  25.526  0.00  0.00    -0.266 OA
BRANCH  24  26
ATOM     26  C   UNL     1      -1.479   4.418  24.855  0.00  0.00    +0.156 A 
ATOM     27  C   UNL     1      -0.672   4.476  24.698  0.00  0.00    +0.123 A 
ATOM     28  N   UNL     1      -0.298   5.212  24.728  0.00  0.00    -0.239 NA
ATOM     29  C   UNL     1      -0.733   5.888  24.914  0.00  0.00    +0.120 A 
ATOM     30  C   UNL     1      -1.539   5.829  25.071  0.00  0.00    +0.120 A 
ATOM     31  N   UNL     1      -1.913   5.094  25.042  0.00  0.00    -0.236 NA
ENDBRANCH  24  26
ENDBRANCH  22  23
ENDBRANCH  17  19
TORSDOF 7
ENDMDL
