MODEL 1
REMARK VINA RESULT:     -11.0      0.000      0.000
REMARK  Name = 
REMARK  4 active torsions:
REMARK  status: ('A' for Active; 'I' for Inactive)
REMARK    1  A    between atoms: C_2  and  C_3
REMARK    2  A    between atoms: C_3  and  O_4
REMARK    3  A    between atoms: O_4  and  C_5
REMARK    4  A    between atoms: C_14  and  C_16
REMARK                            x       y       z     vdW  Elec       q    Type
REMARK                         _______ _______ _______ _____ _____    ______ ____
ROOT
ATOM      1  O   UNL     1      -4.264   0.835  24.914  0.00  0.00    -0.271 OA
ATOM      2  C   UNL     1      -3.503   0.515  24.908  0.00  0.00    +0.270 C 
ATOM     11  N   UNL     1      -2.845   1.013  24.916  0.00  0.00    -0.276 N 
ATOM     12  C   UNL     1      -2.056   0.775  24.911  0.00  0.00    +0.094 C 
ATOM     13  C   UNL     1      -1.585   1.452  24.923  0.00  0.00    +0.030 C 
ATOM     14  C   UNL     1      -2.084   2.109  24.934  0.00  0.00    +0.068 C 
ATOM     15  C   UNL     1      -2.863   1.838  24.930  0.00  0.00    +0.100 C 
ENDROOT
BRANCH  14  16
ATOM     16  C   UNL     1      -1.845   2.899  24.948  0.00  0.00    +0.090 A 
ATOM     17  N   UNL     1      -2.307   3.541  25.182  0.00  0.00    -0.243 NA
ATOM     18  C   UNL     1      -1.850   4.224  25.108  0.00  0.00    +0.087 A 
ATOM     19  C   UNL     1      -1.106   4.004  24.829  0.00  0.00    +0.048 A 
ATOM     20  S   UNL     1      -1.102   3.185  24.729  0.00  0.00    -0.071 S 
ATOM     21  C   UNL     1      -0.527   4.578  24.701  0.00  0.00    +0.008 A 
ATOM     22  C   UNL     1      -0.692   5.371  24.852  0.00  0.00    +0.001 A 
ATOM     23  C   UNL     1      -1.437   5.591  25.132  0.00  0.00    +0.002 A 
ATOM     24  C   UNL     1      -2.016   5.018  25.260  0.00  0.00    +0.020 A 
ENDBRANCH  14  16
BRANCH   2   3
ATOM      3  C   UNL     1      -3.400  -0.304  24.893  0.00  0.00    +0.290 C 
BRANCH   3   4
ATOM      4  O   UNL     1      -4.048  -0.799  24.768  0.00  0.00    -0.466 OA
BRANCH   4   5
ATOM      5  C   UNL     1      -3.929  -1.597  24.596  0.00  0.00    +0.139 A 
ATOM      6  C   UNL     1      -3.512  -2.075  25.124  0.00  0.00    +0.037 A 
ATOM      7  C   UNL     1      -3.393  -2.873  24.952  0.00  0.00    +0.003 A 
ATOM      8  C   UNL     1      -3.691  -3.194  24.253  0.00  0.00    +0.000 A 
ATOM      9  C   UNL     1      -4.108  -2.716  23.725  0.00  0.00    +0.003 A 
ATOM     10  C   UNL     1      -4.227  -1.917  23.897  0.00  0.00    +0.037 A 
ENDBRANCH   4   5
ENDBRANCH   3   4
ENDBRANCH   2   3
TORSDOF 4
ENDMDL
MODEL 2
REMARK VINA RESULT:     -11.0      1.562      5.968
REMARK  Name = 
REMARK  4 active torsions:
REMARK  status: ('A' for Active; 'I' for Inactive)
REMARK    1  A    between atoms: C_2  and  C_3
REMARK    2  A    between atoms: C_3  and  O_4
REMARK    3  A    between atoms: O_4  and  C_5
REMARK    4  A    between atoms: C_14  and  C_16
REMARK                            x       y       z     vdW  Elec       q    Type
REMARK                         _______ _______ _______ _____ _____    ______ ____
ROOT
ATOM      1  O   UNL     1      -1.066   1.616  25.603  0.00  0.00    -0.271 OA
ATOM      2  C   UNL     1      -1.733   1.927  25.229  0.00  0.00    +0.270 C 
ATOM     11  N   UNL     1      -2.314   1.422  24.934  0.00  0.00    -0.276 N 
ATOM     12  C   UNL     1      -3.007   1.651  24.550  0.00  0.00    +0.094 C 
ATOM     13  C   UNL     1      -3.426   0.969  24.350  0.00  0.00    +0.030 C 
ATOM     14  C   UNL     1      -2.991   0.317  24.611  0.00  0.00    +0.068 C 
ATOM     15  C   UNL     1      -2.305   0.597  24.972  0.00  0.00    +0.100 C 
ENDROOT
BRANCH  14  16
ATOM     16  C   UNL     1      -3.206  -0.475  24.525  0.00  0.00    +0.090 A 
ATOM     17  N   UNL     1      -2.847  -1.117  24.897  0.00  0.00    -0.243 NA
ATOM     18  C   UNL     1      -3.237  -1.802  24.654  0.00  0.00    +0.087 A 
ATOM     19  C   UNL     1      -3.838  -1.583  24.132  0.00  0.00    +0.048 A 
ATOM     20  S   UNL     1      -3.819  -0.762  24.053  0.00  0.00    -0.071 S 
ATOM     21  C   UNL     1      -4.324  -2.160  23.798  0.00  0.00    +0.008 A 
ATOM     22  C   UNL     1      -4.210  -2.954  23.984  0.00  0.00    +0.001 A 
ATOM     23  C   UNL     1      -3.610  -3.174  24.506  0.00  0.00    +0.002 A 
ATOM     24  C   UNL     1      -3.123  -2.598  24.841  0.00  0.00    +0.020 A 
ENDBRANCH  14  16
BRANCH   2   3
ATOM      3  C   UNL     1      -1.818   2.744  25.151  0.00  0.00    +0.290 C 
BRANCH   3   4
ATOM      4  O   UNL     1      -1.253   3.250  25.475  0.00  0.00    -0.466 OA
BRANCH   4   5
ATOM      5  C   UNL     1      -1.262   4.053  25.285  0.00  0.00    +0.139 A 
ATOM      6  C   UNL     1      -0.633   4.386  24.866  0.00  0.00    +0.037 A 
ATOM      7  C   UNL     1      -0.643   5.188  24.677  0.00  0.00    +0.003 A 
ATOM      8  C   UNL     1      -1.280   5.659  24.906  0.00  0.00    +0.000 A 
ATOM      9  C   UNL     1      -1.909   5.327  25.324  0.00  0.00    +0.003 A 
ATOM     10  C   UNL     1      -1.899   4.524  25.514  0.00  0.00    +0.037 A 
ENDBRANCH   4   5
ENDBRANCH   3   4
ENDBRANCH   2   3
TORSDOF 4
ENDMDL
MODEL 3
REMARK VINA RESULT:      -8.7      3.049      4.394
REMARK  Name = 
REMARK  4 active torsions:
REMARK  status: ('A' for Active; 'I' for Inactive)
REMARK    1  A    between atoms: C_2  and  C_3
REMARK    2  A    between atoms: C_3  and  O_4
REMARK    3  A    between atoms: O_4  and  C_5
REMARK    4  A    between atoms: C_14  and  C_16
REMARK                            x       y       z     vdW  Elec       q    Type
REMARK                         _______ _______ _______ _____ _____    ______ ____
ROOT
ATOM      1  O   UNL     1      -0.692   0.163  24.882  0.00  0.00    -0.271 OA
ATOM      2  C   UNL     1      -0.754   0.596  24.182  0.00  0.00    +0.270 C 
ATOM     11  N   UNL     1      -1.429   1.046  24.034  0.00  0.00    -0.276 N 
ATOM     12  C   UNL     1      -1.568   1.505  23.362  0.00  0.00    +0.094 C 
ATOM     13  C   UNL     1      -2.309   1.859  23.445  0.00  0.00    +0.030 C 
ATOM     14  C   UNL     1      -2.627   1.619  24.167  0.00  0.00    +0.068 C 
ATOM     15  C   UNL     1      -2.083   1.117  24.531  0.00  0.00    +0.100 C 
ENDROOT
BRANCH  14  16
ATOM     16  C   UNL     1      -3.361   1.842  24.472  0.00  0.00    +0.090 A 
ATOM     17  N   UNL     1      -4.038   1.373  24.498  0.00  0.00    -0.243 NA
ATOM     18  C   UNL     1      -4.641   1.815  24.846  0.00  0.00    +0.087 A 
ATOM     19  C   UNL     1      -4.336   2.557  25.035  0.00  0.00    +0.048 A 
ATOM     20  S   UNL     1      -3.545   2.575  24.804  0.00  0.00    -0.071 S 
ATOM     21  C   UNL     1      -4.820   3.122  25.394  0.00  0.00    +0.008 A 
ATOM     22  C   UNL     1      -5.607   2.944  25.563  0.00  0.00    +0.001 A 
ATOM     23  C   UNL     1      -5.912   2.201  25.373  0.00  0.00    +0.002 A 
ATOM     24  C   UNL     1      -5.429   1.636  25.015  0.00  0.00    +0.020 A 
ENDBRANCH  14  16
BRANCH   2   3
ATOM      3  C   UNL     1      -0.140   0.578  23.631  0.00  0.00    +0.290 C 
BRANCH   3   4
ATOM      4  O   UNL     1       0.497   0.065  23.739  0.00  0.00    -0.466 OA
BRANCH   4   5
ATOM      5  C   UNL     1       1.124   0.068  23.203  0.00  0.00    +0.139 A 
ATOM      6  C   UNL     1       1.823   0.467  23.388  0.00  0.00    +0.037 A 
ATOM      7  C   UNL     1       2.450   0.470  22.852  0.00  0.00    +0.003 A 
ATOM      8  C   UNL     1       2.379   0.075  22.131  0.00  0.00    +0.000 A 
ATOM      9  C   UNL     1       1.681  -0.324  21.946  0.00  0.00    +0.003 A 
ATOM     10  C   UNL     1       1.053  -0.327  22.483  0.00  0.00    +0.037 A 
ENDBRANCH   4   5
ENDBRANCH   3   4
ENDBRANCH   2   3
TORSDOF 4
ENDMDL
MODEL 4
REMARK VINA RESULT:      -8.5      3.861      5.669
REMARK  Name = 
REMARK  4 active torsions:
REMARK  status: ('A' for Active; 'I' for Inactive)
REMARK    1  A    between atoms: C_2  and  C_3
REMARK    2  A    between atoms: C_3  and  O_4
REMARK    3  A    between atoms: O_4  and  C_5
REMARK    4  A    between atoms: C_14  and  C_16
REMARK                            x       y       z     vdW  Elec       q    Type
REMARK                         _______ _______ _______ _____ _____    ______ ____
ROOT
ATOM      1  O   UNL     1       0.771  -0.425  22.436  0.00  0.00    -0.271 OA
ATOM      2  C   UNL     1       0.965   0.119  23.026  0.00  0.00    +0.270 C 
ATOM     11  N   UNL     1       0.377   0.420  23.520  0.00  0.00    -0.276 N 
ATOM     12  C   UNL     1       0.488   0.964  24.131  0.00  0.00    +0.094 C 
ATOM     13  C   UNL     1      -0.246   1.109  24.479  0.00  0.00    +0.030 C 
ATOM     14  C   UNL     1      -0.810   0.655  24.083  0.00  0.00    +0.068 C 
ATOM     15  C   UNL     1      -0.425   0.229  23.491  0.00  0.00    +0.100 C 
ENDROOT
BRANCH  14  16
ATOM     16  C   UNL     1      -1.618   0.631  24.250  0.00  0.00    +0.090 A 
ATOM     17  N   UNL     1      -2.012   0.029  24.653  0.00  0.00    -0.243 NA
ATOM     18  C   UNL     1      -2.810   0.231  24.696  0.00  0.00    +0.087 A 
ATOM     19  C   UNL     1      -2.910   0.958  24.319  0.00  0.00    +0.048 A 
ATOM     20  S   UNL     1      -2.173   1.206  24.044  0.00  0.00    -0.071 S 
ATOM     21  C   UNL     1      -3.659   1.301  24.276  0.00  0.00    +0.008 A 
ATOM     22  C   UNL     1      -4.308   0.917  24.609  0.00  0.00    +0.001 A 
ATOM     23  C   UNL     1      -4.209   0.190  24.986  0.00  0.00    +0.002 A 
ATOM     24  C   UNL     1      -3.460  -0.153  25.030  0.00  0.00    +0.020 A 
ENDBRANCH  14  16
BRANCH   2   3
ATOM      3  C   UNL     1       1.748   0.362  23.121  0.00  0.00    +0.290 C 
BRANCH   3   4
ATOM      4  O   UNL     1       2.332   0.078  22.613  0.00  0.00    -0.466 OA
BRANCH   4   5
ATOM      5  C   UNL     1       3.128   0.220  22.779  0.00  0.00    +0.139 A 
ATOM      6  C   UNL     1       3.469   0.944  22.578  0.00  0.00    +0.037 A 
ATOM      7  C   UNL     1       4.264   1.086  22.744  0.00  0.00    +0.003 A 
ATOM      8  C   UNL     1       4.720   0.505  23.112  0.00  0.00    +0.000 A 
ATOM      9  C   UNL     1       4.379  -0.219  23.314  0.00  0.00    +0.003 A 
ATOM     10  C   UNL     1       3.583  -0.361  23.147  0.00  0.00    +0.037 A 
ENDBRANCH   4   5
ENDBRANCH   3   4
ENDBRANCH   2   3
TORSDOF 4
ENDMDL
MODEL 5
REMARK VINA RESULT:      -8.2      3.012      4.285
REMARK  Name = 
REMARK  4 active torsions:
REMARK  status: ('A' for Active; 'I' for Inactive)
REMARK    1  A    between atoms: C_2  and  C_3
REMARK    2  A    between atoms: C_3  and  O_4
REMARK    3  A    between atoms: O_4  and  C_5
REMARK    4  A    between atoms: C_14  and  C_16
REMARK                            x       y       z     vdW  Elec       q    Type
REMARK                         _______ _______ _______ _____ _____    ______ ____
ROOT
ATOM      1  O   UNL     1      -2.994   2.078  23.079  0.00  0.00    -0.271 OA
ATOM      2  C   UNL     1      -2.868   1.804  23.847  0.00  0.00    +0.270 C 
ATOM     11  N   UNL     1      -2.144   1.466  24.052  0.00  0.00    -0.276 N 
ATOM     12  C   UNL     1      -1.940   1.170  24.794  0.00  0.00    +0.094 C 
ATOM     13  C   UNL     1      -1.166   0.886  24.751  0.00  0.00    +0.030 C 
ATOM     14  C   UNL     1      -0.892   1.008  23.982  0.00  0.00    +0.068 C 
ATOM     15  C   UNL     1      -1.497   1.366  23.550  0.00  0.00    +0.100 C 
ENDROOT
BRANCH  14  16
ATOM     16  C   UNL     1      -0.145   0.806  23.696  0.00  0.00    +0.090 A 
ATOM     17  N   UNL     1       0.032   0.157  23.219  0.00  0.00    -0.243 NA
ATOM     18  C   UNL     1       0.842   0.168  23.065  0.00  0.00    +0.087 A 
ATOM     19  C   UNL     1       1.166   0.824  23.447  0.00  0.00    +0.048 A 
ATOM     20  S   UNL     1       0.556   1.218  23.837  0.00  0.00    -0.071 S 
ATOM     21  C   UNL     1       1.975   0.976  23.390  0.00  0.00    +0.008 A 
ATOM     22  C   UNL     1       2.460   0.474  22.951  0.00  0.00    +0.001 A 
ATOM     23  C   UNL     1       2.136  -0.181  22.569  0.00  0.00    +0.002 A 
ATOM     24  C   UNL     1       1.328  -0.335  22.625  0.00  0.00    +0.020 A 
ENDBRANCH  14  16
BRANCH   2   3
ATOM      3  C   UNL     1      -3.468   1.868  24.410  0.00  0.00    +0.290 C 
BRANCH   3   4
ATOM      4  O   UNL     1      -4.186   2.221  24.210  0.00  0.00    -0.466 OA
BRANCH   4   5
ATOM      5  C   UNL     1      -4.779   2.301  24.779  0.00  0.00    +0.139 A 
ATOM      6  C   UNL     1      -5.291   1.672  24.932  0.00  0.00    +0.037 A 
ATOM      7  C   UNL     1      -5.883   1.751  25.501  0.00  0.00    +0.003 A 
ATOM      8  C   UNL     1      -5.965   2.459  25.916  0.00  0.00    +0.000 A 
ATOM      9  C   UNL     1      -5.453   3.088  25.763  0.00  0.00    +0.003 A 
ATOM     10  C   UNL     1      -4.860   3.009  25.194  0.00  0.00    +0.037 A 
ENDBRANCH   4   5
ENDBRANCH   3   4
ENDBRANCH   2   3
TORSDOF 4
ENDMDL
MODEL 6
REMARK VINA RESULT:      -7.1      3.607      4.353
REMARK  Name = 
REMARK  4 active torsions:
REMARK  status: ('A' for Active; 'I' for Inactive)
REMARK    1  A    between atoms: C_2  and  C_3
REMARK    2  A    between atoms: C_3  and  O_4
REMARK    3  A    between atoms: O_4  and  C_5
REMARK    4  A    between atoms: C_14  and  C_16
REMARK                            x       y       z     vdW  Elec       q    Type
REMARK                         _______ _______ _______ _____ _____    ______ ____
ROOT
ATOM      1  O   UNL     1      -0.612  -1.441  24.723  0.00  0.00    -0.271 OA
ATOM      2  C   UNL     1      -0.882  -0.710  24.452  0.00  0.00    +0.270 C 
ATOM     11  N   UNL     1      -0.371  -0.204  24.049  0.00  0.00    -0.276 N 
ATOM     12  C   UNL     1      -0.562   0.540  23.748  0.00  0.00    +0.094 C 
ATOM     13  C   UNL     1       0.114   0.851  23.390  0.00  0.00    +0.030 C 
ATOM     14  C   UNL     1       0.722   0.299  23.470  0.00  0.00    +0.068 C 
ATOM     15  C   UNL     1       0.423  -0.352  23.878  0.00  0.00    +0.100 C 
ENDROOT
BRANCH  14  16
ATOM     16  C   UNL     1       1.494   0.385  23.192  0.00  0.00    +0.090 A 
ATOM     17  N   UNL     1       2.064   0.900  23.492  0.00  0.00    -0.243 NA
ATOM     18  C   UNL     1       2.753   0.803  23.050  0.00  0.00    +0.087 A 
ATOM     19  C   UNL     1       2.610   0.228  22.477  0.00  0.00    +0.048 A 
ATOM     20  S   UNL     1       1.832  -0.031  22.564  0.00  0.00    -0.071 S 
ATOM     21  C   UNL     1       3.207   0.015  21.949  0.00  0.00    +0.008 A 
ATOM     22  C   UNL     1       3.947   0.376  21.994  0.00  0.00    +0.001 A 
ATOM     23  C   UNL     1       4.090   0.951  22.568  0.00  0.00    +0.002 A 
ATOM     24  C   UNL     1       3.494   1.165  23.096  0.00  0.00    +0.020 A 
ENDBRANCH  14  16
BRANCH   2   3
ATOM      3  C   UNL     1      -1.665  -0.486  24.584  0.00  0.00    +0.290 C 
BRANCH   3   4
ATOM      4  O   UNL     1      -2.208  -1.035  24.874  0.00  0.00    -0.466 OA
BRANCH   4   5
ATOM      5  C   UNL     1      -3.018  -0.887  24.811  0.00  0.00    +0.139 A 
ATOM      6  C   UNL     1      -3.378  -0.341  25.314  0.00  0.00    +0.037 A 
ATOM      7  C   UNL     1      -4.187  -0.193  25.251  0.00  0.00    +0.003 A 
ATOM      8  C   UNL     1      -4.637  -0.591  24.686  0.00  0.00    +0.000 A 
ATOM      9  C   UNL     1      -4.276  -1.137  24.182  0.00  0.00    +0.003 A 
ATOM     10  C   UNL     1      -3.467  -1.285  24.246  0.00  0.00    +0.037 A 
ENDBRANCH   4   5
ENDBRANCH   3   4
ENDBRANCH   2   3
TORSDOF 4
ENDMDL
