MODEL 1
REMARK VINA RESULT:      -9.3      0.000      0.000
REMARK  Name = 
REMARK  6 active torsions:
REMARK  status: ('A' for Active; 'I' for Inactive)
REMARK    1  A    between atoms: C_2  and  C_3
REMARK    2  A    between atoms: C_6  and  C_7
REMARK    3  A    between atoms: C_7  and  N_8
REMARK    4  A    between atoms: C_12  and  C_13
REMARK    5  A    between atoms: C_15  and  C_18
REMARK    6  A    between atoms: C_21  and  N_24
REMARK                            x       y       z     vdW  Elec       q    Type
REMARK                         _______ _______ _______ _____ _____    ______ ____
ROOT
ATOM     13  C   UNL     1      -2.310  -0.096  24.873  0.00  0.00    +0.251 A 
ATOM     14  N   UNL     1      -1.784  -0.064  24.237  0.00  0.00    -0.190 NA
ATOM     15  C   UNL     1      -1.018  -0.035  24.541  0.00  0.00    +0.205 A 
ATOM     16  N   UNL     1      -1.070  -0.049  25.363  0.00  0.00    -0.056 NA
ATOM     17  O   UNL     1      -1.867  -0.086  25.569  0.00  0.00    -0.336 OA
ENDROOT
BRANCH  15  18
ATOM     18  C   UNL     1      -0.322   0.001  24.098  0.00  0.00    +0.058 A 
ATOM     19  C   UNL     1      -0.009   0.733  23.883  0.00  0.00    +0.008 A 
ATOM     20  C   UNL     1       0.687   0.769  23.441  0.00  0.00    +0.038 A 
ATOM     21  C   UNL     1       1.069   0.074  23.214  0.00  0.00    +0.149 A 
ATOM     22  N   UNL     1       0.755  -0.658  23.430  0.00  0.00    -0.226 NA
ATOM     23  C   UNL     1       0.059  -0.694  23.872  0.00  0.00    +0.104 A 
BRANCH  21  24
ATOM     24  N   UNL     1       1.765   0.110  22.772  0.00  0.00    -0.271 N 
ATOM     25  C   UNL     1       2.474   0.456  23.012  0.00  0.00    +0.104 A 
ATOM     26  C   UNL     1       3.021   0.367  22.401  0.00  0.00    +0.120 A 
ATOM     27  N   UNL     1       2.649  -0.034  21.783  0.00  0.00    -0.222 NA
ATOM     28  C   UNL     1       1.872  -0.193  22.013  0.00  0.00    +0.184 A 
ENDBRANCH  21  24
ENDBRANCH  15  18
BRANCH  13  12
ATOM      8  N   UNL     1      -3.638   0.510  24.710  0.00  0.00    -0.263 NA
ATOM      9  C   UNL     1      -4.412   0.225  24.691  0.00  0.00    +0.073 C 
ATOM     10  C   UNL     1      -4.384  -0.593  24.792  0.00  0.00    +0.019 C 
ATOM     11  C   UNL     1      -3.593  -0.813  24.872  0.00  0.00    +0.027 C 
ATOM     12  C   UNL     1      -3.132  -0.131  24.821  0.00  0.00    +0.138 C 
BRANCH   8   7
ATOM      7  C   UNL     1      -3.411   1.299  24.630  0.00  0.00    +0.099 C 
BRANCH   7   6
ATOM      3  C   UNL     1      -4.974   3.109  25.270  0.00  0.00    +0.068 A 
ATOM      4  C   UNL     1      -4.328   2.932  25.752  0.00  0.00    +0.010 A 
ATOM      5  C   UNL     1      -3.807   2.329  25.539  0.00  0.00    -0.002 A 
ATOM      6  C   UNL     1      -3.932   1.903  24.843  0.00  0.00    -0.006 A 
ATOM     29  C   UNL     1      -4.578   2.080  24.361  0.00  0.00    -0.002 A 
ATOM     30  C   UNL     1      -5.098   2.683  24.575  0.00  0.00    +0.010 A 
BRANCH   3   2
ATOM      1  N   UNL     1      -6.016   4.315  25.696  0.00  0.00    -0.191 NA
ATOM      2  C   UNL     1      -5.494   3.712  25.483  0.00  0.00    +0.100 C 
ENDBRANCH   3   2
ENDBRANCH   7   6
ENDBRANCH   8   7
ENDBRANCH  13  12
TORSDOF 6
ENDMDL
MODEL 2
REMARK VINA RESULT:      -9.3      3.250      4.430
REMARK  Name = 
REMARK  6 active torsions:
REMARK  status: ('A' for Active; 'I' for Inactive)
REMARK    1  A    between atoms: C_2  and  C_3
REMARK    2  A    between atoms: C_6  and  C_7
REMARK    3  A    between atoms: C_7  and  N_8
REMARK    4  A    between atoms: C_12  and  C_13
REMARK    5  A    between atoms: C_15  and  C_18
REMARK    6  A    between atoms: C_21  and  N_24
REMARK                            x       y       z     vdW  Elec       q    Type
REMARK                         _______ _______ _______ _____ _____    ______ ____
ROOT
ATOM     13  C   UNL     1      -5.058   1.961  25.434  0.00  0.00    +0.251 A 
ATOM     14  N   UNL     1      -4.509   1.438  25.107  0.00  0.00    -0.190 NA
ATOM     15  C   UNL     1      -4.728   0.673  25.322  0.00  0.00    +0.205 A 
ATOM     16  N   UNL     1      -5.411   0.722  25.781  0.00  0.00    -0.056 NA
ATOM     17  O   UNL     1      -5.614   1.517  25.850  0.00  0.00    -0.336 OA
ENDROOT
BRANCH  15  18
ATOM     18  C   UNL     1      -4.332  -0.021  25.113  0.00  0.00    +0.058 A 
ATOM     19  C   UNL     1      -4.343  -0.282  24.331  0.00  0.00    +0.008 A 
ATOM     20  C   UNL     1      -3.947  -0.976  24.123  0.00  0.00    +0.038 A 
ATOM     21  C   UNL     1      -3.541  -1.407  24.696  0.00  0.00    +0.149 A 
ATOM     22  N   UNL     1      -3.530  -1.146  25.479  0.00  0.00    -0.226 NA
ATOM     23  C   UNL     1      -3.926  -0.452  25.687  0.00  0.00    +0.104 A 
BRANCH  21  24
ATOM     24  N   UNL     1      -3.145  -2.101  24.488  0.00  0.00    -0.271 N 
ATOM     25  C   UNL     1      -2.327  -2.192  24.422  0.00  0.00    +0.104 A 
ATOM     26  C   UNL     1      -2.174  -2.972  24.202  0.00  0.00    +0.120 A 
ATOM     27  N   UNL     1      -2.898  -3.364  24.132  0.00  0.00    -0.222 NA
ATOM     28  C   UNL     1      -3.497  -2.825  24.309  0.00  0.00    +0.184 A 
ENDBRANCH  21  24
ENDBRANCH  15  18
BRANCH  13  12
ATOM      8  N   UNL     1      -4.394   3.272  25.454  0.00  0.00    -0.263 NA
ATOM      9  C   UNL     1      -4.635   4.051  25.327  0.00  0.00    +0.073 C 
ATOM     10  C   UNL     1      -5.442   4.042  25.153  0.00  0.00    +0.019 C 
ATOM     11  C   UNL     1      -5.698   3.258  25.171  0.00  0.00    +0.027 C 
ATOM     12  C   UNL     1      -5.050   2.782  25.358  0.00  0.00    +0.138 C 
BRANCH   8   7
ATOM      7  C   UNL     1      -3.630   3.026  25.643  0.00  0.00    +0.099 C 
BRANCH   7   6
ATOM      3  C   UNL     1      -1.697   4.487  25.133  0.00  0.00    +0.068 A 
ATOM      4  C   UNL     1      -1.938   3.915  24.588  0.00  0.00    +0.010 A 
ATOM      5  C   UNL     1      -2.582   3.428  24.758  0.00  0.00    -0.002 A 
ATOM      6  C   UNL     1      -2.985   3.513  25.473  0.00  0.00    -0.006 A 
ATOM     29  C   UNL     1      -2.745   4.084  26.017  0.00  0.00    -0.002 A 
ATOM     30  C   UNL     1      -2.100   4.571  25.847  0.00  0.00    +0.010 A 
BRANCH   3   2
ATOM      1  N   UNL     1      -0.409   5.460  24.792  0.00  0.00    -0.191 NA
ATOM      2  C   UNL     1      -1.054   4.973  24.963  0.00  0.00    +0.100 C 
ENDBRANCH   3   2
ENDBRANCH   7   6
ENDBRANCH   8   7
ENDBRANCH  13  12
TORSDOF 6
ENDMDL
MODEL 3
REMARK VINA RESULT:      -8.5      1.018      6.055
REMARK  Name = 
REMARK  6 active torsions:
REMARK  status: ('A' for Active; 'I' for Inactive)
REMARK    1  A    between atoms: C_2  and  C_3
REMARK    2  A    between atoms: C_6  and  C_7
REMARK    3  A    between atoms: C_7  and  N_8
REMARK    4  A    between atoms: C_12  and  C_13
REMARK    5  A    between atoms: C_15  and  C_18
REMARK    6  A    between atoms: C_21  and  N_24
REMARK                            x       y       z     vdW  Elec       q    Type
REMARK                         _______ _______ _______ _____ _____    ______ ____
ROOT
ATOM     13  C   UNL     1      -2.168  -0.428  24.538  0.00  0.00    +0.251 A 
ATOM     14  N   UNL     1      -2.468   0.242  24.915  0.00  0.00    -0.190 NA
ATOM     15  C   UNL     1      -3.191   0.428  24.565  0.00  0.00    +0.205 A 
ATOM     16  N   UNL     1      -3.338  -0.126  23.973  0.00  0.00    -0.056 NA
ATOM     17  O   UNL     1      -2.706  -0.655  23.957  0.00  0.00    -0.336 OA
ENDROOT
BRANCH  15  18
ATOM     18  C   UNL     1      -3.682   1.059  24.772  0.00  0.00    +0.058 A 
ATOM     19  C   UNL     1      -4.439   0.913  25.065  0.00  0.00    +0.008 A 
ATOM     20  C   UNL     1      -4.929   1.544  25.272  0.00  0.00    +0.038 A 
ATOM     21  C   UNL     1      -4.662   2.320  25.185  0.00  0.00    +0.149 A 
ATOM     22  N   UNL     1      -3.905   2.466  24.892  0.00  0.00    -0.226 NA
ATOM     23  C   UNL     1      -3.414   1.835  24.685  0.00  0.00    +0.104 A 
BRANCH  21  24
ATOM     24  N   UNL     1      -5.152   2.951  25.392  0.00  0.00    -0.271 N 
ATOM     25  C   UNL     1      -4.947   3.750  25.378  0.00  0.00    +0.104 A 
ATOM     26  C   UNL     1      -5.601   4.186  25.626  0.00  0.00    +0.120 A 
ATOM     27  N   UNL     1      -6.212   3.657  25.794  0.00  0.00    -0.222 NA
ATOM     28  C   UNL     1      -5.934   2.893  25.649  0.00  0.00    +0.184 A 
ENDBRANCH  21  24
ENDBRANCH  15  18
BRANCH  13  12
ATOM      8  N   UNL     1      -0.721  -0.630  24.383  0.00  0.00    -0.263 NA
ATOM      9  C   UNL     1      -0.162  -1.138  24.714  0.00  0.00    +0.073 C 
ATOM     10  C   UNL     1      -0.553  -1.628  25.252  0.00  0.00    +0.019 C 
ATOM     11  C   UNL     1      -1.352  -1.422  25.251  0.00  0.00    +0.027 C 
ATOM     12  C   UNL     1      -1.455  -0.804  24.714  0.00  0.00    +0.138 C 
BRANCH   8   7
ATOM      7  C   UNL     1      -0.570  -0.048  23.818  0.00  0.00    +0.099 C 
BRANCH   7   6
ATOM      3  C   UNL     1       1.738   0.318  23.001  0.00  0.00    +0.068 A 
ATOM      4  C   UNL     1       1.419   0.820  23.573  0.00  0.00    +0.010 A 
ATOM      5  C   UNL     1       0.649   0.698  23.845  0.00  0.00    -0.002 A 
ATOM      6  C   UNL     1       0.200   0.074  23.545  0.00  0.00    -0.006 A 
ATOM     29  C   UNL     1       0.520  -0.428  22.974  0.00  0.00    -0.002 A 
ATOM     30  C   UNL     1       1.289  -0.306  22.703  0.00  0.00    +0.010 A 
BRANCH   3   2
ATOM      1  N   UNL     1       3.277   0.562  22.458  0.00  0.00    -0.191 NA
ATOM      2  C   UNL     1       2.507   0.440  22.730  0.00  0.00    +0.100 C 
ENDBRANCH   3   2
ENDBRANCH   7   6
ENDBRANCH   8   7
ENDBRANCH  13  12
TORSDOF 6
ENDMDL
MODEL 4
REMARK VINA RESULT:      -8.5      2.246      3.509
REMARK  Name = 
REMARK  6 active torsions:
REMARK  status: ('A' for Active; 'I' for Inactive)
REMARK    1  A    between atoms: C_2  and  C_3
REMARK    2  A    between atoms: C_6  and  C_7
REMARK    3  A    between atoms: C_7  and  N_8
REMARK    4  A    between atoms: C_12  and  C_13
REMARK    5  A    between atoms: C_15  and  C_18
REMARK    6  A    between atoms: C_21  and  N_24
REMARK                            x       y       z     vdW  Elec       q    Type
REMARK                         _______ _______ _______ _____ _____    ______ ____
ROOT
ATOM     13  C   UNL     1      -0.559   3.022  25.198  0.00  0.00    +0.251 A 
ATOM     14  N   UNL     1      -0.956   2.320  25.020  0.00  0.00    -0.190 NA
ATOM     15  C   UNL     1      -0.441   1.692  25.164  0.00  0.00    +0.205 A 
ATOM     16  N   UNL     1       0.274   2.005  25.430  0.00  0.00    -0.056 NA
ATOM     17  O   UNL     1       0.201   2.826  25.451  0.00  0.00    -0.336 OA
ENDROOT
BRANCH  15  18
ATOM     18  C   UNL     1      -0.612   0.892  25.060  0.00  0.00    +0.058 A 
ATOM     19  C   UNL     1      -0.998   0.472  25.656  0.00  0.00    +0.008 A 
ATOM     20  C   UNL     1      -1.169  -0.329  25.551  0.00  0.00    +0.038 A 
ATOM     21  C   UNL     1      -0.953  -0.709  24.852  0.00  0.00    +0.149 A 
ATOM     22  N   UNL     1      -0.566  -0.289  24.256  0.00  0.00    -0.226 NA
ATOM     23  C   UNL     1      -0.396   0.512  24.360  0.00  0.00    +0.104 A 
BRANCH  21  24
ATOM     24  N   UNL     1      -1.123  -1.510  24.748  0.00  0.00    -0.271 N 
ATOM     25  C   UNL     1      -1.773  -1.819  24.344  0.00  0.00    +0.104 A 
ATOM     26  C   UNL     1      -1.725  -2.642  24.376  0.00  0.00    +0.120 A 
ATOM     27  N   UNL     1      -1.045  -2.842  24.799  0.00  0.00    -0.222 NA
ATOM     28  C   UNL     1      -0.673  -2.142  25.029  0.00  0.00    +0.184 A 
ENDBRANCH  21  24
ENDBRANCH  15  18
BRANCH  13  12
ATOM      8  N   UNL     1      -1.582   4.045  25.450  0.00  0.00    -0.263 NA
ATOM      9  C   UNL     1      -1.674   4.841  25.254  0.00  0.00    +0.073 C 
ATOM     10  C   UNL     1      -1.015   5.071  24.814  0.00  0.00    +0.019 C 
ATOM     11  C   UNL     1      -0.517   4.418  24.739  0.00  0.00    +0.027 C 
ATOM     12  C   UNL     1      -0.868   3.783  25.133  0.00  0.00    +0.138 C 
BRANCH   8   7
ATOM      7  C   UNL     1      -2.113   3.590  25.889  0.00  0.00    +0.099 C 
BRANCH   7   6
ATOM      3  C   UNL     1      -4.549   3.984  25.679  0.00  0.00    +0.068 A 
ATOM      4  C   UNL     1      -4.137   4.282  26.329  0.00  0.00    +0.010 A 
ATOM      5  C   UNL     1      -3.326   4.151  26.399  0.00  0.00    -0.002 A 
ATOM      6  C   UNL     1      -2.926   3.722  25.819  0.00  0.00    -0.006 A 
ATOM     29  C   UNL     1      -3.337   3.424  25.169  0.00  0.00    -0.002 A 
ATOM     30  C   UNL     1      -4.149   3.556  25.099  0.00  0.00    +0.010 A 
BRANCH   3   2
ATOM      1  N   UNL     1      -6.172   4.247  25.539  0.00  0.00    -0.191 NA
ATOM      2  C   UNL     1      -5.359   4.116  25.609  0.00  0.00    +0.100 C 
ENDBRANCH   3   2
ENDBRANCH   7   6
ENDBRANCH   8   7
ENDBRANCH  13  12
TORSDOF 6
ENDMDL
MODEL 5
REMARK VINA RESULT:      -8.3      1.600      2.296
REMARK  Name = 
REMARK  6 active torsions:
REMARK  status: ('A' for Active; 'I' for Inactive)
REMARK    1  A    between atoms: C_2  and  C_3
REMARK    2  A    between atoms: C_6  and  C_7
REMARK    3  A    between atoms: C_7  and  N_8
REMARK    4  A    between atoms: C_12  and  C_13
REMARK    5  A    between atoms: C_15  and  C_18
REMARK    6  A    between atoms: C_21  and  N_24
REMARK                            x       y       z     vdW  Elec       q    Type
REMARK                         _______ _______ _______ _____ _____    ______ ____
ROOT
ATOM     13  C   UNL     1      -1.305   2.660  25.446  0.00  0.00    +0.251 A 
ATOM     14  N   UNL     1      -0.919   2.436  24.752  0.00  0.00    -0.190 NA
ATOM     15  C   UNL     1      -0.356   1.865  24.947  0.00  0.00    +0.205 A 
ATOM     16  N   UNL     1      -0.395   1.736  25.760  0.00  0.00    -0.056 NA
ATOM     17  O   UNL     1      -0.981   2.227  26.068  0.00  0.00    -0.336 OA
ENDROOT
BRANCH  15  18
ATOM     18  C   UNL     1       0.156   1.489  24.420  0.00  0.00    +0.058 A 
ATOM     19  C   UNL     1      -0.052   0.761  24.093  0.00  0.00    +0.008 A 
ATOM     20  C   UNL     1       0.460   0.384  23.566  0.00  0.00    +0.038 A 
ATOM     21  C   UNL     1       1.178   0.737  23.366  0.00  0.00    +0.149 A 
ATOM     22  N   UNL     1       1.386   1.465  23.693  0.00  0.00    -0.226 NA
ATOM     23  C   UNL     1       0.874   1.841  24.220  0.00  0.00    +0.104 A 
BRANCH  21  24
ATOM     24  N   UNL     1       1.690   0.361  22.839  0.00  0.00    -0.271 N 
ATOM     25  C   UNL     1       2.514   0.411  22.843  0.00  0.00    +0.104 A 
ATOM     26  C   UNL     1       2.800  -0.050  22.222  0.00  0.00    +0.120 A 
ATOM     27  N   UNL     1       2.154  -0.386  21.834  0.00  0.00    -0.222 NA
ATOM     28  C   UNL     1       1.467  -0.132  22.215  0.00  0.00    +0.184 A 
ENDBRANCH  21  24
ENDBRANCH  15  18
BRANCH  13  12
ATOM      8  N   UNL     1      -2.677   3.134  25.219  0.00  0.00    -0.263 NA
ATOM      9  C   UNL     1      -3.094   3.823  25.398  0.00  0.00    +0.073 C 
ATOM     10  C   UNL     1      -2.583   4.333  25.797  0.00  0.00    +0.019 C 
ATOM     11  C   UNL     1      -1.851   3.960  25.864  0.00  0.00    +0.027 C 
ATOM     12  C   UNL     1      -1.909   3.218  25.506  0.00  0.00    +0.138 C 
BRANCH   8   7
ATOM      7  C   UNL     1      -2.976   2.476  24.821  0.00  0.00    +0.099 C 
BRANCH   7   6
ATOM      3  C   UNL     1      -5.408   2.014  24.848  0.00  0.00    +0.068 A 
ATOM      4  C   UNL     1      -4.909   1.631  25.382  0.00  0.00    +0.010 A 
ATOM      5  C   UNL     1      -4.099   1.784  25.374  0.00  0.00    -0.002 A 
ATOM      6  C   UNL     1      -3.787   2.322  24.830  0.00  0.00    -0.006 A 
ATOM     29  C   UNL     1      -4.286   2.705  24.296  0.00  0.00    -0.002 A 
ATOM     30  C   UNL     1      -5.096   2.550  24.305  0.00  0.00    +0.010 A 
BRANCH   3   2
ATOM      1  N   UNL     1      -7.029   1.705  24.866  0.00  0.00    -0.191 NA
ATOM      2  C   UNL     1      -6.218   1.859  24.857  0.00  0.00    +0.100 C 
ENDBRANCH   3   2
ENDBRANCH   7   6
ENDBRANCH   8   7
ENDBRANCH  13  12
TORSDOF 6
ENDMDL
MODEL 6
REMARK VINA RESULT:      -8.1      2.639      4.629
REMARK  Name = 
REMARK  6 active torsions:
REMARK  status: ('A' for Active; 'I' for Inactive)
REMARK    1  A    between atoms: C_2  and  C_3
REMARK    2  A    between atoms: C_6  and  C_7
REMARK    3  A    between atoms: C_7  and  N_8
REMARK    4  A    between atoms: C_12  and  C_13
REMARK    5  A    between atoms: C_15  and  C_18
REMARK    6  A    between atoms: C_21  and  N_24
REMARK                            x       y       z     vdW  Elec       q    Type
REMARK                         _______ _______ _______ _____ _____    ______ ____
ROOT
ATOM     13  C   UNL     1      -0.907  -0.085  25.353  0.00  0.00    +0.251 A 
ATOM     14  N   UNL     1      -0.980   0.654  24.991  0.00  0.00    -0.190 NA
ATOM     15  C   UNL     1      -1.006   1.226  25.584  0.00  0.00    +0.205 A 
ATOM     16  N   UNL     1      -0.949   0.842  26.312  0.00  0.00    -0.056 NA
ATOM     17  O   UNL     1      -0.888   0.033  26.169  0.00  0.00    -0.336 OA
ENDROOT
BRANCH  15  18
ATOM     18  C   UNL     1      -1.076   2.041  25.470  0.00  0.00    +0.058 A 
ATOM     19  C   UNL     1      -0.499   2.550  25.767  0.00  0.00    +0.008 A 
ATOM     20  C   UNL     1      -0.569   3.364  25.652  0.00  0.00    +0.038 A 
ATOM     21  C   UNL     1      -1.217   3.668  25.240  0.00  0.00    +0.149 A 
ATOM     22  N   UNL     1      -1.794   3.159  24.943  0.00  0.00    -0.226 NA
ATOM     23  C   UNL     1      -1.723   2.345  25.058  0.00  0.00    +0.104 A 
BRANCH  21  24
ATOM     24  N   UNL     1      -1.287   4.483  25.126  0.00  0.00    -0.271 N 
ATOM     25  C   UNL     1      -0.752   4.964  24.721  0.00  0.00    +0.104 A 
ATOM     26  C   UNL     1      -1.039   5.737  24.740  0.00  0.00    +0.120 A 
ATOM     27  N   UNL     1      -1.751   5.734  25.158  0.00  0.00    -0.222 NA
ATOM     28  C   UNL     1      -1.904   4.959  25.396  0.00  0.00    +0.184 A 
ENDBRANCH  21  24
ENDBRANCH  15  18
BRANCH  13  12
ATOM      8  N   UNL     1      -1.473  -1.357  24.885  0.00  0.00    -0.263 NA
ATOM      9  C   UNL     1      -1.187  -2.003  24.461  0.00  0.00    +0.073 C 
ATOM     10  C   UNL     1      -0.395  -1.857  24.278  0.00  0.00    +0.019 C 
ATOM     11  C   UNL     1      -0.194  -1.120  24.590  0.00  0.00    +0.027 C 
ATOM     12  C   UNL     1      -0.861  -0.811  24.965  0.00  0.00    +0.138 C 
BRANCH   8   7
ATOM      7  C   UNL     1      -2.240  -1.272  25.178  0.00  0.00    +0.099 C 
BRANCH   7   6
ATOM      3  C   UNL     1      -4.138  -2.353  24.013  0.00  0.00    +0.068 A 
ATOM      4  C   UNL     1      -3.982  -1.552  23.892  0.00  0.00    +0.010 A 
ATOM      5  C   UNL     1      -3.350  -1.191  24.280  0.00  0.00    -0.002 A 
ATOM      6  C   UNL     1      -2.873  -1.632  24.790  0.00  0.00    -0.006 A 
ATOM     29  C   UNL     1      -3.029  -2.433  24.911  0.00  0.00    -0.002 A 
ATOM     30  C   UNL     1      -3.662  -2.793  24.522  0.00  0.00    +0.010 A 
BRANCH   3   2
ATOM      1  N   UNL     1      -5.403  -3.074  23.237  0.00  0.00    -0.191 NA
ATOM      2  C   UNL     1      -4.770  -2.713  23.625  0.00  0.00    +0.100 C 
ENDBRANCH   3   2
ENDBRANCH   7   6
ENDBRANCH   8   7
ENDBRANCH  13  12
TORSDOF 6
ENDMDL
MODEL 7
REMARK VINA RESULT:      -7.6      1.401      2.927
REMARK  Name = 
REMARK  6 active torsions:
REMARK  status: ('A' for Active; 'I' for Inactive)
REMARK    1  A    between atoms: C_2  and  C_3
REMARK    2  A    between atoms: C_6  and  C_7
REMARK    3  A    between atoms: C_7  and  N_8
REMARK    4  A    between atoms: C_12  and  C_13
REMARK    5  A    between atoms: C_15  and  C_18
REMARK    6  A    between atoms: C_21  and  N_24
REMARK                            x       y       z     vdW  Elec       q    Type
REMARK                         _______ _______ _______ _____ _____    ______ ____
ROOT
ATOM     13  C   UNL     1      -2.025   1.658  24.801  0.00  0.00    +0.251 A 
ATOM     14  N   UNL     1      -1.485   1.366  24.249  0.00  0.00    -0.190 NA
ATOM     15  C   UNL     1      -0.725   1.498  24.541  0.00  0.00    +0.205 A 
ATOM     16  N   UNL     1      -0.795   1.872  25.273  0.00  0.00    -0.056 NA
ATOM     17  O   UNL     1      -1.597   1.970  25.433  0.00  0.00    -0.336 OA
ENDROOT
BRANCH  15  18
ATOM     18  C   UNL     1      -0.019   1.293  24.166  0.00  0.00    +0.058 A 
ATOM     19  C   UNL     1       0.036   0.582  23.751  0.00  0.00    +0.008 A 
ATOM     20  C   UNL     1       0.742   0.377  23.376  0.00  0.00    +0.038 A 
ATOM     21  C   UNL     1       1.393   0.882  23.418  0.00  0.00    +0.149 A 
ATOM     22  N   UNL     1       1.338   1.593  23.833  0.00  0.00    -0.226 NA
ATOM     23  C   UNL     1       0.632   1.798  24.208  0.00  0.00    +0.104 A 
BRANCH  21  24
ATOM     24  N   UNL     1       2.099   0.677  23.043  0.00  0.00    -0.271 N 
ATOM     25  C   UNL     1       2.209   0.038  22.533  0.00  0.00    +0.104 A 
ATOM     26  C   UNL     1       2.997   0.040  22.287  0.00  0.00    +0.120 A 
ATOM     27  N   UNL     1       3.374   0.681  22.646  0.00  0.00    -0.222 NA
ATOM     28  C   UNL     1       2.818   1.075  23.113  0.00  0.00    +0.184 A 
ENDBRANCH  21  24
ENDBRANCH  15  18
BRANCH  13  12
ATOM      8  N   UNL     1      -3.335   1.006  24.927  0.00  0.00    -0.263 NA
ATOM      9  C   UNL     1      -4.115   1.226  24.771  0.00  0.00    +0.073 C 
ATOM     10  C   UNL     1      -4.107   1.997  24.479  0.00  0.00    +0.019 C 
ATOM     11  C   UNL     1      -3.323   2.253  24.454  0.00  0.00    +0.027 C 
ATOM     12  C   UNL     1      -2.846   1.640  24.732  0.00  0.00    +0.138 C 
BRANCH   8   7
ATOM      7  C   UNL     1      -3.088   0.278  25.227  0.00  0.00    +0.099 C 
BRANCH   7   6
ATOM      3  C   UNL     1      -3.989  -1.823  24.276  0.00  0.00    +0.068 A 
ATOM      4  C   UNL     1      -3.771  -1.790  25.071  0.00  0.00    +0.010 A 
ATOM      5  C   UNL     1      -3.471  -1.091  25.388  0.00  0.00    -0.002 A 
ATOM      6  C   UNL     1      -3.389  -0.423  24.909  0.00  0.00    -0.006 A 
ATOM     29  C   UNL     1      -3.607  -0.455  24.115  0.00  0.00    -0.002 A 
ATOM     30  C   UNL     1      -3.907  -1.156  23.798  0.00  0.00    +0.010 A 
BRANCH   3   2
ATOM      1  N   UNL     1      -4.590  -3.223  23.642  0.00  0.00    -0.191 NA
ATOM      2  C   UNL     1      -4.290  -2.522  23.959  0.00  0.00    +0.100 C 
ENDBRANCH   3   2
ENDBRANCH   7   6
ENDBRANCH   8   7
ENDBRANCH  13  12
TORSDOF 6
ENDMDL
MODEL 8
REMARK VINA RESULT:      -7.4      1.664      5.691
REMARK  Name = 
REMARK  6 active torsions:
REMARK  status: ('A' for Active; 'I' for Inactive)
REMARK    1  A    between atoms: C_2  and  C_3
REMARK    2  A    between atoms: C_6  and  C_7
REMARK    3  A    between atoms: C_7  and  N_8
REMARK    4  A    between atoms: C_12  and  C_13
REMARK    5  A    between atoms: C_15  and  C_18
REMARK    6  A    between atoms: C_21  and  N_24
REMARK                            x       y       z     vdW  Elec       q    Type
REMARK                         _______ _______ _______ _____ _____    ______ ____
ROOT
ATOM     13  C   UNL     1      -0.883   1.367  24.675  0.00  0.00    +0.251 A 
ATOM     14  N   UNL     1      -1.682   1.561  24.610  0.00  0.00    -0.190 NA
ATOM     15  C   UNL     1      -1.818   2.237  25.063  0.00  0.00    +0.205 A 
ATOM     16  N   UNL     1      -1.103   2.460  25.408  0.00  0.00    -0.056 NA
ATOM     17  O   UNL     1      -0.526   1.923  25.168  0.00  0.00    -0.336 OA
ENDROOT
BRANCH  15  18
ATOM     18  C   UNL     1      -2.542   2.622  25.155  0.00  0.00    +0.058 A 
ATOM     19  C   UNL     1      -3.162   2.463  24.634  0.00  0.00    +0.008 A 
ATOM     20  C   UNL     1      -3.886   2.848  24.726  0.00  0.00    +0.038 A 
ATOM     21  C   UNL     1      -3.990   3.391  25.338  0.00  0.00    +0.149 A 
ATOM     22  N   UNL     1      -3.370   3.550  25.859  0.00  0.00    -0.226 NA
ATOM     23  C   UNL     1      -2.646   3.165  25.767  0.00  0.00    +0.104 A 
BRANCH  21  24
ATOM     24  N   UNL     1      -4.714   3.776  25.430  0.00  0.00    -0.271 N 
ATOM     25  C   UNL     1      -4.869   4.567  25.252  0.00  0.00    +0.104 A 
ATOM     26  C   UNL     1      -5.661   4.718  25.428  0.00  0.00    +0.120 A 
ATOM     27  N   UNL     1      -5.996   4.020  25.715  0.00  0.00    -0.222 NA
ATOM     28  C   UNL     1      -5.410   3.438  25.716  0.00  0.00    +0.184 A 
ENDBRANCH  21  24
ENDBRANCH  15  18
BRANCH  13  12
ATOM      8  N   UNL     1      -0.606  -0.066  24.505  0.00  0.00    -0.263 NA
ATOM      9  C   UNL     1      -0.128  -0.513  24.003  0.00  0.00    +0.073 C 
ATOM     10  C   UNL     1       0.266   0.007  23.498  0.00  0.00    +0.019 C 
ATOM     11  C   UNL     1       0.032   0.774  23.688  0.00  0.00    +0.027 C 
ATOM     12  C   UNL     1      -0.508   0.729  24.311  0.00  0.00    +0.138 C 
BRANCH   8   7
ATOM      7  C   UNL     1      -1.097  -0.363  25.097  0.00  0.00    +0.099 C 
BRANCH   7   6
ATOM      3  C   UNL     1      -2.561  -2.306  24.635  0.00  0.00    +0.068 A 
ATOM      4  C   UNL     1      -2.885  -1.549  24.693  0.00  0.00    +0.010 A 
ATOM      5  C   UNL     1      -2.398  -0.902  24.847  0.00  0.00    -0.002 A 
ATOM      6  C   UNL     1      -1.585  -1.011  24.943  0.00  0.00    -0.006 A 
ATOM     29  C   UNL     1      -1.261  -1.767  24.885  0.00  0.00    -0.002 A 
ATOM     30  C   UNL     1      -1.749  -2.414  24.731  0.00  0.00    +0.010 A 
BRANCH   3   2
ATOM      1  N   UNL     1      -3.537  -3.600  24.327  0.00  0.00    -0.191 NA
ATOM      2  C   UNL     1      -3.048  -2.952  24.481  0.00  0.00    +0.100 C 
ENDBRANCH   3   2
ENDBRANCH   7   6
ENDBRANCH   8   7
ENDBRANCH  13  12
TORSDOF 6
ENDMDL
MODEL 9
REMARK VINA RESULT:      -6.5     15.973     17.740
REMARK  Name = 
REMARK  6 active torsions:
REMARK  status: ('A' for Active; 'I' for Inactive)
REMARK    1  A    between atoms: C_2  and  C_3
REMARK    2  A    between atoms: C_6  and  C_7
REMARK    3  A    between atoms: C_7  and  N_8
REMARK    4  A    between atoms: C_12  and  C_13
REMARK    5  A    between atoms: C_15  and  C_18
REMARK    6  A    between atoms: C_21  and  N_24
REMARK                            x       y       z     vdW  Elec       q    Type
REMARK                         _______ _______ _______ _____ _____    ______ ____
ROOT
ATOM     13  C   UNL     1      -3.285  -9.888  10.590  0.00  0.00    +0.251 A 
ATOM     14  N   UNL     1      -3.924  -9.370  10.525  0.00  0.00    -0.190 NA
ATOM     15  C   UNL     1      -4.514  -9.747  10.090  0.00  0.00    +0.205 A 
ATOM     16  N   UNL     1      -4.241 -10.498   9.887  0.00  0.00    -0.056 NA
ATOM     17  O   UNL     1      -3.482 -10.585  10.196  0.00  0.00    -0.336 OA
ENDROOT
BRANCH  15  18
ATOM     18  C   UNL     1      -5.250  -9.429   9.893  0.00  0.00    +0.058 A 
ATOM     19  C   UNL     1      -5.336  -8.987   9.202  0.00  0.00    +0.008 A 
ATOM     20  C   UNL     1      -6.071  -8.668   9.005  0.00  0.00    +0.038 A 
ATOM     21  C   UNL     1      -6.720  -8.792   9.499  0.00  0.00    +0.149 A 
ATOM     22  N   UNL     1      -6.634  -9.234  10.190  0.00  0.00    -0.226 NA
ATOM     23  C   UNL     1      -5.899  -9.552  10.387  0.00  0.00    +0.104 A 
BRANCH  21  24
ATOM     24  N   UNL     1      -7.456  -8.473   9.302  0.00  0.00    -0.271 N 
ATOM     25  C   UNL     1      -8.190  -8.811   9.468  0.00  0.00    +0.104 A 
ATOM     26  C   UNL     1      -8.774  -8.308   9.173  0.00  0.00    +0.120 A 
ATOM     27  N   UNL     1      -8.400  -7.659   8.825  0.00  0.00    -0.222 NA
ATOM     28  C   UNL     1      -7.585  -7.762   8.905  0.00  0.00    +0.184 A 
ENDBRANCH  21  24
ENDBRANCH  15  18
BRANCH  13  12
ATOM      8  N   UNL     1      -2.338 -10.061  11.700  0.00  0.00    -0.263 NA
ATOM      9  C   UNL     1      -1.594  -9.758  11.886  0.00  0.00    +0.073 C 
ATOM     10  C   UNL     1      -1.370  -9.244  11.281  0.00  0.00    +0.019 C 
ATOM     11  C   UNL     1      -1.977  -9.230  10.721  0.00  0.00    +0.027 C 
ATOM     12  C   UNL     1      -2.575  -9.736  10.981  0.00  0.00    +0.138 C 
BRANCH   8   7
ATOM      7  C   UNL     1      -2.770 -10.597  12.155  0.00  0.00    +0.099 C 
BRANCH   7   6
ATOM      3  C   UNL     1      -2.537 -10.599  14.620  0.00  0.00    +0.068 A 
ATOM      4  C   UNL     1      -3.264 -10.415  14.275  0.00  0.00    +0.010 A 
ATOM      5  C   UNL     1      -3.342 -10.415  13.454  0.00  0.00    -0.002 A 
ATOM      6  C   UNL     1      -2.693 -10.598  12.977  0.00  0.00    -0.006 A 
ATOM     29  C   UNL     1      -1.966 -10.781  13.323  0.00  0.00    -0.002 A 
ATOM     30  C   UNL     1      -1.889 -10.781  14.145  0.00  0.00    +0.010 A 
BRANCH   3   2
ATOM      1  N   UNL     1      -2.382 -10.599  16.263  0.00  0.00    -0.191 NA
ATOM      2  C   UNL     1      -2.460 -10.599  15.441  0.00  0.00    +0.100 C 
ENDBRANCH   3   2
ENDBRANCH   7   6
ENDBRANCH   8   7
ENDBRANCH  13  12
TORSDOF 6
ENDMDL
MODEL 10
REMARK VINA RESULT:      -6.3     14.378     15.446
REMARK  Name = 
REMARK  6 active torsions:
REMARK  status: ('A' for Active; 'I' for Inactive)
REMARK    1  A    between atoms: C_2  and  C_3
REMARK    2  A    between atoms: C_6  and  C_7
REMARK    3  A    between atoms: C_7  and  N_8
REMARK    4  A    between atoms: C_12  and  C_13
REMARK    5  A    between atoms: C_15  and  C_18
REMARK    6  A    between atoms: C_21  and  N_24
REMARK                            x       y       z     vdW  Elec       q    Type
REMARK                         _______ _______ _______ _____ _____    ______ ____
ROOT
ATOM     13  C   UNL     1      -6.174 -10.116  14.860  0.00  0.00    +0.251 A 
ATOM     14  N   UNL     1      -5.836  -9.656  14.263  0.00  0.00    -0.190 NA
ATOM     15  C   UNL     1      -5.965 -10.037  13.544  0.00  0.00    +0.205 A 
ATOM     16  N   UNL     1      -6.381 -10.733  13.694  0.00  0.00    -0.056 NA
ATOM     17  O   UNL     1      -6.511 -10.781  14.507  0.00  0.00    -0.336 OA
ENDROOT
BRANCH  15  18
ATOM     18  C   UNL     1      -5.719  -9.770  12.802  0.00  0.00    +0.058 A 
ATOM     19  C   UNL     1      -6.186  -9.236  12.382  0.00  0.00    +0.008 A 
ATOM     20  C   UNL     1      -5.941  -8.968  11.640  0.00  0.00    +0.038 A 
ATOM     21  C   UNL     1      -5.229  -9.235  11.321  0.00  0.00    +0.149 A 
ATOM     22  N   UNL     1      -4.762  -9.770  11.741  0.00  0.00    -0.226 NA
ATOM     23  C   UNL     1      -5.007 -10.037  12.483  0.00  0.00    +0.104 A 
BRANCH  21  24
ATOM     24  N   UNL     1      -4.983  -8.968  10.579  0.00  0.00    -0.271 N 
ATOM     25  C   UNL     1      -4.610  -9.421   9.999  0.00  0.00    +0.104 A 
ATOM     26  C   UNL     1      -4.464  -8.934   9.350  0.00  0.00    +0.120 A 
ATOM     27  N   UNL     1      -4.747  -8.179   9.528  0.00  0.00    -0.222 NA
ATOM     28  C   UNL     1      -5.068  -8.201  10.289  0.00  0.00    +0.184 A 
ENDBRANCH  21  24
ENDBRANCH  15  18
BRANCH  13  12
ATOM      8  N   UNL     1      -6.835  -9.748  16.119  0.00  0.00    -0.263 NA
ATOM      9  C   UNL     1      -6.584  -9.616  16.894  0.00  0.00    +0.073 C 
ATOM     10  C   UNL     1      -5.766  -9.726  16.918  0.00  0.00    +0.019 C 
ATOM     11  C   UNL     1      -5.513  -9.927  16.159  0.00  0.00    +0.027 C 
ATOM     12  C   UNL     1      -6.174  -9.941  15.665  0.00  0.00    +0.138 C 
BRANCH   8   7
ATOM      7  C   UNL     1      -7.612  -9.697  15.846  0.00  0.00    +0.099 C 
BRANCH   7   6
ATOM      3  C   UNL     1      -9.476  -9.456  17.457  0.00  0.00    +0.068 A 
ATOM      4  C   UNL     1      -9.209 -10.207  17.245  0.00  0.00    +0.010 A 
ATOM      5  C   UNL     1      -8.588 -10.288  16.709  0.00  0.00    -0.002 A 
ATOM      6  C   UNL     1      -8.234  -9.616  16.384  0.00  0.00    -0.006 A 
ATOM     29  C   UNL     1      -8.501  -8.865  16.596  0.00  0.00    -0.002 A 
ATOM     30  C   UNL     1      -9.122  -8.785  17.133  0.00  0.00    +0.010 A 
BRANCH   3   2
ATOM      1  N   UNL     1     -10.718  -9.295  18.532  0.00  0.00    -0.191 NA
ATOM      2  C   UNL     1     -10.097  -9.375  17.994  0.00  0.00    +0.100 C 
ENDBRANCH   3   2
ENDBRANCH   7   6
ENDBRANCH   8   7
ENDBRANCH  13  12
TORSDOF 6
ENDMDL
