MODEL 1
REMARK VINA RESULT:     -10.3      0.000      0.000
REMARK  Name = 
REMARK  5 active torsions:
REMARK  status: ('A' for Active; 'I' for Inactive)
REMARK    1  A    between atoms: C_5  and  N_8
REMARK    2  A    between atoms: N_8  and  C_9
REMARK    3  A    between atoms: C_12  and  C_13
REMARK    4  A    between atoms: C_13  and  N_14
REMARK    5  A    between atoms: C_15  and  C_17
REMARK                            x       y       z     vdW  Elec       q    Type
REMARK                         _______ _______ _______ _____ _____    ______ ____
ROOT
ATOM      9  C   UNL     1      -4.135   0.776  24.552  0.00  0.00    +0.135 C 
ATOM     10  C   UNL     1      -3.461   0.838  24.079  0.00  0.00    +0.162 C 
ATOM     11  O   UNL     1      -3.150   1.596  24.178  0.00  0.00    -0.350 OA
ATOM     12  C   UNL     1      -3.631   2.002  24.712  0.00  0.00    +0.169 C 
ATOM     22  C   UNL     1      -4.239   1.494  24.943  0.00  0.00    +0.199 C 
ATOM     23  O   UNL     1      -4.846   1.674  25.473  0.00  0.00    -0.219 OA
ENDROOT
BRANCH   9   8
ATOM      8  N   UNL     1      -4.618   0.111  24.621  0.00  0.00    -0.216 NA
BRANCH   8   5
ATOM      1  C   UNL     1      -3.280  -2.906  24.622  0.00  0.00    +0.090 C 
ATOM      2  N   UNL     1      -3.614  -2.152  24.622  0.00  0.00    -0.271 NA
ATOM      3  C   UNL     1      -3.593  -1.691  25.306  0.00  0.00    +0.074 C 
ATOM      4  C   UNL     1      -3.928  -0.937  25.306  0.00  0.00    +0.035 C 
ATOM      5  C   UNL     1      -4.283  -0.644  24.622  0.00  0.00    +0.076 C 
ATOM      6  C   UNL     1      -4.304  -1.104  23.938  0.00  0.00    +0.035 C 
ATOM      7  C   UNL     1      -3.970  -1.859  23.937  0.00  0.00    +0.074 C 
ENDBRANCH   8   5
ENDBRANCH   9   8
BRANCH  12  13
ATOM     13  C   UNL     1      -3.523   2.777  24.970  0.00  0.00    +0.147 C 
BRANCH  13  14
ATOM     14  N   UNL     1      -2.792   3.148  24.869  0.00  0.00    -0.203 NA
ATOM     15  C   UNL     1      -2.636   3.863  25.251  0.00  0.00    +0.241 C 
ATOM     16  O   UNL     1      -3.210   4.206  25.734  0.00  0.00    -0.273 OA
BRANCH  15  17
ATOM     17  C   UNL     1      -1.906   4.233  25.150  0.00  0.00    +0.078 C 
ATOM     18  C   UNL     1      -1.780   5.046  25.085  0.00  0.00    +0.009 C 
ATOM     19  C   UNL     1      -0.970   5.172  24.991  0.00  0.00    +0.001 C 
ATOM     20  C   UNL     1      -0.595   4.436  24.999  0.00  0.00    +0.001 C 
ATOM     21  C   UNL     1      -1.174   3.857  25.097  0.00  0.00    +0.009 C 
ENDBRANCH  15  17
ENDBRANCH  13  14
ENDBRANCH  12  13
TORSDOF 5
ENDMDL
MODEL 2
REMARK VINA RESULT:      -9.6      1.912      5.638
REMARK  Name = 
REMARK  5 active torsions:
REMARK  status: ('A' for Active; 'I' for Inactive)
REMARK    1  A    between atoms: C_5  and  N_8
REMARK    2  A    between atoms: N_8  and  C_9
REMARK    3  A    between atoms: C_12  and  C_13
REMARK    4  A    between atoms: C_13  and  N_14
REMARK    5  A    between atoms: C_15  and  C_17
REMARK                            x       y       z     vdW  Elec       q    Type
REMARK                         _______ _______ _______ _____ _____    ______ ____
ROOT
ATOM      9  C   UNL     1      -0.863   1.594  25.135  0.00  0.00    +0.135 C 
ATOM     10  C   UNL     1      -1.188   1.615  24.377  0.00  0.00    +0.162 C 
ATOM     11  O   UNL     1      -1.462   0.858  24.196  0.00  0.00    -0.350 OA
ATOM     12  C   UNL     1      -1.308   0.370  24.842  0.00  0.00    +0.169 C 
ATOM     22  C   UNL     1      -0.937   0.825  25.423  0.00  0.00    +0.199 C 
ATOM     23  O   UNL     1      -0.685   0.557  26.162  0.00  0.00    -0.219 OA
ENDROOT
BRANCH   9   8
ATOM      8  N   UNL     1      -0.524   2.231  25.535  0.00  0.00    -0.216 NA
BRANCH   8   5
ATOM      1  C   UNL     1      -1.773   5.263  25.164  0.00  0.00    +0.090 C 
ATOM      2  N   UNL     1      -1.461   4.505  25.257  0.00  0.00    -0.271 NA
ATOM      3  C   UNL     1      -1.836   3.963  25.754  0.00  0.00    +0.074 C 
ATOM      4  C   UNL     1      -1.523   3.205  25.847  0.00  0.00    +0.035 C 
ATOM      5  C   UNL     1      -0.837   2.989  25.443  0.00  0.00    +0.076 C 
ATOM      6  C   UNL     1      -0.463   3.532  24.946  0.00  0.00    +0.035 C 
ATOM      7  C   UNL     1      -0.775   4.290  24.853  0.00  0.00    +0.074 C 
ENDBRANCH   8   5
ENDBRANCH   9   8
BRANCH  12  13
ATOM     13  C   UNL     1      -1.491  -0.432  24.899  0.00  0.00    +0.147 C 
BRANCH  13  14
ATOM     14  N   UNL     1      -2.218  -0.710  24.626  0.00  0.00    -0.203 NA
ATOM     15  C   UNL     1      -2.399  -1.514  24.677  0.00  0.00    +0.241 C 
ATOM     16  O   UNL     1      -1.851  -2.039  25.000  0.00  0.00    -0.273 OA
BRANCH  15  17
ATOM     17  C   UNL     1      -3.126  -1.791  24.404  0.00  0.00    +0.078 C 
ATOM     18  C   UNL     1      -3.335  -2.583  24.303  0.00  0.00    +0.009 C 
ATOM     19  C   UNL     1      -4.110  -2.607  24.021  0.00  0.00    +0.001 C 
ATOM     20  C   UNL     1      -4.380  -1.831  23.948  0.00  0.00    +0.001 C 
ATOM     21  C   UNL     1      -3.771  -1.327  24.185  0.00  0.00    +0.009 C 
ENDBRANCH  15  17
ENDBRANCH  13  14
ENDBRANCH  12  13
TORSDOF 5
ENDMDL
MODEL 3
REMARK VINA RESULT:      -9.4      0.928      5.309
REMARK  Name = 
REMARK  5 active torsions:
REMARK  status: ('A' for Active; 'I' for Inactive)
REMARK    1  A    between atoms: C_5  and  N_8
REMARK    2  A    between atoms: N_8  and  C_9
REMARK    3  A    between atoms: C_12  and  C_13
REMARK    4  A    between atoms: C_13  and  N_14
REMARK    5  A    between atoms: C_15  and  C_17
REMARK                            x       y       z     vdW  Elec       q    Type
REMARK                         _______ _______ _______ _____ _____    ______ ____
ROOT
ATOM      9  C   UNL     1      -3.504   2.331  25.008  0.00  0.00    +0.135 C 
ATOM     10  C   UNL     1      -2.825   1.999  24.676  0.00  0.00    +0.162 C 
ATOM     11  O   UNL     1      -3.009   1.231  24.436  0.00  0.00    -0.350 OA
ATOM     12  C   UNL     1      -3.800   1.089  24.619  0.00  0.00    +0.169 C 
ATOM     22  C   UNL     1      -4.106   1.769  24.972  0.00  0.00    +0.199 C 
ATOM     23  O   UNL     1      -4.880   1.869  25.243  0.00  0.00    -0.219 OA
ENDROOT
BRANCH   9   8
ATOM      8  N   UNL     1      -3.569   3.092  25.320  0.00  0.00    -0.216 NA
BRANCH   8   5
ATOM      1  C   UNL     1      -1.041   5.198  25.065  0.00  0.00    +0.090 C 
ATOM      2  N   UNL     1      -1.672   4.671  25.129  0.00  0.00    -0.271 NA
ATOM      3  C   UNL     1      -1.719   4.159  25.774  0.00  0.00    +0.074 C 
ATOM      4  C   UNL     1      -2.351   3.633  25.837  0.00  0.00    +0.035 C 
ATOM      5  C   UNL     1      -2.936   3.618  25.257  0.00  0.00    +0.076 C 
ATOM      6  C   UNL     1      -2.890   4.131  24.612  0.00  0.00    +0.035 C 
ATOM      7  C   UNL     1      -2.258   4.657  24.547  0.00  0.00    +0.074 C 
ENDBRANCH   8   5
ENDBRANCH   9   8
BRANCH  12  13
ATOM     13  C   UNL     1      -4.214   0.390  24.474  0.00  0.00    +0.147 C 
BRANCH  13  14
ATOM     14  N   UNL     1      -3.854  -0.340  24.614  0.00  0.00    -0.203 NA
ATOM     15  C   UNL     1      -4.230  -1.036  24.384  0.00  0.00    +0.241 C 
ATOM     16  O   UNL     1      -4.967  -1.004  24.014  0.00  0.00    -0.273 OA
BRANCH  15  17
ATOM     17  C   UNL     1      -3.871  -1.765  24.523  0.00  0.00    +0.078 C 
ATOM     18  C   UNL     1      -3.502  -1.998  25.224  0.00  0.00    +0.009 C 
ATOM     19  C   UNL     1      -3.220  -2.766  25.121  0.00  0.00    +0.001 C 
ATOM     20  C   UNL     1      -3.414  -3.009  24.356  0.00  0.00    +0.001 C 
ATOM     21  C   UNL     1      -3.816  -2.390  23.988  0.00  0.00    +0.009 C 
ENDBRANCH  15  17
ENDBRANCH  13  14
ENDBRANCH  12  13
TORSDOF 5
ENDMDL
MODEL 4
REMARK VINA RESULT:      -9.4      1.787      2.199
REMARK  Name = 
REMARK  5 active torsions:
REMARK  status: ('A' for Active; 'I' for Inactive)
REMARK    1  A    between atoms: C_5  and  N_8
REMARK    2  A    between atoms: N_8  and  C_9
REMARK    3  A    between atoms: C_12  and  C_13
REMARK    4  A    between atoms: C_13  and  N_14
REMARK    5  A    between atoms: C_15  and  C_17
REMARK                            x       y       z     vdW  Elec       q    Type
REMARK                         _______ _______ _______ _____ _____    ______ ____
ROOT
ATOM      9  C   UNL     1      -1.616  -0.281  25.232  0.00  0.00    +0.135 C 
ATOM     10  C   UNL     1      -1.892   0.075  24.540  0.00  0.00    +0.162 C 
ATOM     11  O   UNL     1      -1.603   0.848  24.518  0.00  0.00    -0.350 OA
ATOM     12  C   UNL     1      -1.149   0.969  25.196  0.00  0.00    +0.169 C 
ATOM     22  C   UNL     1      -1.157   0.271  25.637  0.00  0.00    +0.199 C 
ATOM     23  O   UNL     1      -0.773   0.148  26.358  0.00  0.00    -0.219 OA
ENDROOT
BRANCH   9   8
ATOM      8  N   UNL     1      -1.773  -1.054  25.475  0.00  0.00    -0.216 NA
BRANCH   8   5
ATOM      1  C   UNL     1      -4.160  -2.793  24.004  0.00  0.00    +0.090 C 
ATOM      2  N   UNL     1      -3.564  -2.358  24.372  0.00  0.00    -0.271 NA
ATOM      3  C   UNL     1      -3.756  -1.799  24.948  0.00  0.00    +0.074 C 
ATOM      4  C   UNL     1      -3.158  -1.365  25.316  0.00  0.00    +0.035 C 
ATOM      5  C   UNL     1      -2.370  -1.488  25.108  0.00  0.00    +0.076 C 
ATOM      6  C   UNL     1      -2.178  -2.047  24.532  0.00  0.00    +0.035 C 
ATOM      7  C   UNL     1      -2.775  -2.482  24.164  0.00  0.00    +0.074 C 
ENDBRANCH   8   5
ENDBRANCH   9   8
BRANCH  12  13
ATOM     13  C   UNL     1      -0.755   1.665  25.398  0.00  0.00    +0.147 C 
BRANCH  13  14
ATOM     14  N   UNL     1      -1.119   2.396  25.276  0.00  0.00    -0.203 NA
ATOM     15  C   UNL     1      -0.723   3.092  25.471  0.00  0.00    +0.241 C 
ATOM     16  O   UNL     1       0.038   3.058  25.789  0.00  0.00    -0.273 OA
BRANCH  15  17
ATOM     17  C   UNL     1      -1.087   3.822  25.349  0.00  0.00    +0.078 C 
ATOM     18  C   UNL     1      -1.840   4.038  25.607  0.00  0.00    +0.009 C 
ATOM     19  C   UNL     1      -1.980   4.814  25.365  0.00  0.00    +0.001 C 
ATOM     20  C   UNL     1      -1.313   5.078  24.956  0.00  0.00    +0.001 C 
ATOM     21  C   UNL     1      -0.762   4.465  24.947  0.00  0.00    +0.009 C 
ENDBRANCH  15  17
ENDBRANCH  13  14
ENDBRANCH  12  13
TORSDOF 5
ENDMDL
MODEL 5
REMARK VINA RESULT:      -7.9     16.065     18.629
REMARK  Name = 
REMARK  5 active torsions:
REMARK  status: ('A' for Active; 'I' for Inactive)
REMARK    1  A    between atoms: C_5  and  N_8
REMARK    2  A    between atoms: N_8  and  C_9
REMARK    3  A    between atoms: C_12  and  C_13
REMARK    4  A    between atoms: C_13  and  N_14
REMARK    5  A    between atoms: C_15  and  C_17
REMARK                            x       y       z     vdW  Elec       q    Type
REMARK                         _______ _______ _______ _____ _____    ______ ____
ROOT
ATOM      9  C   UNL     1      12.163   7.366  19.893  0.00  0.00    +0.135 C 
ATOM     10  C   UNL     1      12.446   6.756  20.373  0.00  0.00    +0.162 C 
ATOM     11  O   UNL     1      13.201   6.554  20.109  0.00  0.00    -0.350 OA
ATOM     12  C   UNL     1      13.385   7.038  19.467  0.00  0.00    +0.169 C 
ATOM     22  C   UNL     1      12.744   7.540  19.334  0.00  0.00    +0.199 C 
ATOM     23  O   UNL     1      12.692   8.115  18.744  0.00  0.00    -0.219 OA
ENDROOT
BRANCH   9   8
ATOM      8  N   UNL     1      11.429   7.736  19.962  0.00  0.00    -0.216 NA
BRANCH   8   5
ATOM      1  C   UNL     1      10.422   8.866  22.895  0.00  0.00    +0.090 C 
ATOM      2  N   UNL     1      10.674   8.584  22.162  0.00  0.00    -0.271 NA
ATOM      3  C   UNL     1      11.043   9.094  21.628  0.00  0.00    +0.074 C 
ATOM      4  C   UNL     1      11.294   8.811  20.895  0.00  0.00    +0.035 C 
ATOM      5  C   UNL     1      11.178   8.019  20.695  0.00  0.00    +0.076 C 
ATOM      6  C   UNL     1      10.809   7.510  21.229  0.00  0.00    +0.035 C 
ATOM      7  C   UNL     1      10.557   7.791  21.962  0.00  0.00    +0.074 C 
ENDBRANCH   8   5
ENDBRANCH   9   8
BRANCH  12  13
ATOM     13  C   UNL     1      14.087   7.023  19.034  0.00  0.00    +0.147 C 
BRANCH  13  14
ATOM     14  N   UNL     1      14.807   6.895  19.418  0.00  0.00    -0.203 NA
ATOM     15  C   UNL     1      15.498   6.799  18.978  0.00  0.00    +0.241 C 
ATOM     16  O   UNL     1      15.469   6.831  18.153  0.00  0.00    -0.273 OA
BRANCH  15  17
ATOM     17  C   UNL     1      16.216   6.672  19.361  0.00  0.00    +0.078 C 
ATOM     18  C   UNL     1      16.764   6.082  19.180  0.00  0.00    +0.009 C 
ATOM     19  C   UNL     1      17.401   6.157  19.700  0.00  0.00    +0.001 C 
ATOM     20  C   UNL     1      17.246   6.793  20.203  0.00  0.00    +0.001 C 
ATOM     21  C   UNL     1      16.514   7.111  19.993  0.00  0.00    +0.009 C 
ENDBRANCH  15  17
ENDBRANCH  13  14
ENDBRANCH  12  13
TORSDOF 5
ENDMDL
MODEL 6
REMARK VINA RESULT:      -7.2     17.812     19.110
REMARK  Name = 
REMARK  5 active torsions:
REMARK  status: ('A' for Active; 'I' for Inactive)
REMARK    1  A    between atoms: C_5  and  N_8
REMARK    2  A    between atoms: N_8  and  C_9
REMARK    3  A    between atoms: C_12  and  C_13
REMARK    4  A    between atoms: C_13  and  N_14
REMARK    5  A    between atoms: C_15  and  C_17
REMARK                            x       y       z     vdW  Elec       q    Type
REMARK                         _______ _______ _______ _____ _____    ______ ____
ROOT
ATOM      9  C   UNL     1      13.802   7.140  19.695  0.00  0.00    +0.135 C 
ATOM     10  C   UNL     1      14.146   7.802  19.340  0.00  0.00    +0.162 C 
ATOM     11  O   UNL     1      13.555   8.208  18.932  0.00  0.00    -0.350 OA
ATOM     12  C   UNL     1      12.846   7.797  19.034  0.00  0.00    +0.169 C 
ATOM     22  C   UNL     1      13.000   7.138  19.506  0.00  0.00    +0.199 C 
ATOM     23  O   UNL     1      12.447   6.574  19.747  0.00  0.00    -0.219 OA
ENDROOT
BRANCH   9   8
ATOM      8  N   UNL     1      14.194   6.580  20.158  0.00  0.00    -0.216 NA
BRANCH   8   5
ATOM      1  C   UNL     1      17.405   6.946  20.823  0.00  0.00    +0.090 C 
ATOM      2  N   UNL     1      16.603   6.855  20.656  0.00  0.00    -0.271 NA
ATOM      3  C   UNL     1      16.366   6.464  19.969  0.00  0.00    +0.074 C 
ATOM      4  C   UNL     1      15.562   6.373  19.803  0.00  0.00    +0.035 C 
ATOM      5  C   UNL     1      14.997   6.672  20.324  0.00  0.00    +0.076 C 
ATOM      6  C   UNL     1      15.234   7.062  21.011  0.00  0.00    +0.035 C 
ATOM      7  C   UNL     1      16.037   7.154  21.177  0.00  0.00    +0.074 C 
ENDBRANCH   8   5
ENDBRANCH   9   8
BRANCH  12  13
ATOM     13  C   UNL     1      12.113   8.009  18.721  0.00  0.00    +0.147 C 
BRANCH  13  14
ATOM     14  N   UNL     1      12.055   8.252  17.934  0.00  0.00    -0.203 NA
ATOM     15  C   UNL     1      11.317   8.426  17.609  0.00  0.00    +0.241 C 
ATOM     16  O   UNL     1      10.637   8.356  18.071  0.00  0.00    -0.273 OA
BRANCH  15  17
ATOM     17  C   UNL     1      11.259   8.669  16.824  0.00  0.00    +0.078 C 
ATOM     18  C   UNL     1      11.887   8.893  16.338  0.00  0.00    +0.009 C 
ATOM     19  C   UNL     1      11.580   9.094  15.599  0.00  0.00    +0.001 C 
ATOM     20  C   UNL     1      10.761   8.993  15.628  0.00  0.00    +0.001 C 
ATOM     21  C   UNL     1      10.564   8.731  16.385  0.00  0.00    +0.009 C 
ENDBRANCH  15  17
ENDBRANCH  13  14
ENDBRANCH  12  13
TORSDOF 5
ENDMDL
MODEL 7
REMARK VINA RESULT:      -6.8     17.644     19.189
REMARK  Name = 
REMARK  5 active torsions:
REMARK  status: ('A' for Active; 'I' for Inactive)
REMARK    1  A    between atoms: C_5  and  N_8
REMARK    2  A    between atoms: N_8  and  C_9
REMARK    3  A    between atoms: C_12  and  C_13
REMARK    4  A    between atoms: C_13  and  N_14
REMARK    5  A    between atoms: C_15  and  C_17
REMARK                            x       y       z     vdW  Elec       q    Type
REMARK                         _______ _______ _______ _____ _____    ______ ____
ROOT
ATOM      9  C   UNL     1      12.397   7.965  19.149  0.00  0.00    +0.135 C 
ATOM     10  C   UNL     1      12.452   7.195  18.856  0.00  0.00    +0.162 C 
ATOM     11  O   UNL     1      13.071   6.816  19.249  0.00  0.00    -0.350 OA
ATOM     12  C   UNL     1      13.398   7.351  19.785  0.00  0.00    +0.169 C 
ATOM     22  C   UNL     1      12.981   8.061  19.723  0.00  0.00    +0.199 C 
ATOM     23  O   UNL     1      13.125   8.747  20.160  0.00  0.00    -0.219 OA
ENDROOT
BRANCH   9   8
ATOM      8  N   UNL     1      11.854   8.538  18.910  0.00  0.00    -0.216 NA
BRANCH   8   5
ATOM      1  C   UNL     1      11.175   8.926  15.704  0.00  0.00    +0.090 C 
ATOM      2  N   UNL     1      11.344   8.829  16.505  0.00  0.00    -0.271 NA
ATOM      3  C   UNL     1      10.794   8.467  17.002  0.00  0.00    +0.074 C 
ATOM      4  C   UNL     1      10.964   8.370  17.804  0.00  0.00    +0.035 C 
ATOM      5  C   UNL     1      11.683   8.634  18.108  0.00  0.00    +0.076 C 
ATOM      6  C   UNL     1      12.234   8.996  17.611  0.00  0.00    +0.035 C 
ATOM      7  C   UNL     1      12.064   9.093  16.810  0.00  0.00    +0.074 C 
ENDBRANCH   8   5
ENDBRANCH   9   8
BRANCH  12  13
ATOM     13  C   UNL     1      14.029   7.202  20.294  0.00  0.00    +0.147 C 
BRANCH  13  14
ATOM     14  N   UNL     1      14.747   6.927  19.993  0.00  0.00    -0.203 NA
ATOM     15  C   UNL     1      15.373   6.763  20.503  0.00  0.00    +0.241 C 
ATOM     16  O   UNL     1      15.283   6.874  21.316  0.00  0.00    -0.273 OA
BRANCH  15  17
ATOM     17  C   UNL     1      16.090   6.487  20.202  0.00  0.00    +0.078 C 
ATOM     18  C   UNL     1      16.288   6.424  19.404  0.00  0.00    +0.009 C 
ATOM     19  C   UNL     1      17.055   6.124  19.354  0.00  0.00    +0.001 C 
ATOM     20  C   UNL     1      17.331   6.001  20.123  0.00  0.00    +0.001 C 
ATOM     21  C   UNL     1      16.734   6.226  20.646  0.00  0.00    +0.009 C 
ENDBRANCH  15  17
ENDBRANCH  13  14
ENDBRANCH  12  13
TORSDOF 5
ENDMDL
MODEL 8
REMARK VINA RESULT:      -6.7     16.138     18.812
REMARK  Name = 
REMARK  5 active torsions:
REMARK  status: ('A' for Active; 'I' for Inactive)
REMARK    1  A    between atoms: C_5  and  N_8
REMARK    2  A    between atoms: N_8  and  C_9
REMARK    3  A    between atoms: C_12  and  C_13
REMARK    4  A    between atoms: C_13  and  N_14
REMARK    5  A    between atoms: C_15  and  C_17
REMARK                            x       y       z     vdW  Elec       q    Type
REMARK                         _______ _______ _______ _____ _____    ______ ____
ROOT
ATOM      9  C   UNL     1      14.328   7.695  19.238  0.00  0.00    +0.135 C 
ATOM     10  C   UNL     1      14.412   8.480  19.479  0.00  0.00    +0.162 C 
ATOM     11  O   UNL     1      13.660   8.775  19.651  0.00  0.00    -0.350 OA
ATOM     12  C   UNL     1      13.113   8.172  19.516  0.00  0.00    +0.169 C 
ATOM     22  C   UNL     1      13.526   7.505  19.261  0.00  0.00    +0.199 C 
ATOM     23  O   UNL     1      13.195   6.775  19.063  0.00  0.00    -0.219 OA
ENDROOT
BRANCH   9   8
ATOM      8  N   UNL     1      14.940   7.189  19.013  0.00  0.00    -0.216 NA
BRANCH   8   5
ATOM      1  C   UNL     1      17.404   6.550  21.113  0.00  0.00    +0.090 C 
ATOM      2  N   UNL     1      16.788   6.709  20.589  0.00  0.00    -0.271 NA
ATOM      3  C   UNL     1      16.127   6.217  20.567  0.00  0.00    +0.074 C 
ATOM      4  C   UNL     1      15.511   6.377  20.041  0.00  0.00    +0.035 C 
ATOM      5  C   UNL     1      15.556   7.029  19.538  0.00  0.00    +0.076 C 
ATOM      6  C   UNL     1      16.218   7.521  19.560  0.00  0.00    +0.035 C 
ATOM      7  C   UNL     1      16.834   7.362  20.085  0.00  0.00    +0.074 C 
ENDBRANCH   8   5
ENDBRANCH   9   8
BRANCH  12  13
ATOM     13  C   UNL     1      12.297   8.227  19.619  0.00  0.00    +0.147 C 
BRANCH  13  14
ATOM     14  N   UNL     1      11.976   8.255  20.379  0.00  0.00    -0.203 NA
ATOM     15  C   UNL     1      11.164   8.356  20.482  0.00  0.00    +0.241 C 
ATOM     16  O   UNL     1      10.672   8.428  19.824  0.00  0.00    -0.273 OA
BRANCH  15  17
ATOM     17  C   UNL     1      10.845   8.384  21.241  0.00  0.00    +0.078 C 
ATOM     18  C   UNL     1      10.717   9.065  21.689  0.00  0.00    +0.009 C 
ATOM     19  C   UNL     1      10.390   8.838  22.412  0.00  0.00    +0.001 C 
ATOM     20  C   UNL     1      10.315   8.016  22.411  0.00  0.00    +0.001 C 
ATOM     21  C   UNL     1      10.596   7.736  21.687  0.00  0.00    +0.009 C 
ENDBRANCH  15  17
ENDBRANCH  13  14
ENDBRANCH  12  13
TORSDOF 5
ENDMDL
MODEL 9
REMARK VINA RESULT:      -6.4     16.069     18.391
REMARK  Name = 
REMARK  5 active torsions:
REMARK  status: ('A' for Active; 'I' for Inactive)
REMARK    1  A    between atoms: C_5  and  N_8
REMARK    2  A    between atoms: N_8  and  C_9
REMARK    3  A    between atoms: C_12  and  C_13
REMARK    4  A    between atoms: C_13  and  N_14
REMARK    5  A    between atoms: C_15  and  C_17
REMARK                            x       y       z     vdW  Elec       q    Type
REMARK                         _______ _______ _______ _____ _____    ______ ____
ROOT
ATOM      9  C   UNL     1      12.390   7.318  20.326  0.00  0.00    +0.135 C 
ATOM     10  C   UNL     1      11.904   7.802  19.865  0.00  0.00    +0.162 C 
ATOM     11  O   UNL     1      12.238   7.855  19.112  0.00  0.00    -0.350 OA
ATOM     12  C   UNL     1      12.929   7.405  19.107  0.00  0.00    +0.169 C 
ATOM     22  C   UNL     1      13.023   7.073  19.857  0.00  0.00    +0.199 C 
ATOM     23  O   UNL     1      13.642   6.582  20.097  0.00  0.00    -0.219 OA
ENDROOT
BRANCH   9   8
ATOM      8  N   UNL     1      12.264   7.116  21.115  0.00  0.00    -0.216 NA
BRANCH   8   5
ATOM      1  C   UNL     1      10.464   9.088  23.055  0.00  0.00    +0.090 C 
ATOM      2  N   UNL     1      10.914   8.595  22.570  0.00  0.00    -0.271 NA
ATOM      3  C   UNL     1      11.702   8.781  22.410  0.00  0.00    +0.074 C 
ATOM      4  C   UNL     1      12.151   8.288  21.925  0.00  0.00    +0.035 C 
ATOM      5  C   UNL     1      11.814   7.609  21.600  0.00  0.00    +0.076 C 
ATOM      6  C   UNL     1      11.026   7.423  21.760  0.00  0.00    +0.035 C 
ATOM      7  C   UNL     1      10.576   7.916  22.245  0.00  0.00    +0.074 C 
ENDBRANCH   8   5
ENDBRANCH   9   8
BRANCH  12  13
ATOM     13  C   UNL     1      13.438   7.304  18.466  0.00  0.00    +0.147 C 
BRANCH  13  14
ATOM     14  N   UNL     1      13.432   7.847  17.844  0.00  0.00    -0.203 NA
ATOM     15  C   UNL     1      13.887   7.709  17.171  0.00  0.00    +0.241 C 
ATOM     16  O   UNL     1      14.350   7.027  17.119  0.00  0.00    -0.273 OA
BRANCH  15  17
ATOM     17  C   UNL     1      13.881   8.251  16.550  0.00  0.00    +0.078 C 
ATOM     18  C   UNL     1      14.544   8.560  16.169  0.00  0.00    +0.009 C 
ATOM     19  C   UNL     1      14.284   9.080  15.584  0.00  0.00    +0.001 C 
ATOM     20  C   UNL     1      13.458   9.092  15.603  0.00  0.00    +0.001 C 
ATOM     21  C   UNL     1      13.210   8.580  16.200  0.00  0.00    +0.009 C 
ENDBRANCH  15  17
ENDBRANCH  13  14
ENDBRANCH  12  13
TORSDOF 5
ENDMDL
