MODEL 1
REMARK VINA RESULT:     -12.5      0.000      0.000
REMARK  Name = 
REMARK  6 active torsions:
REMARK  status: ('A' for Active; 'I' for Inactive)
REMARK    1  A    between atoms: N_4  and  C_5
REMARK    2  A    between atoms: C_8  and  C_9
REMARK    3  A    between atoms: C_9  and  N_10
REMARK    4  A    between atoms: C_14  and  C_15
REMARK    5  A    between atoms: C_17  and  C_20
REMARK    6  A    between atoms: C_24  and  N_26
REMARK                            x       y       z     vdW  Elec       q    Type
REMARK                         _______ _______ _______ _____ _____    ______ ____
ROOT
ATOM     15  C   UNL     1       0.165   1.647  24.484  0.00  0.00    +0.251 A 
ATOM     16  N   UNL     1      -0.510   2.114  24.398  0.00  0.00    -0.190 NA
ATOM     17  C   UNL     1      -0.458   2.740  24.931  0.00  0.00    +0.203 A 
ATOM     18  N   UNL     1       0.250   2.662  25.347  0.00  0.00    -0.056 NA
ATOM     19  O   UNL     1       0.635   1.987  25.071  0.00  0.00    -0.336 OA
ENDROOT
BRANCH  17  20
ATOM     20  C   UNL     1      -1.015   3.341  25.031  0.00  0.00    +0.043 A 
ATOM     21  C   UNL     1      -0.774   4.130  25.036  0.00  0.00    +0.024 A 
ATOM     22  C   UNL     1      -1.329   4.731  25.136  0.00  0.00    +0.100 A 
ATOM     23  N   UNL     1      -2.127   4.543  25.232  0.00  0.00    -0.229 NA
ATOM     24  C   UNL     1      -2.369   3.754  25.228  0.00  0.00    +0.132 A 
ATOM     25  C   UNL     1      -1.812   3.153  25.127  0.00  0.00    +0.037 A 
BRANCH  24  26
ATOM     26  N   UNL     1      -3.166   3.566  25.324  0.00  0.00    -0.290 N 
ATOM     27  C   UNL     1      -3.531   3.040  24.804  0.00  0.00    +0.114 C 
ATOM     28  C   UNL     1      -4.328   2.852  24.900  0.00  0.00    +0.115 C 
ATOM     29  N   UNL     1      -4.761   3.190  25.516  0.00  0.00    -0.276 N 
ATOM     30  C   UNL     1      -4.396   3.717  26.036  0.00  0.00    +0.115 C 
ATOM     31  C   UNL     1      -3.598   3.905  25.939  0.00  0.00    +0.114 C 
ATOM     32  C   UNL     1      -5.559   3.003  25.612  0.00  0.00    +0.226 C 
ATOM     33  C   UNL     1      -5.924   2.476  25.092  0.00  0.00    +0.095 C 
ATOM     34  O   UNL     1      -5.991   3.342  26.228  0.00  0.00    -0.275 OA
ENDBRANCH  24  26
ENDBRANCH  17  20
BRANCH  15  14
ATOM     10  N   UNL     1       0.038   0.209  24.206  0.00  0.00    -0.263 NA
ATOM     11  C   UNL     1       0.360  -0.307  23.650  0.00  0.00    +0.073 C 
ATOM     12  C   UNL     1       0.862   0.127  23.159  0.00  0.00    +0.019 C 
ATOM     13  C   UNL     1       0.849   0.912  23.412  0.00  0.00    +0.027 C 
ATOM     14  C   UNL     1       0.340   0.963  24.059  0.00  0.00    +0.138 C 
BRANCH  10   9
ATOM      9  C   UNL     1      -0.493   0.008  24.804  0.00  0.00    +0.099 C 
BRANCH   9   8
ATOM      5  C   UNL     1      -2.054  -1.886  24.490  0.00  0.00    +0.073 A 
ATOM      6  C   UNL     1      -1.325  -2.009  24.856  0.00  0.00    +0.016 A 
ATOM      7  C   UNL     1      -0.804  -1.378  24.961  0.00  0.00    -0.002 A 
ATOM      8  C   UNL     1      -1.013  -0.623  24.699  0.00  0.00    -0.006 A 
ATOM     35  C   UNL     1      -1.742  -0.501  24.332  0.00  0.00    -0.002 A 
ATOM     36  C   UNL     1      -2.262  -1.133  24.228  0.00  0.00    +0.016 A 
BRANCH   5   4
ATOM      1  C   UNL     1      -3.779  -3.200  24.740  0.00  0.00    +0.097 C 
ATOM      2  C   UNL     1      -3.259  -2.569  24.844  0.00  0.00    +0.246 C 
ATOM      3  O   UNL     1      -3.423  -1.987  25.405  0.00  0.00    -0.273 OA
ATOM      4  N   UNL     1      -2.574  -2.519  24.385  0.00  0.00    -0.179 NA
ENDBRANCH   5   4
ENDBRANCH   9   8
ENDBRANCH  10   9
ENDBRANCH  15  14
TORSDOF 6
ENDMDL
MODEL 2
REMARK VINA RESULT:     -11.9      0.729      4.824
REMARK  Name = 
REMARK  6 active torsions:
REMARK  status: ('A' for Active; 'I' for Inactive)
REMARK    1  A    between atoms: N_4  and  C_5
REMARK    2  A    between atoms: C_8  and  C_9
REMARK    3  A    between atoms: C_9  and  N_10
REMARK    4  A    between atoms: C_14  and  C_15
REMARK    5  A    between atoms: C_17  and  C_20
REMARK    6  A    between atoms: C_24  and  N_26
REMARK                            x       y       z     vdW  Elec       q    Type
REMARK                         _______ _______ _______ _____ _____    ______ ____
ROOT
ATOM     15  C   UNL     1      -0.448   3.235  25.095  0.00  0.00    +0.251 A 
ATOM     16  N   UNL     1      -0.588   2.592  24.599  0.00  0.00    -0.190 NA
ATOM     17  C   UNL     1      -0.054   1.996  24.795  0.00  0.00    +0.203 A 
ATOM     18  N   UNL     1       0.418   2.270  25.414  0.00  0.00    -0.056 NA
ATOM     19  O   UNL     1       0.174   3.036  25.600  0.00  0.00    -0.336 OA
ENDROOT
BRANCH  17  20
ATOM     20  C   UNL     1      -0.000   1.255  24.436  0.00  0.00    +0.043 A 
ATOM     21  C   UNL     1       0.640   1.080  23.945  0.00  0.00    +0.024 A 
ATOM     22  C   UNL     1       0.695   0.340  23.586  0.00  0.00    +0.100 A 
ATOM     23  N   UNL     1       0.110  -0.226  23.718  0.00  0.00    -0.229 NA
ATOM     24  C   UNL     1      -0.530  -0.053  24.209  0.00  0.00    +0.132 A 
ATOM     25  C   UNL     1      -0.585   0.688  24.568  0.00  0.00    +0.037 A 
BRANCH  24  26
ATOM     26  N   UNL     1      -1.114  -0.620  24.340  0.00  0.00    -0.290 N 
ATOM     27  C   UNL     1      -1.910  -0.411  24.288  0.00  0.00    +0.114 C 
ATOM     28  C   UNL     1      -2.495  -0.978  24.420  0.00  0.00    +0.115 C 
ATOM     29  N   UNL     1      -2.283  -1.754  24.604  0.00  0.00    -0.276 N 
ATOM     30  C   UNL     1      -1.487  -1.963  24.656  0.00  0.00    +0.115 C 
ATOM     31  C   UNL     1      -0.902  -1.396  24.524  0.00  0.00    +0.114 C 
ATOM     32  C   UNL     1      -2.868  -2.321  24.736  0.00  0.00    +0.226 C 
ATOM     33  C   UNL     1      -3.665  -2.112  24.684  0.00  0.00    +0.095 C 
ATOM     34  O   UNL     1      -2.656  -3.096  24.920  0.00  0.00    -0.275 OA
ENDBRANCH  24  26
ENDBRANCH  17  20
BRANCH  15  14
ATOM     10  N   UNL     1      -1.592   4.094  25.436  0.00  0.00    -0.263 NA
ATOM     11  C   UNL     1      -1.790   4.882  25.298  0.00  0.00    +0.073 C 
ATOM     12  C   UNL     1      -1.178   5.228  24.866  0.00  0.00    +0.019 C 
ATOM     13  C   UNL     1      -0.600   4.653  24.738  0.00  0.00    +0.027 C 
ATOM     14  C   UNL     1      -0.856   3.951  25.090  0.00  0.00    +0.138 C 
BRANCH  10   9
ATOM      9  C   UNL     1      -2.048   3.544  25.848  0.00  0.00    +0.099 C 
BRANCH   9   8
ATOM      5  C   UNL     1      -4.495   3.450  25.491  0.00  0.00    +0.073 A 
ATOM      6  C   UNL     1      -4.189   3.842  26.150  0.00  0.00    +0.016 A 
ATOM      7  C   UNL     1      -3.373   3.873  26.269  0.00  0.00    -0.002 A 
ATOM      8  C   UNL     1      -2.863   3.513  25.729  0.00  0.00    -0.006 A 
ATOM     35  C   UNL     1      -3.170   3.121  25.070  0.00  0.00    -0.002 A 
ATOM     36  C   UNL     1      -3.986   3.090  24.952  0.00  0.00    +0.016 A 
BRANCH   5   4
ATOM      1  C   UNL     1      -6.537   2.684  25.395  0.00  0.00    +0.097 C 
ATOM      2  C   UNL     1      -5.722   2.716  25.513  0.00  0.00    +0.246 C 
ATOM      3  O   UNL     1      -5.315   2.045  25.771  0.00  0.00    -0.273 OA
ATOM      4  N   UNL     1      -5.311   3.419  25.373  0.00  0.00    -0.179 NA
ENDBRANCH   5   4
ENDBRANCH   9   8
ENDBRANCH  10   9
ENDBRANCH  15  14
TORSDOF 6
ENDMDL
MODEL 3
REMARK VINA RESULT:     -11.7      1.413      4.494
REMARK  Name = 
REMARK  6 active torsions:
REMARK  status: ('A' for Active; 'I' for Inactive)
REMARK    1  A    between atoms: N_4  and  C_5
REMARK    2  A    between atoms: C_8  and  C_9
REMARK    3  A    between atoms: C_9  and  N_10
REMARK    4  A    between atoms: C_14  and  C_15
REMARK    5  A    between atoms: C_17  and  C_20
REMARK    6  A    between atoms: C_24  and  N_26
REMARK                            x       y       z     vdW  Elec       q    Type
REMARK                         _______ _______ _______ _____ _____    ______ ____
ROOT
ATOM     15  C   UNL     1      -2.900   3.873  25.541  0.00  0.00    +0.251 A 
ATOM     16  N   UNL     1      -3.256   3.241  25.148  0.00  0.00    -0.190 NA
ATOM     17  C   UNL     1      -3.971   3.076  25.522  0.00  0.00    +0.203 A 
ATOM     18  N   UNL     1      -4.059   3.607  26.148  0.00  0.00    -0.056 NA
ATOM     19  O   UNL     1      -3.397   4.100  26.160  0.00  0.00    -0.336 OA
ENDROOT
BRANCH  17  20
ATOM     20  C   UNL     1      -4.506   2.485  25.310  0.00  0.00    +0.043 A 
ATOM     21  C   UNL     1      -5.304   2.669  25.208  0.00  0.00    +0.024 A 
ATOM     22  C   UNL     1      -5.839   2.079  24.996  0.00  0.00    +0.100 A 
ATOM     23  N   UNL     1      -5.577   1.304  24.886  0.00  0.00    -0.229 NA
ATOM     24  C   UNL     1      -4.780   1.120  24.988  0.00  0.00    +0.132 A 
ATOM     25  C   UNL     1      -4.244   1.710  25.200  0.00  0.00    +0.037 A 
BRANCH  24  26
ATOM     26  N   UNL     1      -4.518   0.345  24.878  0.00  0.00    -0.290 N 
ATOM     27  C   UNL     1      -4.149  -0.056  25.496  0.00  0.00    +0.114 C 
ATOM     28  C   UNL     1      -3.887  -0.831  25.386  0.00  0.00    +0.115 C 
ATOM     29  N   UNL     1      -3.994  -1.204  24.658  0.00  0.00    -0.276 N 
ATOM     30  C   UNL     1      -4.363  -0.801  24.039  0.00  0.00    +0.115 C 
ATOM     31  C   UNL     1      -4.625  -0.027  24.149  0.00  0.00    +0.114 C 
ATOM     32  C   UNL     1      -3.732  -1.978  24.548  0.00  0.00    +0.226 C 
ATOM     33  C   UNL     1      -3.362  -2.380  25.167  0.00  0.00    +0.095 C 
ATOM     34  O   UNL     1      -3.839  -2.350  23.820  0.00  0.00    -0.275 OA
ENDBRANCH  24  26
ENDBRANCH  17  20
BRANCH  15  14
ATOM     10  N   UNL     1      -1.447   3.834  25.324  0.00  0.00    -0.263 NA
ATOM     11  C   UNL     1      -0.875   4.389  25.110  0.00  0.00    +0.073 C 
ATOM     12  C   UNL     1      -1.251   5.116  25.004  0.00  0.00    +0.019 C 
ATOM     13  C   UNL     1      -2.055   5.011  25.152  0.00  0.00    +0.027 C 
ATOM     14  C   UNL     1      -2.177   4.219  25.350  0.00  0.00    +0.138 C 
BRANCH  10   9
ATOM      9  C   UNL     1      -1.313   3.037  25.484  0.00  0.00    +0.099 C 
BRANCH   9   8
ATOM      5  C   UNL     1       0.396   1.786  24.204  0.00  0.00    +0.073 A 
ATOM      6  C   UNL     1       0.519   1.954  25.002  0.00  0.00    +0.016 A 
ATOM      7  C   UNL     1      -0.050   2.371  25.429  0.00  0.00    -0.002 A 
ATOM      8  C   UNL     1      -0.744   2.620  25.057  0.00  0.00    -0.006 A 
ATOM     35  C   UNL     1      -0.867   2.452  24.259  0.00  0.00    -0.002 A 
ATOM     36  C   UNL     1      -0.297   2.035  23.833  0.00  0.00    +0.016 A 
BRANCH   5   4
ATOM      1  C   UNL     1       1.387   0.174  23.116  0.00  0.00    +0.097 C 
ATOM      2  C   UNL     1       0.818   0.591  23.541  0.00  0.00    +0.246 C 
ATOM      3  O   UNL     1       0.099   0.233  23.732  0.00  0.00    -0.273 OA
ATOM      4  N   UNL     1       0.966   1.369  23.778  0.00  0.00    -0.179 NA
ENDBRANCH   5   4
ENDBRANCH   9   8
ENDBRANCH  10   9
ENDBRANCH  15  14
TORSDOF 6
ENDMDL
MODEL 4
REMARK VINA RESULT:     -11.3      1.324      4.365
REMARK  Name = 
REMARK  6 active torsions:
REMARK  status: ('A' for Active; 'I' for Inactive)
REMARK    1  A    between atoms: N_4  and  C_5
REMARK    2  A    between atoms: C_8  and  C_9
REMARK    3  A    between atoms: C_9  and  N_10
REMARK    4  A    between atoms: C_14  and  C_15
REMARK    5  A    between atoms: C_17  and  C_20
REMARK    6  A    between atoms: C_24  and  N_26
REMARK                            x       y       z     vdW  Elec       q    Type
REMARK                         _______ _______ _______ _____ _____    ______ ____
ROOT
ATOM     15  C   UNL     1      -4.187   2.918  25.098  0.00  0.00    +0.251 A 
ATOM     16  N   UNL     1      -3.382   2.751  25.167  0.00  0.00    -0.190 NA
ATOM     17  C   UNL     1      -2.961   3.422  24.938  0.00  0.00    +0.203 A 
ATOM     18  N   UNL     1      -3.506   4.005  24.727  0.00  0.00    -0.056 NA
ATOM     19  O   UNL     1      -4.263   3.693  24.826  0.00  0.00    -0.336 OA
ENDROOT
BRANCH  17  20
ATOM     20  C   UNL     1      -2.140   3.498  24.922  0.00  0.00    +0.043 A 
ATOM     21  C   UNL     1      -1.785   4.190  25.199  0.00  0.00    +0.024 A 
ATOM     22  C   UNL     1      -0.964   4.267  25.183  0.00  0.00    +0.100 A 
ATOM     23  N   UNL     1      -0.497   3.653  24.890  0.00  0.00    -0.229 NA
ATOM     24  C   UNL     1      -0.851   2.962  24.613  0.00  0.00    +0.132 A 
ATOM     25  C   UNL     1      -1.673   2.884  24.629  0.00  0.00    +0.037 A 
BRANCH  24  26
ATOM     26  N   UNL     1      -0.385   2.348  24.320  0.00  0.00    -0.290 N 
ATOM     27  C   UNL     1      -0.722   1.611  24.168  0.00  0.00    +0.114 C 
ATOM     28  C   UNL     1      -0.255   0.997  23.875  0.00  0.00    +0.115 C 
ATOM     29  N   UNL     1       0.549   1.120  23.734  0.00  0.00    -0.276 N 
ATOM     30  C   UNL     1       0.886   1.857  23.887  0.00  0.00    +0.115 C 
ATOM     31  C   UNL     1       0.419   2.471  24.180  0.00  0.00    +0.114 C 
ATOM     32  C   UNL     1       1.015   0.506  23.442  0.00  0.00    +0.226 C 
ATOM     33  C   UNL     1       0.678  -0.232  23.289  0.00  0.00    +0.095 C 
ATOM     34  O   UNL     1       1.819   0.629  23.302  0.00  0.00    -0.275 OA
ENDBRANCH  24  26
ENDBRANCH  17  20
BRANCH  15  14
ATOM     10  N   UNL     1      -4.868   1.617  25.023  0.00  0.00    -0.263 NA
ATOM     11  C   UNL     1      -5.574   1.311  25.321  0.00  0.00    +0.073 C 
ATOM     12  C   UNL     1      -5.948   1.906  25.753  0.00  0.00    +0.019 C 
ATOM     13  C   UNL     1      -5.473   2.580  25.722  0.00  0.00    +0.027 C 
ATOM     14  C   UNL     1      -4.806   2.402  25.271  0.00  0.00    +0.138 C 
BRANCH  10   9
ATOM      9  C   UNL     1      -4.322   1.211  24.559  0.00  0.00    +0.099 C 
BRANCH   9   8
ATOM      5  C   UNL     1      -4.072  -1.240  24.795  0.00  0.00    +0.073 A 
ATOM      6  C   UNL     1      -4.417  -0.923  24.115  0.00  0.00    +0.016 A 
ATOM      7  C   UNL     1      -4.500  -0.107  24.036  0.00  0.00    -0.002 A 
ATOM      8  C   UNL     1      -4.238   0.395  24.638  0.00  0.00    -0.006 A 
ATOM     35  C   UNL     1      -3.894   0.078  25.318  0.00  0.00    -0.002 A 
ATOM     36  C   UNL     1      -3.811  -0.739  25.396  0.00  0.00    +0.016 A 
BRANCH   5   4
ATOM      1  C   UNL     1      -3.219  -3.246  24.684  0.00  0.00    +0.097 C 
ATOM      2  C   UNL     1      -3.303  -2.429  24.606  0.00  0.00    +0.246 C 
ATOM      3  O   UNL     1      -2.700  -1.983  24.262  0.00  0.00    -0.273 OA
ATOM      4  N   UNL     1      -3.990  -2.057  24.873  0.00  0.00    -0.179 NA
ENDBRANCH   5   4
ENDBRANCH   9   8
ENDBRANCH  10   9
ENDBRANCH  15  14
TORSDOF 6
ENDMDL
MODEL 5
REMARK VINA RESULT:     -10.9      1.475      3.862
REMARK  Name = 
REMARK  6 active torsions:
REMARK  status: ('A' for Active; 'I' for Inactive)
REMARK    1  A    between atoms: N_4  and  C_5
REMARK    2  A    between atoms: C_8  and  C_9
REMARK    3  A    between atoms: C_9  and  N_10
REMARK    4  A    between atoms: C_14  and  C_15
REMARK    5  A    between atoms: C_17  and  C_20
REMARK    6  A    between atoms: C_24  and  N_26
REMARK                            x       y       z     vdW  Elec       q    Type
REMARK                         _______ _______ _______ _____ _____    ______ ____
ROOT
ATOM     15  C   UNL     1      -4.146  -0.568  24.930  0.00  0.00    +0.251 A 
ATOM     16  N   UNL     1      -4.123   0.193  24.611  0.00  0.00    -0.190 NA
ATOM     17  C   UNL     1      -4.510   0.701  25.133  0.00  0.00    +0.203 A 
ATOM     18  N   UNL     1      -4.772   0.254  25.776  0.00  0.00    -0.056 NA
ATOM     19  O   UNL     1      -4.547  -0.530  25.650  0.00  0.00    -0.336 OA
ENDROOT
BRANCH  17  20
ATOM     20  C   UNL     1      -4.616   1.513  25.033  0.00  0.00    +0.043 A 
ATOM     21  C   UNL     1      -5.373   1.816  24.904  0.00  0.00    +0.024 A 
ATOM     22  C   UNL     1      -5.481   2.627  24.803  0.00  0.00    +0.100 A 
ATOM     23  N   UNL     1      -4.832   3.136  24.831  0.00  0.00    -0.229 NA
ATOM     24  C   UNL     1      -4.075   2.833  24.960  0.00  0.00    +0.132 A 
ATOM     25  C   UNL     1      -3.968   2.021  25.061  0.00  0.00    +0.037 A 
BRANCH  24  26
ATOM     26  N   UNL     1      -3.426   3.342  24.989  0.00  0.00    -0.290 N 
ATOM     27  C   UNL     1      -2.704   3.106  24.670  0.00  0.00    +0.114 C 
ATOM     28  C   UNL     1      -2.055   3.615  24.698  0.00  0.00    +0.115 C 
ATOM     29  N   UNL     1      -2.129   4.359  25.046  0.00  0.00    -0.276 N 
ATOM     30  C   UNL     1      -2.853   4.595  25.365  0.00  0.00    +0.115 C 
ATOM     31  C   UNL     1      -3.501   4.087  25.337  0.00  0.00    +0.114 C 
ATOM     32  C   UNL     1      -1.480   4.868  25.074  0.00  0.00    +0.226 C 
ATOM     33  C   UNL     1      -0.757   4.632  24.755  0.00  0.00    +0.095 C 
ATOM     34  O   UNL     1      -1.555   5.613  25.422  0.00  0.00    -0.275 OA
ENDBRANCH  24  26
ENDBRANCH  17  20
BRANCH  15  14
ATOM     10  N   UNL     1      -3.058  -1.531  24.703  0.00  0.00    -0.263 NA
ATOM     11  C   UNL     1      -2.974  -2.220  24.259  0.00  0.00    +0.073 C 
ATOM     12  C   UNL     1      -3.688  -2.363  23.871  0.00  0.00    +0.019 C 
ATOM     13  C   UNL     1      -4.214  -1.761  24.075  0.00  0.00    +0.027 C 
ATOM     14  C   UNL     1      -3.825  -1.246  24.589  0.00  0.00    +0.138 C 
BRANCH  10   9
ATOM      9  C   UNL     1      -2.479  -1.186  25.177  0.00  0.00    +0.099 C 
BRANCH   9   8
ATOM      5  C   UNL     1      -0.205  -0.805  24.277  0.00  0.00    +0.073 A 
ATOM      6  C   UNL     1      -0.664  -0.165  24.523  0.00  0.00    +0.016 A 
ATOM      7  C   UNL     1      -1.422  -0.291  24.823  0.00  0.00    -0.002 A 
ATOM      8  C   UNL     1      -1.721  -1.059  24.877  0.00  0.00    -0.006 A 
ATOM     35  C   UNL     1      -1.262  -1.699  24.631  0.00  0.00    -0.002 A 
ATOM     36  C   UNL     1      -0.504  -1.571  24.331  0.00  0.00    +0.016 A 
BRANCH   5   4
ATOM      1  C   UNL     1       1.409  -0.132  22.970  0.00  0.00    +0.097 C 
ATOM      2  C   UNL     1       0.652  -0.260  23.270  0.00  0.00    +0.246 C 
ATOM      3  O   UNL     1      -0.007   0.028  22.866  0.00  0.00    -0.273 OA
ATOM      4  N   UNL     1       0.553  -0.677  23.977  0.00  0.00    -0.179 NA
ENDBRANCH   5   4
ENDBRANCH   9   8
ENDBRANCH  10   9
ENDBRANCH  15  14
TORSDOF 6
ENDMDL
MODEL 6
REMARK VINA RESULT:     -10.6      1.451      6.075
REMARK  Name = 
REMARK  6 active torsions:
REMARK  status: ('A' for Active; 'I' for Inactive)
REMARK    1  A    between atoms: N_4  and  C_5
REMARK    2  A    between atoms: C_8  and  C_9
REMARK    3  A    between atoms: C_9  and  N_10
REMARK    4  A    between atoms: C_14  and  C_15
REMARK    5  A    between atoms: C_17  and  C_20
REMARK    6  A    between atoms: C_24  and  N_26
REMARK                            x       y       z     vdW  Elec       q    Type
REMARK                         _______ _______ _______ _____ _____    ______ ____
ROOT
ATOM     15  C   UNL     1      -4.728   0.565  24.953  0.00  0.00    +0.251 A 
ATOM     16  N   UNL     1      -3.956   0.333  25.129  0.00  0.00    -0.190 NA
ATOM     17  C   UNL     1      -3.824  -0.403  24.782  0.00  0.00    +0.203 A 
ATOM     18  N   UNL     1      -4.515  -0.627  24.391  0.00  0.00    -0.056 NA
ATOM     19  O   UNL     1      -5.074  -0.029  24.496  0.00  0.00    -0.336 OA
ENDROOT
BRANCH  17  20
ATOM     20  C   UNL     1      -3.125  -0.839  24.819  0.00  0.00    +0.043 A 
ATOM     21  C   UNL     1      -3.126  -1.592  25.157  0.00  0.00    +0.024 A 
ATOM     22  C   UNL     1      -2.428  -2.029  25.194  0.00  0.00    +0.100 A 
ATOM     23  N   UNL     1      -1.728  -1.714  24.893  0.00  0.00    -0.229 NA
ATOM     24  C   UNL     1      -1.725  -0.961  24.555  0.00  0.00    +0.132 A 
ATOM     25  C   UNL     1      -2.424  -0.524  24.518  0.00  0.00    +0.037 A 
BRANCH  24  26
ATOM     26  N   UNL     1      -1.025  -0.646  24.254  0.00  0.00    -0.290 N 
ATOM     27  C   UNL     1      -0.540  -1.106  23.772  0.00  0.00    +0.114 C 
ATOM     28  C   UNL     1       0.160  -0.790  23.471  0.00  0.00    +0.115 C 
ATOM     29  N   UNL     1       0.376  -0.015  23.653  0.00  0.00    -0.276 N 
ATOM     30  C   UNL     1      -0.110   0.445  24.136  0.00  0.00    +0.115 C 
ATOM     31  C   UNL     1      -0.810   0.130  24.437  0.00  0.00    +0.114 C 
ATOM     32  C   UNL     1       1.076   0.300  23.352  0.00  0.00    +0.226 C 
ATOM     33  C   UNL     1       1.562  -0.160  22.869  0.00  0.00    +0.095 C 
ATOM     34  O   UNL     1       1.291   1.076  23.534  0.00  0.00    -0.275 OA
ENDBRANCH  24  26
ENDBRANCH  17  20
BRANCH  15  14
ATOM     10  N   UNL     1      -4.868   2.028  24.967  0.00  0.00    -0.263 NA
ATOM     11  C   UNL     1      -5.381   2.561  25.332  0.00  0.00    +0.073 C 
ATOM     12  C   UNL     1      -5.921   2.128  25.782  0.00  0.00    +0.019 C 
ATOM     13  C   UNL     1      -5.742   1.327  25.694  0.00  0.00    +0.027 C 
ATOM     14  C   UNL     1      -5.091   1.266  25.190  0.00  0.00    +0.138 C 
BRANCH  10   9
ATOM      9  C   UNL     1      -4.243   2.223  24.466  0.00  0.00    +0.099 C 
BRANCH   9   8
ATOM      5  C   UNL     1      -2.822   4.187  24.964  0.00  0.00    +0.073 A 
ATOM      6  C   UNL     1      -3.336   4.203  24.319  0.00  0.00    +0.016 A 
ATOM      7  C   UNL     1      -3.810   3.548  24.153  0.00  0.00    -0.002 A 
ATOM      8  C   UNL     1      -3.769   2.877  24.633  0.00  0.00    -0.006 A 
ATOM     35  C   UNL     1      -3.255   2.862  25.278  0.00  0.00    -0.002 A 
ATOM     36  C   UNL     1      -2.782   3.517  25.443  0.00  0.00    +0.016 A 
BRANCH   5   4
ATOM      1  C   UNL     1      -1.068   5.478  25.118  0.00  0.00    +0.097 C 
ATOM      2  C   UNL     1      -1.542   4.823  24.953  0.00  0.00    +0.246 C 
ATOM      3  O   UNL     1      -1.210   4.149  24.611  0.00  0.00    -0.273 OA
ATOM      4  N   UNL     1      -2.348   4.842  25.129  0.00  0.00    -0.179 NA
ENDBRANCH   5   4
ENDBRANCH   9   8
ENDBRANCH  10   9
ENDBRANCH  15  14
TORSDOF 6
ENDMDL
MODEL 7
REMARK VINA RESULT:     -10.4      1.429      4.170
REMARK  Name = 
REMARK  6 active torsions:
REMARK  status: ('A' for Active; 'I' for Inactive)
REMARK    1  A    between atoms: N_4  and  C_5
REMARK    2  A    between atoms: C_8  and  C_9
REMARK    3  A    between atoms: C_9  and  N_10
REMARK    4  A    between atoms: C_14  and  C_15
REMARK    5  A    between atoms: C_17  and  C_20
REMARK    6  A    between atoms: C_24  and  N_26
REMARK                            x       y       z     vdW  Elec       q    Type
REMARK                         _______ _______ _______ _____ _____    ______ ____
ROOT
ATOM     15  C   UNL     1      -0.936  -0.415  24.211  0.00  0.00    +0.251 A 
ATOM     16  N   UNL     1      -1.713  -0.144  24.143  0.00  0.00    -0.190 NA
ATOM     17  C   UNL     1      -2.216  -0.742  24.404  0.00  0.00    +0.203 A 
ATOM     18  N   UNL     1      -1.751  -1.384  24.635  0.00  0.00    -0.056 NA
ATOM     19  O   UNL     1      -0.960  -1.182  24.516  0.00  0.00    -0.336 OA
ENDROOT
BRANCH  17  20
ATOM     20  C   UNL     1      -3.040  -0.707  24.431  0.00  0.00    +0.043 A 
ATOM     21  C   UNL     1      -3.488  -1.364  24.211  0.00  0.00    +0.024 A 
ATOM     22  C   UNL     1      -4.312  -1.330  24.238  0.00  0.00    +0.100 A 
ATOM     23  N   UNL     1      -4.688  -0.638  24.485  0.00  0.00    -0.229 NA
ATOM     24  C   UNL     1      -4.240   0.019  24.705  0.00  0.00    +0.132 A 
ATOM     25  C   UNL     1      -3.416  -0.015  24.678  0.00  0.00    +0.037 A 
BRANCH  24  26
ATOM     26  N   UNL     1      -4.617   0.711  24.951  0.00  0.00    -0.290 N 
ATOM     27  C   UNL     1      -4.385   1.439  24.642  0.00  0.00    +0.114 C 
ATOM     28  C   UNL     1      -4.761   2.130  24.888  0.00  0.00    +0.115 C 
ATOM     29  N   UNL     1      -5.369   2.094  25.444  0.00  0.00    -0.276 N 
ATOM     30  C   UNL     1      -5.601   1.365  25.754  0.00  0.00    +0.115 C 
ATOM     31  C   UNL     1      -5.225   0.673  25.507  0.00  0.00    +0.114 C 
ATOM     32  C   UNL     1      -5.745   2.785  25.691  0.00  0.00    +0.226 C 
ATOM     33  C   UNL     1      -5.513   3.514  25.381  0.00  0.00    +0.095 C 
ATOM     34  O   UNL     1      -6.353   2.748  26.247  0.00  0.00    -0.275 OA
ENDBRANCH  24  26
ENDBRANCH  17  20
BRANCH  15  14
ATOM     10  N   UNL     1      -0.003   0.712  24.355  0.00  0.00    -0.263 NA
ATOM     11  C   UNL     1       0.701   0.936  23.988  0.00  0.00    +0.073 C 
ATOM     12  C   UNL     1       0.883   0.368  23.417  0.00  0.00    +0.019 C 
ATOM     13  C   UNL     1       0.292  -0.207  23.432  0.00  0.00    +0.027 C 
ATOM     14  C   UNL     1      -0.256   0.005  24.011  0.00  0.00    +0.138 C 
BRANCH  10   9
ATOM      9  C   UNL     1      -0.386   1.122  24.958  0.00  0.00    +0.099 C 
BRANCH   9   8
ATOM      5  C   UNL     1      -0.520   3.592  24.889  0.00  0.00    +0.073 A 
ATOM      6  C   UNL     1      -0.175   3.215  25.537  0.00  0.00    +0.016 A 
ATOM      7  C   UNL     1      -0.130   2.392  25.560  0.00  0.00    -0.002 A 
ATOM      8  C   UNL     1      -0.431   1.945  24.935  0.00  0.00    -0.006 A 
ATOM     35  C   UNL     1      -0.777   2.322  24.287  0.00  0.00    -0.002 A 
ATOM     36  C   UNL     1      -0.821   3.145  24.265  0.00  0.00    +0.016 A 
BRANCH   5   4
ATOM      1  C   UNL     1      -1.312   5.620  25.052  0.00  0.00    +0.097 C 
ATOM      2  C   UNL     1      -1.267   4.797  25.074  0.00  0.00    +0.246 C 
ATOM      3  O   UNL     1      -1.925   4.353  25.302  0.00  0.00    -0.273 OA
ATOM      4  N   UNL     1      -0.564   4.416  24.867  0.00  0.00    -0.179 NA
ENDBRANCH   5   4
ENDBRANCH   9   8
ENDBRANCH  10   9
ENDBRANCH  15  14
TORSDOF 6
ENDMDL
MODEL 8
REMARK VINA RESULT:     -10.1      2.400      6.268
REMARK  Name = 
REMARK  6 active torsions:
REMARK  status: ('A' for Active; 'I' for Inactive)
REMARK    1  A    between atoms: N_4  and  C_5
REMARK    2  A    between atoms: C_8  and  C_9
REMARK    3  A    between atoms: C_9  and  N_10
REMARK    4  A    between atoms: C_14  and  C_15
REMARK    5  A    between atoms: C_17  and  C_20
REMARK    6  A    between atoms: C_24  and  N_26
REMARK                            x       y       z     vdW  Elec       q    Type
REMARK                         _______ _______ _______ _____ _____    ______ ____
ROOT
ATOM     15  C   UNL     1      -0.470   0.874  24.470  0.00  0.00    +0.251 A 
ATOM     16  N   UNL     1       0.122   0.975  23.905  0.00  0.00    -0.190 NA
ATOM     17  C   UNL     1       0.356   0.229  23.643  0.00  0.00    +0.203 A 
ATOM     18  N   UNL     1      -0.092  -0.334  24.047  0.00  0.00    -0.056 NA
ATOM     19  O   UNL     1      -0.602   0.064  24.558  0.00  0.00    -0.336 OA
ENDROOT
BRANCH  17  20
ATOM     20  C   UNL     1       0.936   0.072  23.077  0.00  0.00    +0.043 A 
ATOM     21  C   UNL     1       0.717  -0.117  22.305  0.00  0.00    +0.024 A 
ATOM     22  C   UNL     1       1.295  -0.275  21.738  0.00  0.00    +0.100 A 
ATOM     23  N   UNL     1       2.093  -0.242  21.944  0.00  0.00    -0.229 NA
ATOM     24  C   UNL     1       2.313  -0.052  22.716  0.00  0.00    +0.132 A 
ATOM     25  C   UNL     1       1.734   0.105  23.283  0.00  0.00    +0.037 A 
BRANCH  24  26
ATOM     26  N   UNL     1       3.111  -0.020  22.922  0.00  0.00    -0.290 N 
ATOM     27  C   UNL     1       3.474  -0.673  23.270  0.00  0.00    +0.114 C 
ATOM     28  C   UNL     1       4.272  -0.641  23.476  0.00  0.00    +0.115 C 
ATOM     29  N   UNL     1       4.707   0.045  23.334  0.00  0.00    -0.276 N 
ATOM     30  C   UNL     1       4.344   0.699  22.986  0.00  0.00    +0.115 C 
ATOM     31  C   UNL     1       3.546   0.667  22.780  0.00  0.00    +0.114 C 
ATOM     32  C   UNL     1       5.506   0.078  23.540  0.00  0.00    +0.226 C 
ATOM     33  C   UNL     1       5.869  -0.576  23.888  0.00  0.00    +0.095 C 
ATOM     34  O   UNL     1       5.940   0.764  23.397  0.00  0.00    -0.275 OA
ENDBRANCH  24  26
ENDBRANCH  17  20
BRANCH  15  14
ATOM     10  N   UNL     1      -1.647   1.704  24.767  0.00  0.00    -0.263 NA
ATOM     11  C   UNL     1      -1.806   2.324  25.287  0.00  0.00    +0.073 C 
ATOM     12  C   UNL     1      -1.119   2.479  25.719  0.00  0.00    +0.019 C 
ATOM     13  C   UNL     1      -0.535   1.954  25.465  0.00  0.00    +0.027 C 
ATOM     14  C   UNL     1      -0.861   1.475  24.876  0.00  0.00    +0.138 C 
BRANCH  10   9
ATOM      9  C   UNL     1      -2.178   1.372  24.232  0.00  0.00    +0.099 C 
BRANCH   9   8
ATOM      5  C   UNL     1      -4.614   1.642  24.575  0.00  0.00    +0.073 A 
ATOM      6  C   UNL     1      -4.192   2.207  24.145  0.00  0.00    +0.016 A 
ATOM      7  C   UNL     1      -3.380   2.117  24.031  0.00  0.00    -0.002 A 
ATOM      8  C   UNL     1      -2.990   1.462  24.347  0.00  0.00    -0.006 A 
ATOM     35  C   UNL     1      -3.411   0.897  24.776  0.00  0.00    -0.002 A 
ATOM     36  C   UNL     1      -4.223   0.988  24.890  0.00  0.00    +0.016 A 
BRANCH   5   4
ATOM      1  C   UNL     1      -6.518   2.248  25.454  0.00  0.00    +0.097 C 
ATOM      2  C   UNL     1      -5.706   2.157  25.340  0.00  0.00    +0.246 C 
ATOM      3  O   UNL     1      -5.174   2.488  25.876  0.00  0.00    -0.273 OA
ATOM      4  N   UNL     1      -5.426   1.733  24.689  0.00  0.00    -0.179 NA
ENDBRANCH   5   4
ENDBRANCH   9   8
ENDBRANCH  10   9
ENDBRANCH  15  14
TORSDOF 6
ENDMDL
