REMARK  Name = 
REMARK  5 active torsions:
REMARK  status: ('A' for Active; 'I' for Inactive)
REMARK    1  A    between atoms: C_4  and  N_18
REMARK    2  A    between atoms: C_6  and  C_7
REMARK    3  A    between atoms: C_9  and  C_12
REMARK    4  A    between atoms: N_21  and  C_22
REMARK    5  A    between atoms: C_24  and  C_28
REMARK                            x       y       z     vdW  Elec       q    Type
REMARK                         _______ _______ _______ _____ _____    ______ ____
ROOT
ATOM      1  C   UNL     1       2.751  -1.712   0.000  0.00  0.00    +0.090 C 
ATOM      2  N   UNL     1       2.751  -2.537   0.000  0.00  0.00    -0.264 NA
ATOM      3  C   UNL     1       3.419  -3.022   0.000  0.00  0.00    +0.094 C 
ATOM      4  C   UNL     1       3.164  -3.806   0.000  0.00  0.00    +0.115 C 
ATOM      5  C   UNL     1       2.339  -3.806   0.000  0.00  0.00    +0.049 C 
ATOM      6  C   UNL     1       2.084  -3.022   0.000  0.00  0.00    +0.139 C 
ENDROOT
BRANCH   6   7
ATOM      7  C   UNL     1       1.299  -2.767   0.000  0.00  0.00    +0.251 A 
ATOM      8  N   UNL     1       0.632  -3.252   0.000  0.00  0.00    -0.188 NA
ATOM      9  C   UNL     1      -0.036  -2.767   0.000  0.00  0.00    +0.223 A 
ATOM     10  N   UNL     1       0.219  -1.982   0.000  0.00  0.00    -0.054 NA
ATOM     11  O   UNL     1       1.044  -1.982   0.000  0.00  0.00    -0.336 OA
BRANCH   9  12
ATOM     12  C   UNL     1      -0.820  -3.022   0.000  0.00  0.00    +0.139 A 
ATOM     13  C   UNL     1      -0.992  -3.829   0.000  0.00  0.00    +0.121 A 
ATOM     14  N   UNL     1      -1.776  -4.083   0.000  0.00  0.00    -0.239 NA
ATOM     15  C   UNL     1      -2.390  -3.531   0.000  0.00  0.00    +0.120 A 
ATOM     16  C   UNL     1      -2.218  -2.724   0.000  0.00  0.00    +0.120 A 
ATOM     17  N   UNL     1      -1.433  -2.470   0.000  0.00  0.00    -0.237 NA
ENDBRANCH   9  12
ENDBRANCH   6   7
BRANCH   4  18
ATOM     18  N   UNL     1       3.649  -4.474   0.000  0.00  0.00    -0.187 NA
ATOM     19  C   UNL     1       3.313  -5.227   0.000  0.00  0.00    +0.343 C 
ATOM     20  O   UNL     1       2.493  -5.314   0.000  0.00  0.00    -0.249 OA
ATOM     21  N   UNL     1       3.798  -5.895   0.000  0.00  0.00    -0.161 NA
BRANCH  21  22
ATOM     22  C   UNL     1       3.462  -6.648   0.000  0.00  0.00    +0.075 A 
ATOM     23  C   UNL     1       3.947  -7.316   0.000  0.00  0.00    +0.021 A 
ATOM     24  C   UNL     1       3.612  -8.069   0.000  0.00  0.00    +0.073 A 
ATOM     25  C   UNL     1       2.791  -8.156   0.000  0.00  0.00    +0.004 A 
ATOM     26  C   UNL     1       2.306  -7.488   0.000  0.00  0.00    +0.001 A 
ATOM     27  C   UNL     1       2.642  -6.735   0.000  0.00  0.00    +0.017 A 
BRANCH  24  28
ATOM     28  C   UNL     1       4.097  -8.737   0.000  0.00  0.00    +0.419 C 
ATOM     29  F   UNL     1       4.582  -9.404   0.000  0.00  0.00    -0.166 F 
ATOM     30  F   UNL     1       3.429  -9.222   0.000  0.00  0.00    -0.166 F 
ATOM     31  F   UNL     1       4.764  -8.252   0.000  0.00  0.00    -0.166 F 
ENDBRANCH  24  28
ENDBRANCH  21  22
ENDBRANCH   4  18
TORSDOF 5
