MODEL 1
REMARK VINA RESULT:     -11.7      0.000      0.000
REMARK  Name = 
REMARK  6 active torsions:
REMARK  status: ('A' for Active; 'I' for Inactive)
REMARK    1  A    between atoms: C_5  and  C_8
REMARK    2  A    between atoms: C_11  and  C_13
REMARK    3  A    between atoms: C_19  and  C_21
REMARK    4  A    between atoms: C_21  and  O_22
REMARK    5  A    between atoms: O_22  and  C_23
REMARK    6  A    between atoms: C_23  and  C_24
REMARK                            x       y       z     vdW  Elec       q    Type
REMARK                         _______ _______ _______ _____ _____    ______ ____
ROOT
ATOM     13  C   UNL     1      -4.017   1.849  24.716  0.00  0.00    +0.161 C 
ATOM     14  C   UNL     1      -4.809   2.061  24.804  0.00  0.00    +0.077 C 
ATOM     15  C   UNL     1      -5.007   2.782  25.152  0.00  0.00    +0.078 A 
ATOM     16  C   UNL     1      -4.412   3.292  25.413  0.00  0.00    +0.094 A 
ATOM     17  C   UNL     1      -3.620   3.080  25.324  0.00  0.00    +0.141 C 
ATOM     18  N   UNL     1      -3.422   2.358  24.976  0.00  0.00    -0.265 N 
ATOM     19  C   UNL     1      -2.631   2.147  24.888  0.00  0.00    +0.256 C 
ATOM     20  O   UNL     1      -2.432   1.425  24.540  0.00  0.00    -0.272 OA
ATOM     27  N   UNL     1      -4.773   3.962  25.732  0.00  0.00    -0.225 NA
ATOM     28  C   UNL     1      -5.591   3.866  25.670  0.00  0.00    +0.198 A 
ATOM     29  N   UNL     1      -5.735   3.137  25.311  0.00  0.00    -0.227 NA
ENDROOT
BRANCH  13  11
ATOM      8  C   UNL     1      -3.648  -0.181  24.167  0.00  0.00    +0.203 A 
ATOM      9  N   UNL     1      -3.379   0.217  23.496  0.00  0.00    -0.056 NA
ATOM     10  O   UNL     1      -3.485   1.026  23.620  0.00  0.00    -0.335 OA
ATOM     11  C   UNL     1      -3.818   1.127  24.368  0.00  0.00    +0.255 A 
ATOM     12  N   UNL     1      -3.920   0.383  24.706  0.00  0.00    -0.189 NA
BRANCH   8   5
ATOM      1  C   UNL     1      -3.641  -3.450  24.617  0.00  0.00    +0.031 C 
ATOM      2  C   UNL     1      -3.643  -2.633  24.504  0.00  0.00    -0.022 A 
ATOM      3  C   UNL     1      -3.158  -2.152  24.968  0.00  0.00    -0.004 A 
ATOM      4  C   UNL     1      -3.160  -1.334  24.856  0.00  0.00    +0.003 A 
ATOM      5  C   UNL     1      -3.646  -0.999  24.280  0.00  0.00    +0.039 A 
ATOM      6  C   UNL     1      -4.130  -1.479  23.816  0.00  0.00    +0.003 A 
ATOM      7  C   UNL     1      -4.128  -2.297  23.929  0.00  0.00    -0.004 A 
ENDBRANCH   8   5
ENDBRANCH  13  11
BRANCH  19  21
ATOM     21  C   UNL     1      -2.035   2.656  25.148  0.00  0.00    +0.228 C 
BRANCH  21  22
ATOM     22  O   UNL     1      -1.283   2.362  25.312  0.00  0.00    -0.333 OA
BRANCH  22  23
ATOM     23  C   UNL     1      -0.696   2.865  25.600  0.00  0.00    +0.257 C 
BRANCH  23  24
ATOM     24  C   UNL     1       0.018   2.555  25.871  0.00  0.00    +0.394 C 
ATOM     25  O   UNL     1       0.583   2.289  25.331  0.00  0.00    -0.243 OA
ATOM     26  O   UNL     1       0.169   2.510  26.682  0.00  0.00    -0.243 OA
ENDBRANCH  23  24
ENDBRANCH  22  23
ENDBRANCH  21  22
ENDBRANCH  19  21
TORSDOF 6
ENDMDL
MODEL 2
REMARK VINA RESULT:     -10.7      2.517      5.064
REMARK  Name = 
REMARK  6 active torsions:
REMARK  status: ('A' for Active; 'I' for Inactive)
REMARK    1  A    between atoms: C_5  and  C_8
REMARK    2  A    between atoms: C_11  and  C_13
REMARK    3  A    between atoms: C_19  and  C_21
REMARK    4  A    between atoms: C_21  and  O_22
REMARK    5  A    between atoms: O_22  and  C_23
REMARK    6  A    between atoms: C_23  and  C_24
REMARK                            x       y       z     vdW  Elec       q    Type
REMARK                         _______ _______ _______ _____ _____    ______ ____
ROOT
ATOM     13  C   UNL     1      -1.472   0.273  25.146  0.00  0.00    +0.161 C 
ATOM     14  C   UNL     1      -2.164  -0.035  25.473  0.00  0.00    +0.077 C 
ATOM     15  C   UNL     1      -2.422  -0.788  25.258  0.00  0.00    +0.078 A 
ATOM     16  C   UNL     1      -1.987  -1.234  24.715  0.00  0.00    +0.094 A 
ATOM     17  C   UNL     1      -1.296  -0.926  24.389  0.00  0.00    +0.141 C 
ATOM     18  N   UNL     1      -1.038  -0.172  24.604  0.00  0.00    -0.265 N 
ATOM     19  C   UNL     1      -0.346   0.136  24.278  0.00  0.00    +0.256 C 
ATOM     20  O   UNL     1      -0.088   0.890  24.493  0.00  0.00    -0.272 OA
ATOM     27  N   UNL     1      -2.375  -1.955  24.609  0.00  0.00    -0.225 NA
ATOM     28  C   UNL     1      -3.049  -1.954  25.086  0.00  0.00    +0.198 A 
ATOM     29  N   UNL     1      -3.078  -1.233  25.486  0.00  0.00    -0.227 NA
ENDROOT
BRANCH  13  11
ATOM      8  C   UNL     1      -1.124   2.354  25.474  0.00  0.00    +0.203 A 
ATOM      9  N   UNL     1      -0.510   2.019  25.911  0.00  0.00    -0.056 NA
ATOM     10  O   UNL     1      -0.565   1.198  25.841  0.00  0.00    -0.335 OA
ATOM     11  C   UNL     1      -1.214   1.028  25.361  0.00  0.00    +0.255 A 
ATOM     12  N   UNL     1      -1.559   1.740  25.134  0.00  0.00    -0.189 NA
BRANCH   8   5
ATOM      1  C   UNL     1      -1.733   5.581  25.143  0.00  0.00    +0.031 C 
ATOM      2  C   UNL     1      -1.580   4.774  25.225  0.00  0.00    -0.022 A 
ATOM      3  C   UNL     1      -2.144   4.282  25.575  0.00  0.00    -0.004 A 
ATOM      4  C   UNL     1      -1.991   3.475  25.658  0.00  0.00    +0.003 A 
ATOM      5  C   UNL     1      -1.277   3.161  25.391  0.00  0.00    +0.039 A 
ATOM      6  C   UNL     1      -0.714   3.652  25.042  0.00  0.00    +0.003 A 
ATOM      7  C   UNL     1      -0.867   4.459  24.959  0.00  0.00    -0.004 A 
ENDBRANCH   8   5
ENDBRANCH  13  11
BRANCH  19  21
ATOM     21  C   UNL     1       0.089  -0.309  23.736  0.00  0.00    +0.228 C 
BRANCH  21  22
ATOM     22  O   UNL     1       0.693   0.045  23.301  0.00  0.00    -0.333 OA
BRANCH  22  23
ATOM     23  C   UNL     1       1.299  -0.416  22.984  0.00  0.00    +0.257 C 
BRANCH  23  24
ATOM     24  C   UNL     1       1.781  -0.113  22.388  0.00  0.00    +0.394 C 
ATOM     25  O   UNL     1       2.477   0.286  22.582  0.00  0.00    -0.243 OA
ATOM     26  O   UNL     1       1.567  -0.207  21.596  0.00  0.00    -0.243 OA
ENDBRANCH  23  24
ENDBRANCH  22  23
ENDBRANCH  21  22
ENDBRANCH  19  21
TORSDOF 6
ENDMDL
MODEL 3
REMARK VINA RESULT:     -10.4      1.659      3.224
REMARK  Name = 
REMARK  6 active torsions:
REMARK  status: ('A' for Active; 'I' for Inactive)
REMARK    1  A    between atoms: C_5  and  C_8
REMARK    2  A    between atoms: C_11  and  C_13
REMARK    3  A    between atoms: C_19  and  C_21
REMARK    4  A    between atoms: C_21  and  O_22
REMARK    5  A    between atoms: O_22  and  C_23
REMARK    6  A    between atoms: C_23  and  C_24
REMARK                            x       y       z     vdW  Elec       q    Type
REMARK                         _______ _______ _______ _____ _____    ______ ____
ROOT
ATOM     13  C   UNL     1      -1.958   1.527  24.826  0.00  0.00    +0.161 C 
ATOM     14  C   UNL     1      -1.151   1.423  24.963  0.00  0.00    +0.077 C 
ATOM     15  C   UNL     1      -0.720   2.010  25.350  0.00  0.00    +0.078 A 
ATOM     16  C   UNL     1      -1.096   2.701  25.601  0.00  0.00    +0.094 A 
ATOM     17  C   UNL     1      -1.903   2.804  25.463  0.00  0.00    +0.141 C 
ATOM     18  N   UNL     1      -2.334   2.217  25.076  0.00  0.00    -0.265 N 
ATOM     19  C   UNL     1      -3.140   2.320  24.939  0.00  0.00    +0.256 C 
ATOM     20  O   UNL     1      -3.572   1.732  24.552  0.00  0.00    -0.272 OA
ATOM     27  N   UNL     1      -0.532   3.180  25.966  0.00  0.00    -0.225 NA
ATOM     28  C   UNL     1       0.193   2.785  25.941  0.00  0.00    +0.198 A 
ATOM     29  N   UNL     1       0.076   2.063  25.561  0.00  0.00    -0.227 NA
ENDROOT
BRANCH  13  11
ATOM      8  C   UNL     1      -2.976  -0.225  24.152  0.00  0.00    +0.203 A 
ATOM      9  N   UNL     1      -3.130   0.297  23.533  0.00  0.00    -0.056 NA
ATOM     10  O   UNL     1      -2.768   1.017  23.709  0.00  0.00    -0.335 OA
ATOM     11  C   UNL     1      -2.390   0.939  24.438  0.00  0.00    +0.255 A 
ATOM     12  N   UNL     1      -2.518   0.172  24.712  0.00  0.00    -0.189 NA
BRANCH   8   5
ATOM      1  C   UNL     1      -4.007  -3.353  24.356  0.00  0.00    +0.031 C 
ATOM      2  C   UNL     1      -3.749  -2.571  24.305  0.00  0.00    -0.022 A 
ATOM      3  C   UNL     1      -4.232  -1.999  23.957  0.00  0.00    -0.004 A 
ATOM      4  C   UNL     1      -3.974  -1.217  23.906  0.00  0.00    +0.003 A 
ATOM      5  C   UNL     1      -3.234  -1.007  24.203  0.00  0.00    +0.039 A 
ATOM      6  C   UNL     1      -2.751  -1.578  24.551  0.00  0.00    +0.003 A 
ATOM      7  C   UNL     1      -3.009  -2.361  24.601  0.00  0.00    -0.004 A 
ENDBRANCH   8   5
ENDBRANCH  13  11
BRANCH  19  21
ATOM     21  C   UNL     1      -3.517   3.010  25.189  0.00  0.00    +0.228 C 
BRANCH  21  22
ATOM     22  O   UNL     1      -4.335   3.021  25.290  0.00  0.00    -0.333 OA
BRANCH  22  23
ATOM     23  C   UNL     1      -4.696   3.659  25.669  0.00  0.00    +0.257 C 
BRANCH  23  24
ATOM     24  C   UNL     1      -5.506   3.642  25.824  0.00  0.00    +0.394 C 
ATOM     25  O   UNL     1      -5.834   3.010  26.241  0.00  0.00    -0.243 OA
ATOM     26  O   UNL     1      -5.989   4.259  25.562  0.00  0.00    -0.243 OA
ENDBRANCH  23  24
ENDBRANCH  22  23
ENDBRANCH  21  22
ENDBRANCH  19  21
TORSDOF 6
ENDMDL
MODEL 4
REMARK VINA RESULT:     -10.2      2.202      3.055
REMARK  Name = 
REMARK  6 active torsions:
REMARK  status: ('A' for Active; 'I' for Inactive)
REMARK    1  A    between atoms: C_5  and  C_8
REMARK    2  A    between atoms: C_11  and  C_13
REMARK    3  A    between atoms: C_19  and  C_21
REMARK    4  A    between atoms: C_21  and  O_22
REMARK    5  A    between atoms: O_22  and  C_23
REMARK    6  A    between atoms: C_23  and  C_24
REMARK                            x       y       z     vdW  Elec       q    Type
REMARK                         _______ _______ _______ _____ _____    ______ ____
ROOT
ATOM     13  C   UNL     1      -1.352   1.505  25.013  0.00  0.00    +0.161 C 
ATOM     14  C   UNL     1      -1.786   2.139  25.313  0.00  0.00    +0.077 C 
ATOM     15  C   UNL     1      -1.514   2.911  25.211  0.00  0.00    +0.078 A 
ATOM     16  C   UNL     1      -0.806   3.049  24.808  0.00  0.00    +0.094 A 
ATOM     17  C   UNL     1      -0.373   2.415  24.508  0.00  0.00    +0.141 C 
ATOM     18  N   UNL     1      -0.645   1.643  24.611  0.00  0.00    -0.265 N 
ATOM     19  C   UNL     1      -0.211   1.009  24.311  0.00  0.00    +0.256 C 
ATOM     20  O   UNL     1      -0.484   0.237  24.413  0.00  0.00    -0.272 OA
ATOM     27  N   UNL     1      -0.677   3.864  24.792  0.00  0.00    -0.225 NA
ATOM     28  C   UNL     1      -1.304   4.229  25.185  0.00  0.00    +0.198 A 
ATOM     29  N   UNL     1      -1.821   3.640  25.444  0.00  0.00    -0.227 NA
ENDROOT
BRANCH  13  11
ATOM      8  C   UNL     1      -2.318  -0.398  24.970  0.00  0.00    +0.203 A 
ATOM      9  N   UNL     1      -1.769  -0.512  25.576  0.00  0.00    -0.056 NA
ATOM     10  O   UNL     1      -1.340   0.188  25.665  0.00  0.00    -0.335 OA
ATOM     11  C   UNL     1      -1.624   0.732  25.115  0.00  0.00    +0.255 A 
ATOM     12  N   UNL     1      -2.228   0.371  24.686  0.00  0.00    -0.189 NA
BRANCH   8   5
ATOM      1  C   UNL     1      -4.490  -2.631  23.879  0.00  0.00    +0.031 C 
ATOM      2  C   UNL     1      -3.946  -2.073  24.152  0.00  0.00    -0.022 A 
ATOM      3  C   UNL     1      -4.093  -1.268  24.043  0.00  0.00    -0.004 A 
ATOM      4  C   UNL     1      -3.549  -0.709  24.316  0.00  0.00    +0.003 A 
ATOM      5  C   UNL     1      -2.861  -0.957  24.697  0.00  0.00    +0.039 A 
ATOM      6  C   UNL     1      -2.715  -1.761  24.806  0.00  0.00    +0.003 A 
ATOM      7  C   UNL     1      -3.258  -2.319  24.534  0.00  0.00    -0.004 A 
ENDBRANCH   8   5
ENDBRANCH  13  11
BRANCH  19  21
ATOM     21  C   UNL     1       0.496   1.147  23.908  0.00  0.00    +0.228 C 
BRANCH  21  22
ATOM     22  O   UNL     1       0.838   0.547  23.458  0.00  0.00    -0.333 OA
BRANCH  22  23
ATOM     23  C   UNL     1       1.579   0.660  23.114  0.00  0.00    +0.257 C 
BRANCH  23  24
ATOM     24  C   UNL     1       1.901   0.078  22.626  0.00  0.00    +0.394 C 
ATOM     25  O   UNL     1       1.466  -0.214  21.989  0.00  0.00    -0.243 OA
ATOM     26  O   UNL     1       2.660  -0.212  22.776  0.00  0.00    -0.243 OA
ENDBRANCH  23  24
ENDBRANCH  22  23
ENDBRANCH  21  22
ENDBRANCH  19  21
TORSDOF 6
ENDMDL
MODEL 5
REMARK VINA RESULT:     -10.1      1.677      4.303
REMARK  Name = 
REMARK  6 active torsions:
REMARK  status: ('A' for Active; 'I' for Inactive)
REMARK    1  A    between atoms: C_5  and  C_8
REMARK    2  A    between atoms: C_11  and  C_13
REMARK    3  A    between atoms: C_19  and  C_21
REMARK    4  A    between atoms: C_21  and  O_22
REMARK    5  A    between atoms: O_22  and  C_23
REMARK    6  A    between atoms: C_23  and  C_24
REMARK                            x       y       z     vdW  Elec       q    Type
REMARK                         _______ _______ _______ _____ _____    ______ ____
ROOT
ATOM     13  C   UNL     1      -3.245  -0.462  24.312  0.00  0.00    +0.161 C 
ATOM     14  C   UNL     1      -3.807  -1.065  24.362  0.00  0.00    +0.077 C 
ATOM     15  C   UNL     1      -3.564  -1.845  24.474  0.00  0.00    +0.078 A 
ATOM     16  C   UNL     1      -2.760  -2.023  24.538  0.00  0.00    +0.094 A 
ATOM     17  C   UNL     1      -2.200  -1.420  24.489  0.00  0.00    +0.141 C 
ATOM     18  N   UNL     1      -2.442  -0.639  24.376  0.00  0.00    -0.265 N 
ATOM     19  C   UNL     1      -1.882  -0.037  24.326  0.00  0.00    +0.256 C 
ATOM     20  O   UNL     1      -2.125   0.744  24.213  0.00  0.00    -0.272 OA
ATOM     27  N   UNL     1      -2.688  -2.838  24.647  0.00  0.00    -0.225 NA
ATOM     28  C   UNL     1      -3.446  -3.164  24.651  0.00  0.00    +0.198 A 
ATOM     29  N   UNL     1      -3.987  -2.550  24.544  0.00  0.00    -0.227 NA
ENDROOT
BRANCH  13  11
ATOM      8  C   UNL     1      -4.044   1.516  24.394  0.00  0.00    +0.203 A 
ATOM      9  N   UNL     1      -3.676   1.523  23.656  0.00  0.00    -0.056 NA
ATOM     10  O   UNL     1      -3.332   0.783  23.535  0.00  0.00    -0.335 OA
ATOM     11  C   UNL     1      -3.488   0.319  24.199  0.00  0.00    +0.255 A 
ATOM     12  N   UNL     1      -3.927   0.771  24.730  0.00  0.00    -0.189 NA
BRANCH   8   5
ATOM      1  C   UNL     1      -5.693   4.026  25.763  0.00  0.00    +0.031 C 
ATOM      2  C   UNL     1      -5.280   3.398  25.421  0.00  0.00    -0.022 A 
ATOM      3  C   UNL     1      -5.635   2.655  25.362  0.00  0.00    -0.004 A 
ATOM      4  C   UNL     1      -5.223   2.028  25.019  0.00  0.00    +0.003 A 
ATOM      5  C   UNL     1      -4.457   2.144  24.737  0.00  0.00    +0.039 A 
ATOM      6  C   UNL     1      -4.102   2.886  24.796  0.00  0.00    +0.003 A 
ATOM      7  C   UNL     1      -4.514   3.513  25.138  0.00  0.00    -0.004 A 
ENDBRANCH   8   5
ENDBRANCH  13  11
BRANCH  19  21
ATOM     21  C   UNL     1      -1.078  -0.214  24.390  0.00  0.00    +0.228 C 
BRANCH  21  22
ATOM     22  O   UNL     1      -0.522   0.242  23.987  0.00  0.00    -0.333 OA
BRANCH  22  23
ATOM     23  C   UNL     1       0.273   0.023  23.992  0.00  0.00    +0.257 C 
BRANCH  23  24
ATOM     24  C   UNL     1       0.803   0.379  23.470  0.00  0.00    +0.394 C 
ATOM     25  O   UNL     1       1.075  -0.035  22.810  0.00  0.00    -0.243 OA
ATOM     26  O   UNL     1       1.062   1.151  23.608  0.00  0.00    -0.243 OA
ENDBRANCH  23  24
ENDBRANCH  22  23
ENDBRANCH  21  22
ENDBRANCH  19  21
TORSDOF 6
ENDMDL
MODEL 6
REMARK VINA RESULT:      -9.7      2.198      3.577
REMARK  Name = 
REMARK  6 active torsions:
REMARK  status: ('A' for Active; 'I' for Inactive)
REMARK    1  A    between atoms: C_5  and  C_8
REMARK    2  A    between atoms: C_11  and  C_13
REMARK    3  A    between atoms: C_19  and  C_21
REMARK    4  A    between atoms: C_21  and  O_22
REMARK    5  A    between atoms: O_22  and  C_23
REMARK    6  A    between atoms: C_23  and  C_24
REMARK                            x       y       z     vdW  Elec       q    Type
REMARK                         _______ _______ _______ _____ _____    ______ ____
ROOT
ATOM     13  C   UNL     1      -1.822   2.867  24.678  0.00  0.00    +0.161 C 
ATOM     14  C   UNL     1      -1.141   3.330  24.628  0.00  0.00    +0.077 C 
ATOM     15  C   UNL     1      -1.172   4.131  24.827  0.00  0.00    +0.078 A 
ATOM     16  C   UNL     1      -1.884   4.467  25.075  0.00  0.00    +0.094 A 
ATOM     17  C   UNL     1      -2.564   4.002  25.125  0.00  0.00    +0.141 C 
ATOM     18  N   UNL     1      -2.533   3.202  24.926  0.00  0.00    -0.265 N 
ATOM     19  C   UNL     1      -3.212   2.739  24.976  0.00  0.00    +0.256 C 
ATOM     20  O   UNL     1      -3.181   1.937  24.778  0.00  0.00    -0.272 OA
ATOM     27  N   UNL     1      -1.747   5.265  25.233  0.00  0.00    -0.225 NA
ATOM     28  C   UNL     1      -0.951   5.422  25.083  0.00  0.00    +0.198 A 
ATOM     29  N   UNL     1      -0.596   4.721  24.831  0.00  0.00    -0.227 NA
ENDROOT
BRANCH  13  11
ATOM      8  C   UNL     1      -1.504   0.763  24.503  0.00  0.00    +0.203 A 
ATOM      9  N   UNL     1      -1.982   0.907  23.846  0.00  0.00    -0.056 NA
ATOM     10  O   UNL     1      -2.159   1.713  23.831  0.00  0.00    -0.335 OA
ATOM     11  C   UNL     1      -1.791   2.065  24.480  0.00  0.00    +0.255 A 
ATOM     12  N   UNL     1      -1.386   1.479  24.895  0.00  0.00    -0.189 NA
BRANCH   8   5
ATOM      1  C   UNL     1      -0.282  -2.167  25.406  0.00  0.00    +0.031 C 
ATOM      2  C   UNL     1      -0.588  -1.434  25.181  0.00  0.00    -0.022 A 
ATOM      3  C   UNL     1      -0.295  -1.055  24.509  0.00  0.00    -0.004 A 
ATOM      4  C   UNL     1      -0.601  -0.322  24.283  0.00  0.00    +0.003 A 
ATOM      5  C   UNL     1      -1.198   0.030  24.729  0.00  0.00    +0.039 A 
ATOM      6  C   UNL     1      -1.491  -0.349  25.400  0.00  0.00    +0.003 A 
ATOM      7  C   UNL     1      -1.186  -1.082  25.625  0.00  0.00    -0.004 A 
ENDBRANCH   8   5
ENDBRANCH  13  11
BRANCH  19  21
ATOM     21  C   UNL     1      -3.924   3.074  25.225  0.00  0.00    +0.228 C 
BRANCH  21  22
ATOM     22  O   UNL     1      -4.573   2.592  25.388  0.00  0.00    -0.333 OA
BRANCH  22  23
ATOM     23  C   UNL     1      -5.309   2.930  25.549  0.00  0.00    +0.257 C 
BRANCH  23  24
ATOM     24  C   UNL     1      -5.937   2.455  25.793  0.00  0.00    +0.394 C 
ATOM     25  O   UNL     1      -6.365   2.019  25.238  0.00  0.00    -0.243 OA
ATOM     26  O   UNL     1      -6.138   2.415  26.593  0.00  0.00    -0.243 OA
ENDBRANCH  23  24
ENDBRANCH  22  23
ENDBRANCH  21  22
ENDBRANCH  19  21
TORSDOF 6
ENDMDL
MODEL 7
REMARK VINA RESULT:      -9.6      2.685      5.761
REMARK  Name = 
REMARK  6 active torsions:
REMARK  status: ('A' for Active; 'I' for Inactive)
REMARK    1  A    between atoms: C_5  and  C_8
REMARK    2  A    between atoms: C_11  and  C_13
REMARK    3  A    between atoms: C_19  and  C_21
REMARK    4  A    between atoms: C_21  and  O_22
REMARK    5  A    between atoms: O_22  and  C_23
REMARK    6  A    between atoms: C_23  and  C_24
REMARK                            x       y       z     vdW  Elec       q    Type
REMARK                         _______ _______ _______ _____ _____    ______ ____
ROOT
ATOM     13  C   UNL     1       0.012   1.045  24.357  0.00  0.00    +0.161 C 
ATOM     14  C   UNL     1       0.676   1.154  23.879  0.00  0.00    +0.077 C 
ATOM     15  C   UNL     1       0.942   0.540  23.396  0.00  0.00    +0.078 A 
ATOM     16  C   UNL     1       0.543  -0.183  23.392  0.00  0.00    +0.094 A 
ATOM     17  C   UNL     1      -0.120  -0.291  23.870  0.00  0.00    +0.141 C 
ATOM     18  N   UNL     1      -0.386   0.323  24.352  0.00  0.00    -0.265 N 
ATOM     19  C   UNL     1      -1.049   0.215  24.830  0.00  0.00    +0.256 C 
ATOM     20  O   UNL     1      -1.315   0.829  25.313  0.00  0.00    -0.272 OA
ATOM     27  N   UNL     1       0.931  -0.684  22.863  0.00  0.00    -0.225 NA
ATOM     28  C   UNL     1       1.569  -0.271  22.540  0.00  0.00    +0.198 A 
ATOM     29  N   UNL     1       1.575   0.486  22.870  0.00  0.00    -0.227 NA
ENDROOT
BRANCH  13  11
ATOM      8  C   UNL     1      -0.756   2.827  25.247  0.00  0.00    +0.203 A 
ATOM      9  N   UNL     1      -0.569   2.382  25.917  0.00  0.00    -0.056 NA
ATOM     10  O   UNL     1      -0.259   1.660  25.664  0.00  0.00    -0.335 OA
ATOM     11  C   UNL     1      -0.254   1.660  24.840  0.00  0.00    +0.255 A 
ATOM     12  N   UNL     1      -0.561   2.380  24.582  0.00  0.00    -0.189 NA
BRANCH   8   5
ATOM      1  C   UNL     1      -2.056   5.861  25.237  0.00  0.00    +0.031 C 
ATOM      2  C   UNL     1      -1.731   5.102  25.240  0.00  0.00    -0.022 A 
ATOM      3  C   UNL     1      -0.981   4.973  24.918  0.00  0.00    -0.004 A 
ATOM      4  C   UNL     1      -0.657   4.214  24.921  0.00  0.00    +0.003 A 
ATOM      5  C   UNL     1      -1.081   3.586  25.245  0.00  0.00    +0.039 A 
ATOM      6  C   UNL     1      -1.829   3.714  25.566  0.00  0.00    +0.003 A 
ATOM      7  C   UNL     1      -2.154   4.473  25.563  0.00  0.00    -0.004 A 
ENDBRANCH   8   5
ENDBRANCH  13  11
BRANCH  19  21
ATOM     21  C   UNL     1      -1.447  -0.508  24.826  0.00  0.00    +0.228 C 
BRANCH  21  22
ATOM     22  O   UNL     1      -2.211  -0.560  25.132  0.00  0.00    -0.333 OA
BRANCH  22  23
ATOM     23  C   UNL     1      -2.599  -1.288  25.152  0.00  0.00    +0.257 C 
BRANCH  23  24
ATOM     24  C   UNL     1      -3.392  -1.327  25.374  0.00  0.00    +0.394 C 
ATOM     25  O   UNL     1      -3.981  -1.378  24.798  0.00  0.00    -0.243 OA
ATOM     26  O   UNL     1      -3.598  -1.315  26.174  0.00  0.00    -0.243 OA
ENDBRANCH  23  24
ENDBRANCH  22  23
ENDBRANCH  21  22
ENDBRANCH  19  21
TORSDOF 6
ENDMDL
MODEL 8
REMARK VINA RESULT:      -9.5      2.007      4.798
REMARK  Name = 
REMARK  6 active torsions:
REMARK  status: ('A' for Active; 'I' for Inactive)
REMARK    1  A    between atoms: C_5  and  C_8
REMARK    2  A    between atoms: C_11  and  C_13
REMARK    3  A    between atoms: C_19  and  C_21
REMARK    4  A    between atoms: C_21  and  O_22
REMARK    5  A    between atoms: O_22  and  C_23
REMARK    6  A    between atoms: C_23  and  C_24
REMARK                            x       y       z     vdW  Elec       q    Type
REMARK                         _______ _______ _______ _____ _____    ______ ____
ROOT
ATOM     13  C   UNL     1      -1.807   1.297  24.063  0.00  0.00    +0.161 C 
ATOM     14  C   UNL     1      -1.169   1.814  23.986  0.00  0.00    +0.077 C 
ATOM     15  C   UNL     1      -0.397   1.527  24.040  0.00  0.00    +0.078 A 
ATOM     16  C   UNL     1      -0.264   0.723  24.171  0.00  0.00    +0.094 A 
ATOM     17  C   UNL     1      -0.903   0.207  24.247  0.00  0.00    +0.141 C 
ATOM     18  N   UNL     1      -1.675   0.494  24.193  0.00  0.00    -0.265 N 
ATOM     19  C   UNL     1      -2.313  -0.022  24.269  0.00  0.00    +0.256 C 
ATOM     20  O   UNL     1      -3.085   0.265  24.215  0.00  0.00    -0.272 OA
ATOM     27  N   UNL     1       0.551   0.601  24.198  0.00  0.00    -0.225 NA
ATOM     28  C   UNL     1       0.922   1.330  24.085  0.00  0.00    +0.198 A 
ATOM     29  N   UNL     1       0.336   1.902  23.987  0.00  0.00    -0.227 NA
ENDROOT
BRANCH  13  11
ATOM      8  C   UNL     1      -3.728   2.199  24.298  0.00  0.00    +0.203 A 
ATOM      9  N   UNL     1      -3.805   1.853  23.552  0.00  0.00    -0.056 NA
ATOM     10  O   UNL     1      -3.094   1.473  23.373  0.00  0.00    -0.335 OA
ATOM     11  C   UNL     1      -2.580   1.585  24.009  0.00  0.00    +0.255 A 
ATOM     12  N   UNL     1      -2.971   2.033  24.579  0.00  0.00    -0.189 NA
BRANCH   8   5
ATOM      1  C   UNL     1      -6.046   3.942  25.874  0.00  0.00    +0.031 C 
ATOM      2  C   UNL     1      -5.466   3.506  25.480  0.00  0.00    -0.022 A 
ATOM      3  C   UNL     1      -5.597   2.710  25.304  0.00  0.00    -0.004 A 
ATOM      4  C   UNL     1      -5.018   2.275  24.909  0.00  0.00    +0.003 A 
ATOM      5  C   UNL     1      -4.308   2.635  24.692  0.00  0.00    +0.039 A 
ATOM      6  C   UNL     1      -4.177   3.429  24.868  0.00  0.00    +0.003 A 
ATOM      7  C   UNL     1      -4.757   3.865  25.262  0.00  0.00    -0.004 A 
ENDBRANCH   8   5
ENDBRANCH  13  11
BRANCH  19  21
ATOM     21  C   UNL     1      -2.181  -0.826  24.400  0.00  0.00    +0.228 C 
BRANCH  21  22
ATOM     22  O   UNL     1      -2.819  -1.339  24.500  0.00  0.00    -0.333 OA
BRANCH  22  23
ATOM     23  C   UNL     1      -2.688  -2.148  24.593  0.00  0.00    +0.257 C 
BRANCH  23  24
ATOM     24  C   UNL     1      -3.319  -2.652  24.758  0.00  0.00    +0.394 C 
ATOM     25  O   UNL     1      -3.777  -2.955  24.143  0.00  0.00    -0.243 OA
ATOM     26  O   UNL     1      -3.493  -2.854  25.540  0.00  0.00    -0.243 OA
ENDBRANCH  23  24
ENDBRANCH  22  23
ENDBRANCH  21  22
ENDBRANCH  19  21
TORSDOF 6
ENDMDL
MODEL 9
REMARK VINA RESULT:      -9.4      2.256      3.694
REMARK  Name = 
REMARK  6 active torsions:
REMARK  status: ('A' for Active; 'I' for Inactive)
REMARK    1  A    between atoms: C_5  and  C_8
REMARK    2  A    between atoms: C_11  and  C_13
REMARK    3  A    between atoms: C_19  and  C_21
REMARK    4  A    between atoms: C_21  and  O_22
REMARK    5  A    between atoms: O_22  and  C_23
REMARK    6  A    between atoms: C_23  and  C_24
REMARK                            x       y       z     vdW  Elec       q    Type
REMARK                         _______ _______ _______ _____ _____    ______ ____
ROOT
ATOM     13  C   UNL     1      -0.624   0.429  24.542  0.00  0.00    +0.161 C 
ATOM     14  C   UNL     1      -0.027   0.087  24.085  0.00  0.00    +0.077 C 
ATOM     15  C   UNL     1       0.612   0.544  23.833  0.00  0.00    +0.078 A 
ATOM     16  C   UNL     1       0.654   1.343  24.038  0.00  0.00    +0.094 A 
ATOM     17  C   UNL     1       0.057   1.683  24.494  0.00  0.00    +0.141 C 
ATOM     18  N   UNL     1      -0.582   1.226  24.746  0.00  0.00    -0.265 N 
ATOM     19  C   UNL     1      -1.178   1.567  25.202  0.00  0.00    +0.256 C 
ATOM     20  O   UNL     1      -1.817   1.110  25.454  0.00  0.00    -0.272 OA
ATOM     27  N   UNL     1       1.346   1.653  23.712  0.00  0.00    -0.225 NA
ATOM     28  C   UNL     1       1.731   1.046  23.306  0.00  0.00    +0.198 A 
ATOM     29  N   UNL     1       1.277   0.361  23.382  0.00  0.00    -0.227 NA
ENDROOT
BRANCH  13  11
ATOM      8  C   UNL     1      -2.333  -0.826  24.790  0.00  0.00    +0.203 A 
ATOM      9  N   UNL     1      -2.159  -0.638  25.574  0.00  0.00    -0.056 NA
ATOM     10  O   UNL     1      -1.497  -0.145  25.577  0.00  0.00    -0.335 OA
ATOM     11  C   UNL     1      -1.263  -0.029  24.794  0.00  0.00    +0.255 A 
ATOM     12  N   UNL     1      -1.779  -0.449  24.308  0.00  0.00    -0.189 NA
BRANCH   8   5
ATOM      1  C   UNL     1      -4.811  -2.749  23.764  0.00  0.00    +0.031 C 
ATOM      2  C   UNL     1      -4.191  -2.268  24.020  0.00  0.00    -0.022 A 
ATOM      3  C   UNL     1      -4.254  -1.448  23.959  0.00  0.00    -0.004 A 
ATOM      4  C   UNL     1      -3.634  -0.967  24.216  0.00  0.00    +0.003 A 
ATOM      5  C   UNL     1      -2.953  -1.307  24.533  0.00  0.00    +0.039 A 
ATOM      6  C   UNL     1      -2.890  -2.127  24.594  0.00  0.00    +0.003 A 
ATOM      7  C   UNL     1      -3.510  -2.608  24.338  0.00  0.00    -0.004 A 
ENDBRANCH   8   5
ENDBRANCH  13  11
BRANCH  19  21
ATOM     21  C   UNL     1      -1.136   2.366  25.406  0.00  0.00    +0.228 C 
BRANCH  21  22
ATOM     22  O   UNL     1      -1.828   2.800  25.519  0.00  0.00    -0.333 OA
BRANCH  22  23
ATOM     23  C   UNL     1      -1.792   3.561  25.836  0.00  0.00    +0.257 C 
BRANCH  23  24
ATOM     24  C   UNL     1      -2.424   4.080  25.737  0.00  0.00    +0.394 C 
ATOM     25  O   UNL     1      -2.464   4.561  25.068  0.00  0.00    -0.243 OA
ATOM     26  O   UNL     1      -3.020   4.118  26.309  0.00  0.00    -0.243 OA
ENDBRANCH  23  24
ENDBRANCH  22  23
ENDBRANCH  21  22
ENDBRANCH  19  21
TORSDOF 6
ENDMDL
MODEL 10
REMARK VINA RESULT:      -8.6      1.429      4.158
REMARK  Name = 
REMARK  6 active torsions:
REMARK  status: ('A' for Active; 'I' for Inactive)
REMARK    1  A    between atoms: C_5  and  C_8
REMARK    2  A    between atoms: C_11  and  C_13
REMARK    3  A    between atoms: C_19  and  C_21
REMARK    4  A    between atoms: C_21  and  O_22
REMARK    5  A    between atoms: O_22  and  C_23
REMARK    6  A    between atoms: C_23  and  C_24
REMARK                            x       y       z     vdW  Elec       q    Type
REMARK                         _______ _______ _______ _____ _____    ______ ____
ROOT
ATOM     13  C   UNL     1      -3.994   1.744  24.734  0.00  0.00    +0.161 C 
ATOM     14  C   UNL     1      -4.493   2.369  24.938  0.00  0.00    +0.077 C 
ATOM     15  C   UNL     1      -5.304   2.239  25.021  0.00  0.00    +0.078 A 
ATOM     16  C   UNL     1      -5.615   1.484  24.900  0.00  0.00    +0.094 A 
ATOM     17  C   UNL     1      -5.115   0.860  24.696  0.00  0.00    +0.141 C 
ATOM     18  N   UNL     1      -4.305   0.990  24.613  0.00  0.00    -0.265 N 
ATOM     19  C   UNL     1      -3.806   0.366  24.410  0.00  0.00    +0.256 C 
ATOM     20  O   UNL     1      -2.995   0.496  24.327  0.00  0.00    -0.272 OA
ATOM     27  N   UNL     1      -6.431   1.522  25.020  0.00  0.00    -0.225 NA
ATOM     28  C   UNL     1      -6.623   2.301  25.215  0.00  0.00    +0.198 A 
ATOM     29  N   UNL     1      -5.927   2.743  25.215  0.00  0.00    -0.227 NA
ENDROOT
BRANCH  13  11
ATOM      8  C   UNL     1      -1.901   2.118  24.932  0.00  0.00    +0.203 A 
ATOM      9  N   UNL     1      -1.971   2.030  24.115  0.00  0.00    -0.056 NA
ATOM     10  O   UNL     1      -2.763   1.880  23.941  0.00  0.00    -0.335 OA
ATOM     11  C   UNL     1      -3.183   1.874  24.651  0.00  0.00    +0.255 A 
ATOM     12  N   UNL     1      -2.651   2.021  25.264  0.00  0.00    -0.189 NA
BRANCH   8   5
ATOM      1  C   UNL     1       0.886   2.744  26.585  0.00  0.00    +0.031 C 
ATOM      2  C   UNL     1       0.189   2.587  26.171  0.00  0.00    -0.022 A 
ATOM      3  C   UNL     1      -0.509   2.978  26.377  0.00  0.00    -0.004 A 
ATOM      4  C   UNL     1      -1.206   2.821  25.963  0.00  0.00    +0.003 A 
ATOM      5  C   UNL     1      -1.204   2.275  25.346  0.00  0.00    +0.039 A 
ATOM      6  C   UNL     1      -0.508   1.885  25.141  0.00  0.00    +0.003 A 
ATOM      7  C   UNL     1       0.189   2.041  25.554  0.00  0.00    -0.004 A 
ENDBRANCH   8   5
ENDBRANCH  13  11
BRANCH  19  21
ATOM     21  C   UNL     1      -4.117  -0.389  24.289  0.00  0.00    +0.228 C 
BRANCH  21  22
ATOM     22  O   UNL     1      -3.636  -1.053  24.380  0.00  0.00    -0.333 OA
BRANCH  22  23
ATOM     23  C   UNL     1      -3.950  -1.808  24.271  0.00  0.00    +0.257 C 
BRANCH  23  24
ATOM     24  C   UNL     1      -3.526  -2.471  24.517  0.00  0.00    +0.394 C 
ATOM     25  O   UNL     1      -3.533  -2.694  25.312  0.00  0.00    -0.243 OA
ATOM     26  O   UNL     1      -3.094  -2.912  23.969  0.00  0.00    -0.243 OA
ENDBRANCH  23  24
ENDBRANCH  22  23
ENDBRANCH  21  22
ENDBRANCH  19  21
TORSDOF 6
ENDMDL
