MODEL 1
REMARK VINA RESULT:     -10.5      0.000      0.000
REMARK  Name = 
REMARK  7 active torsions:
REMARK  status: ('A' for Active; 'I' for Inactive)
REMARK    1  A    between atoms: C_3  and  N_18
REMARK    2  A    between atoms: C_6  and  C_7
REMARK    3  A    between atoms: C_7  and  N_8
REMARK    4  A    between atoms: C_9  and  C_11
REMARK    5  A    between atoms: N_18  and  C_19
REMARK    6  A    between atoms: C_19  and  C_20
REMARK    7  A    between atoms: C_24  and  C_26
REMARK                            x       y       z     vdW  Elec       q    Type
REMARK                         _______ _______ _______ _____ _____    ______ ____
ROOT
ATOM      1  O   UNL     1      -4.091   1.074  25.744  0.00  0.00    -0.219 OA
ATOM      2  C   UNL     1      -3.974   1.248  24.946  0.00  0.00    +0.199 C 
ATOM      3  C   UNL     1      -4.031   0.715  24.320  0.00  0.00    +0.135 C 
ATOM      4  C   UNL     1      -3.872   1.123  23.622  0.00  0.00    +0.162 C 
ATOM      5  O   UNL     1      -3.717   1.909  23.816  0.00  0.00    -0.350 OA
ATOM      6  C   UNL     1      -3.781   1.987  24.634  0.00  0.00    +0.169 C 
ENDROOT
BRANCH   6   7
ATOM      7  C   UNL     1      -3.670   2.681  25.066  0.00  0.00    +0.148 C 
BRANCH   7   8
ATOM      8  N   UNL     1      -3.009   3.154  24.925  0.00  0.00    -0.199 NA
ATOM      9  C   UNL     1      -2.837   3.785  25.428  0.00  0.00    +0.265 C 
ATOM     10  O   UNL     1      -3.328   3.944  26.072  0.00  0.00    -0.268 OA
BRANCH   9  11
ATOM     11  C   UNL     1      -2.176   4.258  25.286  0.00  0.00    +0.055 A 
ATOM     12  C   UNL     1      -1.425   3.917  25.254  0.00  0.00    +0.007 A 
ATOM     13  C   UNL     1      -0.764   4.390  25.112  0.00  0.00    +0.030 A 
ATOM     14  C   UNL     1      -0.854   5.203  25.003  0.00  0.00    +0.140 A 
ATOM     15  F   UNL     1      -0.193   5.676  24.861  0.00  0.00    -0.204 F 
ATOM     16  C   UNL     1      -1.605   5.544  25.035  0.00  0.00    +0.030 A 
ATOM     17  C   UNL     1      -2.266   5.070  25.176  0.00  0.00    +0.007 A 
ENDBRANCH   9  11
ENDBRANCH   7   8
ENDBRANCH   6   7
BRANCH   3  18
ATOM     18  N   UNL     1      -4.214  -0.088  24.381  0.00  0.00    -0.209 NA
BRANCH  18  19
ATOM     19  C   UNL     1      -3.969  -0.613  23.794  0.00  0.00    +0.115 C 
BRANCH  19  20
ATOM     20  C   UNL     1      -3.781  -1.392  23.989  0.00  0.00    -0.004 A 
ATOM     21  C   UNL     1      -4.358  -1.980  23.943  0.00  0.00    -0.003 A 
ATOM     22  C   UNL     1      -4.170  -2.759  24.139  0.00  0.00    +0.000 A 
ATOM     23  C   UNL     1      -3.405  -2.951  24.380  0.00  0.00    +0.010 A 
ATOM     24  C   UNL     1      -2.828  -2.363  24.426  0.00  0.00    +0.068 A 
ATOM     25  C   UNL     1      -3.016  -1.584  24.231  0.00  0.00    +0.007 A 
BRANCH  24  26
ATOM     26  C   UNL     1      -2.062  -2.555  24.668  0.00  0.00    +0.100 C 
ATOM     27  N   UNL     1      -1.297  -2.746  24.909  0.00  0.00    -0.191 NA
ENDBRANCH  24  26
ENDBRANCH  19  20
ENDBRANCH  18  19
ENDBRANCH   3  18
TORSDOF 7
ENDMDL
MODEL 2
REMARK VINA RESULT:     -10.3      2.764      6.314
REMARK  Name = 
REMARK  7 active torsions:
REMARK  status: ('A' for Active; 'I' for Inactive)
REMARK    1  A    between atoms: C_3  and  N_18
REMARK    2  A    between atoms: C_6  and  C_7
REMARK    3  A    between atoms: C_7  and  N_8
REMARK    4  A    between atoms: C_9  and  C_11
REMARK    5  A    between atoms: N_18  and  C_19
REMARK    6  A    between atoms: C_19  and  C_20
REMARK    7  A    between atoms: C_24  and  C_26
REMARK                            x       y       z     vdW  Elec       q    Type
REMARK                         _______ _______ _______ _____ _____    ______ ____
ROOT
ATOM      1  O   UNL     1      -0.761   0.985  25.881  0.00  0.00    -0.219 OA
ATOM      2  C   UNL     1      -0.567   0.964  25.080  0.00  0.00    +0.199 C 
ATOM      3  C   UNL     1      -0.404   1.617  24.603  0.00  0.00    +0.135 C 
ATOM      4  C   UNL     1      -0.239   1.343  23.843  0.00  0.00    +0.162 C 
ATOM      5  O   UNL     1      -0.299   0.521  23.850  0.00  0.00    -0.350 OA
ATOM      6  C   UNL     1      -0.502   0.287  24.614  0.00  0.00    +0.169 C 
ENDROOT
BRANCH   6   7
ATOM      7  C   UNL     1      -0.620  -0.490  24.868  0.00  0.00    +0.148 C 
BRANCH   7   8
ATOM      8  N   UNL     1      -1.330  -0.875  24.703  0.00  0.00    -0.199 NA
ATOM      9  C   UNL     1      -1.437  -1.660  24.934  0.00  0.00    +0.265 C 
ATOM     10  O   UNL     1      -0.833  -2.059  25.329  0.00  0.00    -0.268 OA
BRANCH   9  11
ATOM     11  C   UNL     1      -2.148  -2.045  24.768  0.00  0.00    +0.055 A 
ATOM     12  C   UNL     1      -2.162  -2.672  24.232  0.00  0.00    +0.007 A 
ATOM     13  C   UNL     1      -2.872  -3.058  24.067  0.00  0.00    +0.030 A 
ATOM     14  C   UNL     1      -3.569  -2.815  24.438  0.00  0.00    +0.140 A 
ATOM     15  F   UNL     1      -4.279  -3.201  24.272  0.00  0.00    -0.204 F 
ATOM     16  C   UNL     1      -3.555  -2.188  24.974  0.00  0.00    +0.030 A 
ATOM     17  C   UNL     1      -2.843  -1.803  25.139  0.00  0.00    +0.007 A 
ENDBRANCH   9  11
ENDBRANCH   7   8
ENDBRANCH   6   7
BRANCH   3  18
ATOM     18  N   UNL     1      -0.407   2.407  24.844  0.00  0.00    -0.209 NA
BRANCH  18  19
ATOM     19  C   UNL     1      -0.736   2.986  24.358  0.00  0.00    +0.115 C 
BRANCH  19  20
ATOM     20  C   UNL     1      -1.019   3.688  24.686  0.00  0.00    -0.004 A 
ATOM     21  C   UNL     1      -0.594   4.388  24.588  0.00  0.00    -0.003 A 
ATOM     22  C   UNL     1      -0.877   5.091  24.916  0.00  0.00    +0.000 A 
ATOM     23  C   UNL     1      -1.584   5.093  25.341  0.00  0.00    +0.010 A 
ATOM     24  C   UNL     1      -2.009   4.392  25.438  0.00  0.00    +0.068 A 
ATOM     25  C   UNL     1      -1.726   3.690  25.110  0.00  0.00    +0.007 A 
BRANCH  24  26
ATOM     26  C   UNL     1      -2.716   4.394  25.863  0.00  0.00    +0.100 C 
ATOM     27  N   UNL     1      -3.423   4.396  26.288  0.00  0.00    -0.191 NA
ENDBRANCH  24  26
ENDBRANCH  19  20
ENDBRANCH  18  19
ENDBRANCH   3  18
TORSDOF 7
ENDMDL
MODEL 3
REMARK VINA RESULT:      -9.7      2.117      5.718
REMARK  Name = 
REMARK  7 active torsions:
REMARK  status: ('A' for Active; 'I' for Inactive)
REMARK    1  A    between atoms: C_3  and  N_18
REMARK    2  A    between atoms: C_6  and  C_7
REMARK    3  A    between atoms: C_7  and  N_8
REMARK    4  A    between atoms: C_9  and  C_11
REMARK    5  A    between atoms: N_18  and  C_19
REMARK    6  A    between atoms: C_19  and  C_20
REMARK    7  A    between atoms: C_24  and  C_26
REMARK                            x       y       z     vdW  Elec       q    Type
REMARK                         _______ _______ _______ _____ _____    ______ ____
ROOT
ATOM      1  O   UNL     1      -3.511   1.995  23.737  0.00  0.00    -0.219 OA
ATOM      2  C   UNL     1      -3.923   2.109  24.443  0.00  0.00    +0.199 C 
ATOM      3  C   UNL     1      -3.864   2.767  24.937  0.00  0.00    +0.135 C 
ATOM      4  C   UNL     1      -4.370   2.650  25.578  0.00  0.00    +0.162 C 
ATOM      5  O   UNL     1      -4.741   1.921  25.479  0.00  0.00    -0.350 OA
ATOM      6  C   UNL     1      -4.465   1.587  24.778  0.00  0.00    +0.169 C 
ENDROOT
BRANCH   6   7
ATOM      7  C   UNL     1      -4.692   0.857  24.467  0.00  0.00    +0.148 C 
BRANCH   7   8
ATOM      8  N   UNL     1      -4.262   0.178  24.651  0.00  0.00    -0.199 NA
ATOM      9  C   UNL     1      -4.537  -0.563  24.413  0.00  0.00    +0.265 C 
ATOM     10  O   UNL     1      -5.243  -0.623  23.990  0.00  0.00    -0.268 OA
BRANCH   9  11
ATOM     11  C   UNL     1      -4.107  -1.242  24.597  0.00  0.00    +0.055 A 
ATOM     12  C   UNL     1      -3.743  -1.312  25.334  0.00  0.00    +0.007 A 
ATOM     13  C   UNL     1      -3.312  -1.991  25.518  0.00  0.00    +0.030 A 
ATOM     14  C   UNL     1      -3.246  -2.600  24.966  0.00  0.00    +0.140 A 
ATOM     15  F   UNL     1      -2.815  -3.279  25.150  0.00  0.00    -0.204 F 
ATOM     16  C   UNL     1      -3.610  -2.530  24.229  0.00  0.00    +0.030 A 
ATOM     17  C   UNL     1      -4.041  -1.850  24.045  0.00  0.00    +0.007 A 
ENDBRANCH   9  11
ENDBRANCH   7   8
ENDBRANCH   6   7
BRANCH   3  18
ATOM     18  N   UNL     1      -3.382   3.426  24.813  0.00  0.00    -0.209 NA
BRANCH  18  19
ATOM     19  C   UNL     1      -2.986   3.772  25.447  0.00  0.00    +0.115 C 
BRANCH  19  20
ATOM     20  C   UNL     1      -2.210   4.038  25.354  0.00  0.00    -0.004 A 
ATOM     21  C   UNL     1      -2.066   4.810  25.100  0.00  0.00    -0.003 A 
ATOM     22  C   UNL     1      -1.290   5.075  25.006  0.00  0.00    +0.000 A 
ATOM     23  C   UNL     1      -0.659   4.569  25.166  0.00  0.00    +0.010 A 
ATOM     24  C   UNL     1      -0.804   3.797  25.419  0.00  0.00    +0.068 A 
ATOM     25  C   UNL     1      -1.578   3.531  25.513  0.00  0.00    +0.007 A 
BRANCH  24  26
ATOM     26  C   UNL     1      -0.171   3.290  25.578  0.00  0.00    +0.100 C 
ATOM     27  N   UNL     1       0.461   2.785  25.738  0.00  0.00    -0.191 NA
ENDBRANCH  24  26
ENDBRANCH  19  20
ENDBRANCH  18  19
ENDBRANCH   3  18
TORSDOF 7
ENDMDL
MODEL 4
REMARK VINA RESULT:      -9.6      1.942      2.566
REMARK  Name = 
REMARK  7 active torsions:
REMARK  status: ('A' for Active; 'I' for Inactive)
REMARK    1  A    between atoms: C_3  and  N_18
REMARK    2  A    between atoms: C_6  and  C_7
REMARK    3  A    between atoms: C_7  and  N_8
REMARK    4  A    between atoms: C_9  and  C_11
REMARK    5  A    between atoms: N_18  and  C_19
REMARK    6  A    between atoms: C_19  and  C_20
REMARK    7  A    between atoms: C_24  and  C_26
REMARK                            x       y       z     vdW  Elec       q    Type
REMARK                         _______ _______ _______ _____ _____    ______ ____
ROOT
ATOM      1  O   UNL     1      -1.042   0.208  26.159  0.00  0.00    -0.219 OA
ATOM      2  C   UNL     1      -0.769   0.271  25.383  0.00  0.00    +0.199 C 
ATOM      3  C   UNL     1      -0.833  -0.307  24.798  0.00  0.00    +0.135 C 
ATOM      4  C   UNL     1      -0.487  -0.012  24.110  0.00  0.00    +0.162 C 
ATOM      5  O   UNL     1      -0.209   0.747  24.270  0.00  0.00    -0.350 OA
ATOM      6  C   UNL     1      -0.383   0.922  25.057  0.00  0.00    +0.169 C 
ENDROOT
BRANCH   6   7
ATOM      7  C   UNL     1      -0.202   1.625  25.448  0.00  0.00    +0.148 C 
BRANCH   7   8
ATOM      8  N   UNL     1      -0.597   2.322  25.250  0.00  0.00    -0.199 NA
ATOM      9  C   UNL     1      -0.417   3.025  25.642  0.00  0.00    +0.265 C 
ATOM     10  O   UNL     1       0.159   3.031  26.232  0.00  0.00    -0.268 OA
BRANCH   9  11
ATOM     11  C   UNL     1      -0.812   3.721  25.443  0.00  0.00    +0.055 A 
ATOM     12  C   UNL     1      -1.587   3.843  25.699  0.00  0.00    +0.007 A 
ATOM     13  C   UNL     1      -1.982   4.539  25.500  0.00  0.00    +0.030 A 
ATOM     14  C   UNL     1      -1.603   5.114  25.045  0.00  0.00    +0.140 A 
ATOM     15  F   UNL     1      -1.998   5.810  24.847  0.00  0.00    -0.204 F 
ATOM     16  C   UNL     1      -0.828   4.992  24.789  0.00  0.00    +0.030 A 
ATOM     17  C   UNL     1      -0.433   4.295  24.989  0.00  0.00    +0.007 A 
ENDBRANCH   9  11
ENDBRANCH   7   8
ENDBRANCH   6   7
BRANCH   3  18
ATOM     18  N   UNL     1      -1.183  -1.049  24.886  0.00  0.00    -0.209 NA
BRANCH  18  19
ATOM     19  C   UNL     1      -1.498  -1.437  24.229  0.00  0.00    +0.115 C 
BRANCH  19  20
ATOM     20  C   UNL     1      -2.164  -1.917  24.314  0.00  0.00    -0.004 A 
ATOM     21  C   UNL     1      -2.081  -2.695  24.575  0.00  0.00    -0.003 A 
ATOM     22  C   UNL     1      -2.746  -3.176  24.660  0.00  0.00    +0.000 A 
ATOM     23  C   UNL     1      -3.495  -2.878  24.483  0.00  0.00    +0.010 A 
ATOM     24  C   UNL     1      -3.578  -2.099  24.222  0.00  0.00    +0.068 A 
ATOM     25  C   UNL     1      -2.913  -1.619  24.137  0.00  0.00    +0.007 A 
BRANCH  24  26
ATOM     26  C   UNL     1      -4.327  -1.802  24.045  0.00  0.00    +0.100 C 
ATOM     27  N   UNL     1      -5.077  -1.505  23.869  0.00  0.00    -0.191 NA
ENDBRANCH  24  26
ENDBRANCH  19  20
ENDBRANCH  18  19
ENDBRANCH   3  18
TORSDOF 7
ENDMDL
MODEL 5
REMARK VINA RESULT:      -9.4      4.595      5.502
REMARK  Name = 
REMARK  7 active torsions:
REMARK  status: ('A' for Active; 'I' for Inactive)
REMARK    1  A    between atoms: C_3  and  N_18
REMARK    2  A    between atoms: C_6  and  C_7
REMARK    3  A    between atoms: C_7  and  N_8
REMARK    4  A    between atoms: C_9  and  C_11
REMARK    5  A    between atoms: N_18  and  C_19
REMARK    6  A    between atoms: C_19  and  C_20
REMARK    7  A    between atoms: C_24  and  C_26
REMARK                            x       y       z     vdW  Elec       q    Type
REMARK                         _______ _______ _______ _____ _____    ______ ____
ROOT
ATOM      1  O   UNL     1      -0.127  -1.056  23.232  0.00  0.00    -0.219 OA
ATOM      2  C   UNL     1      -0.024  -0.306  23.562  0.00  0.00    +0.199 C 
ATOM      3  C   UNL     1      -0.517   0.051  24.118  0.00  0.00    +0.135 C 
ATOM      4  C   UNL     1      -0.208   0.795  24.292  0.00  0.00    +0.162 C 
ATOM      5  O   UNL     1       0.476   0.898  23.844  0.00  0.00    -0.350 OA
ATOM      6  C   UNL     1       0.590   0.218  23.392  0.00  0.00    +0.169 C 
ENDROOT
BRANCH   6   7
ATOM      7  C   UNL     1       1.209   0.084  22.864  0.00  0.00    +0.148 C 
BRANCH   7   8
ATOM      8  N   UNL     1       1.991   0.168  23.114  0.00  0.00    -0.199 NA
ATOM      9  C   UNL     1       2.607   0.113  22.569  0.00  0.00    +0.265 C 
ATOM     10  O   UNL     1       2.442  -0.025  21.772  0.00  0.00    -0.268 OA
BRANCH   9  11
ATOM     11  C   UNL     1       3.389   0.197  22.819  0.00  0.00    +0.055 A 
ATOM     12  C   UNL     1       3.787   0.909  22.697  0.00  0.00    +0.007 A 
ATOM     13  C   UNL     1       4.568   0.992  22.948  0.00  0.00    +0.030 A 
ATOM     14  C   UNL     1       4.952   0.363  23.321  0.00  0.00    +0.140 A 
ATOM     15  F   UNL     1       5.733   0.447  23.571  0.00  0.00    -0.204 F 
ATOM     16  C   UNL     1       4.553  -0.349  23.443  0.00  0.00    +0.030 A 
ATOM     17  C   UNL     1       3.771  -0.432  23.191  0.00  0.00    +0.007 A 
ENDBRANCH   9  11
ENDBRANCH   7   8
ENDBRANCH   6   7
BRANCH   3  18
ATOM     18  N   UNL     1      -1.200  -0.279  24.443  0.00  0.00    -0.209 NA
BRANCH  18  19
ATOM     19  C   UNL     1      -1.667   0.164  24.959  0.00  0.00    +0.115 C 
BRANCH  19  20
ATOM     20  C   UNL     1      -2.432  -0.087  25.143  0.00  0.00    -0.004 A 
ATOM     21  C   UNL     1      -2.550  -0.820  25.502  0.00  0.00    -0.003 A 
ATOM     22  C   UNL     1      -3.314  -1.071  25.686  0.00  0.00    +0.000 A 
ATOM     23  C   UNL     1      -3.960  -0.589  25.510  0.00  0.00    +0.010 A 
ATOM     24  C   UNL     1      -3.841   0.145  25.151  0.00  0.00    +0.068 A 
ATOM     25  C   UNL     1      -3.077   0.396  24.967  0.00  0.00    +0.007 A 
BRANCH  24  26
ATOM     26  C   UNL     1      -4.488   0.627  24.976  0.00  0.00    +0.100 C 
ATOM     27  N   UNL     1      -5.134   1.109  24.800  0.00  0.00    -0.191 NA
ENDBRANCH  24  26
ENDBRANCH  19  20
ENDBRANCH  18  19
ENDBRANCH   3  18
TORSDOF 7
ENDMDL
MODEL 6
REMARK VINA RESULT:      -9.0      4.791      6.329
REMARK  Name = 
REMARK  7 active torsions:
REMARK  status: ('A' for Active; 'I' for Inactive)
REMARK    1  A    between atoms: C_3  and  N_18
REMARK    2  A    between atoms: C_6  and  C_7
REMARK    3  A    between atoms: C_7  and  N_8
REMARK    4  A    between atoms: C_9  and  C_11
REMARK    5  A    between atoms: N_18  and  C_19
REMARK    6  A    between atoms: C_19  and  C_20
REMARK    7  A    between atoms: C_24  and  C_26
REMARK                            x       y       z     vdW  Elec       q    Type
REMARK                         _______ _______ _______ _____ _____    ______ ____
ROOT
ATOM      1  O   UNL     1       0.580   1.450  24.216  0.00  0.00    -0.219 OA
ATOM      2  C   UNL     1       0.492   0.720  23.842  0.00  0.00    +0.199 C 
ATOM      3  C   UNL     1       1.057   0.344  23.374  0.00  0.00    +0.135 C 
ATOM      4  C   UNL     1       0.737  -0.370  23.113  0.00  0.00    +0.162 C 
ATOM      5  O   UNL     1      -0.025  -0.435  23.420  0.00  0.00    -0.350 OA
ATOM      6  C   UNL     1      -0.177   0.239  23.870  0.00  0.00    +0.169 C 
ENDROOT
BRANCH   6   7
ATOM      7  C   UNL     1      -0.876   0.402  24.277  0.00  0.00    +0.148 C 
BRANCH   7   8
ATOM      8  N   UNL     1      -1.546  -0.061  24.150  0.00  0.00    -0.199 NA
ATOM      9  C   UNL     1      -2.216   0.043  24.620  0.00  0.00    +0.265 C 
ATOM     10  O   UNL     1      -2.215   0.611  25.218  0.00  0.00    -0.268 OA
BRANCH   9  11
ATOM     11  C   UNL     1      -2.886  -0.421  24.493  0.00  0.00    +0.055 A 
ATOM     12  C   UNL     1      -2.957  -1.154  24.864  0.00  0.00    +0.007 A 
ATOM     13  C   UNL     1      -3.627  -1.618  24.736  0.00  0.00    +0.030 A 
ATOM     14  C   UNL     1      -4.226  -1.349  24.237  0.00  0.00    +0.140 A 
ATOM     15  F   UNL     1      -4.897  -1.812  24.110  0.00  0.00    -0.204 F 
ATOM     16  C   UNL     1      -4.156  -0.615  23.866  0.00  0.00    +0.030 A 
ATOM     17  C   UNL     1      -3.485  -0.152  23.994  0.00  0.00    +0.007 A 
ENDBRANCH   9  11
ENDBRANCH   7   8
ENDBRANCH   6   7
BRANCH   3  18
ATOM     18  N   UNL     1       1.810   0.631  23.198  0.00  0.00    -0.209 NA
BRANCH  18  19
ATOM     19  C   UNL     1       2.368   0.138  22.843  0.00  0.00    +0.115 C 
BRANCH  19  20
ATOM     20  C   UNL     1       3.170   0.325  22.884  0.00  0.00    -0.004 A 
ATOM     21  C   UNL     1       3.457   0.994  22.496  0.00  0.00    -0.003 A 
ATOM     22  C   UNL     1       4.260   1.182  22.537  0.00  0.00    +0.000 A 
ATOM     23  C   UNL     1       4.775   0.700  22.965  0.00  0.00    +0.010 A 
ATOM     24  C   UNL     1       4.487   0.031  23.353  0.00  0.00    +0.068 A 
ATOM     25  C   UNL     1       3.685  -0.156  23.313  0.00  0.00    +0.007 A 
BRANCH  24  26
ATOM     26  C   UNL     1       5.003  -0.450  23.782  0.00  0.00    +0.100 C 
ATOM     27  N   UNL     1       5.519  -0.931  24.210  0.00  0.00    -0.191 NA
ENDBRANCH  24  26
ENDBRANCH  19  20
ENDBRANCH  18  19
ENDBRANCH   3  18
TORSDOF 7
ENDMDL
MODEL 7
REMARK VINA RESULT:      -8.7      3.660      5.238
REMARK  Name = 
REMARK  7 active torsions:
REMARK  status: ('A' for Active; 'I' for Inactive)
REMARK    1  A    between atoms: C_3  and  N_18
REMARK    2  A    between atoms: C_6  and  C_7
REMARK    3  A    between atoms: C_7  and  N_8
REMARK    4  A    between atoms: C_9  and  C_11
REMARK    5  A    between atoms: N_18  and  C_19
REMARK    6  A    between atoms: C_19  and  C_20
REMARK    7  A    between atoms: C_24  and  C_26
REMARK                            x       y       z     vdW  Elec       q    Type
REMARK                         _______ _______ _______ _____ _____    ______ ____
ROOT
ATOM      1  O   UNL     1      -1.618   0.631  25.091  0.00  0.00    -0.219 OA
ATOM      2  C   UNL     1      -1.553   1.084  24.404  0.00  0.00    +0.199 C 
ATOM      3  C   UNL     1      -2.036   1.717  24.192  0.00  0.00    +0.135 C 
ATOM      4  C   UNL     1      -1.775   2.006  23.466  0.00  0.00    +0.162 C 
ATOM      5  O   UNL     1      -1.130   1.551  23.228  0.00  0.00    -0.350 OA
ATOM      6  C   UNL     1      -0.993   0.981  23.807  0.00  0.00    +0.169 C 
ENDROOT
BRANCH   6   7
ATOM      7  C   UNL     1      -0.399   0.408  23.793  0.00  0.00    +0.148 C 
BRANCH   7   8
ATOM      8  N   UNL     1       0.326   0.574  23.435  0.00  0.00    -0.199 NA
ATOM      9  C   UNL     1       0.889  -0.023  23.347  0.00  0.00    +0.265 C 
ATOM     10  O   UNL     1       0.727  -0.785  23.618  0.00  0.00    -0.268 OA
BRANCH   9  11
ATOM     11  C   UNL     1       1.614   0.143  22.990  0.00  0.00    +0.055 A 
ATOM     12  C   UNL     1       2.162   0.626  23.374  0.00  0.00    +0.007 A 
ATOM     13  C   UNL     1       2.886   0.792  23.016  0.00  0.00    +0.030 A 
ATOM     14  C   UNL     1       3.063   0.475  22.274  0.00  0.00    +0.140 A 
ATOM     15  F   UNL     1       3.788   0.641  21.917  0.00  0.00    -0.204 F 
ATOM     16  C   UNL     1       2.515  -0.008  21.891  0.00  0.00    +0.030 A 
ATOM     17  C   UNL     1       1.790  -0.174  22.249  0.00  0.00    +0.007 A 
ENDBRANCH   9  11
ENDBRANCH   7   8
ENDBRANCH   6   7
BRANCH   3  18
ATOM     18  N   UNL     1      -2.670   2.011  24.632  0.00  0.00    -0.209 NA
BRANCH  18  19
ATOM     19  C   UNL     1      -3.191   2.554  24.292  0.00  0.00    +0.115 C 
BRANCH  19  20
ATOM     20  C   UNL     1      -3.869   2.786  24.701  0.00  0.00    -0.004 A 
ATOM     21  C   UNL     1      -3.863   3.480  25.147  0.00  0.00    -0.003 A 
ATOM     22  C   UNL     1      -4.542   3.713  25.556  0.00  0.00    +0.000 A 
ATOM     23  C   UNL     1      -5.224   3.252  25.519  0.00  0.00    +0.010 A 
ATOM     24  C   UNL     1      -5.229   2.558  25.073  0.00  0.00    +0.068 A 
ATOM     25  C   UNL     1      -4.552   2.325  24.664  0.00  0.00    +0.007 A 
BRANCH  24  26
ATOM     26  C   UNL     1      -5.913   2.096  25.036  0.00  0.00    +0.100 C 
ATOM     27  N   UNL     1      -6.596   1.636  24.999  0.00  0.00    -0.191 NA
ENDBRANCH  24  26
ENDBRANCH  19  20
ENDBRANCH  18  19
ENDBRANCH   3  18
TORSDOF 7
ENDMDL
MODEL 8
REMARK VINA RESULT:      -8.6      3.734      4.702
REMARK  Name = 
REMARK  7 active torsions:
REMARK  status: ('A' for Active; 'I' for Inactive)
REMARK    1  A    between atoms: C_3  and  N_18
REMARK    2  A    between atoms: C_6  and  C_7
REMARK    3  A    between atoms: C_7  and  N_8
REMARK    4  A    between atoms: C_9  and  C_11
REMARK    5  A    between atoms: N_18  and  C_19
REMARK    6  A    between atoms: C_19  and  C_20
REMARK    7  A    between atoms: C_24  and  C_26
REMARK                            x       y       z     vdW  Elec       q    Type
REMARK                         _______ _______ _______ _____ _____    ______ ____
ROOT
ATOM      1  O   UNL     1      -0.877   2.728  23.641  0.00  0.00    -0.219 OA
ATOM      2  C   UNL     1      -0.943   2.144  24.219  0.00  0.00    +0.199 C 
ATOM      3  C   UNL     1      -0.442   1.496  24.313  0.00  0.00    +0.135 C 
ATOM      4  C   UNL     1      -0.711   1.057  24.957  0.00  0.00    +0.162 C 
ATOM      5  O   UNL     1      -1.378   1.433  25.261  0.00  0.00    -0.350 OA
ATOM      6  C   UNL     1      -1.522   2.105  24.805  0.00  0.00    +0.169 C 
ENDROOT
BRANCH   6   7
ATOM      7  C   UNL     1      -2.137   2.644  24.916  0.00  0.00    +0.148 C 
BRANCH   7   8
ATOM      8  N   UNL     1      -2.913   2.375  24.989  0.00  0.00    -0.199 NA
ATOM      9  C   UNL     1      -3.534   2.916  25.047  0.00  0.00    +0.265 C 
ATOM     10  O   UNL     1      -3.377   3.726  25.032  0.00  0.00    -0.268 OA
BRANCH   9  11
ATOM     11  C   UNL     1      -4.310   2.647  25.120  0.00  0.00    +0.055 A 
ATOM     12  C   UNL     1      -4.774   2.895  25.756  0.00  0.00    +0.007 A 
ATOM     13  C   UNL     1      -5.551   2.626  25.828  0.00  0.00    +0.030 A 
ATOM     14  C   UNL     1      -5.863   2.109  25.265  0.00  0.00    +0.140 A 
ATOM     15  F   UNL     1      -6.640   1.840  25.338  0.00  0.00    -0.204 F 
ATOM     16  C   UNL     1      -5.399   1.862  24.629  0.00  0.00    +0.030 A 
ATOM     17  C   UNL     1      -4.622   2.132  24.557  0.00  0.00    +0.007 A 
ENDBRANCH   9  11
ENDBRANCH   7   8
ENDBRANCH   6   7
BRANCH   3  18
ATOM     18  N   UNL     1       0.214   1.318  23.845  0.00  0.00    -0.209 NA
BRANCH  18  19
ATOM     19  C   UNL     1       0.524   0.553  23.843  0.00  0.00    +0.115 C 
BRANCH  19  20
ATOM     20  C   UNL     1       1.100   0.343  23.290  0.00  0.00    -0.004 A 
ATOM     21  C   UNL     1       0.904  -0.149  22.658  0.00  0.00    -0.003 A 
ATOM     22  C   UNL     1       1.480  -0.359  22.105  0.00  0.00    +0.000 A 
ATOM     23  C   UNL     1       2.251  -0.077  22.186  0.00  0.00    +0.010 A 
ATOM     24  C   UNL     1       2.446   0.415  22.819  0.00  0.00    +0.068 A 
ATOM     25  C   UNL     1       1.871   0.625  23.371  0.00  0.00    +0.007 A 
BRANCH  24  26
ATOM     26  C   UNL     1       3.218   0.697  22.899  0.00  0.00    +0.100 C 
ATOM     27  N   UNL     1       3.989   0.978  22.978  0.00  0.00    -0.191 NA
ENDBRANCH  24  26
ENDBRANCH  19  20
ENDBRANCH  18  19
ENDBRANCH   3  18
TORSDOF 7
ENDMDL
MODEL 9
REMARK VINA RESULT:      -7.9      2.121      2.889
REMARK  Name = 
REMARK  7 active torsions:
REMARK  status: ('A' for Active; 'I' for Inactive)
REMARK    1  A    between atoms: C_3  and  N_18
REMARK    2  A    between atoms: C_6  and  C_7
REMARK    3  A    between atoms: C_7  and  N_8
REMARK    4  A    between atoms: C_9  and  C_11
REMARK    5  A    between atoms: N_18  and  C_19
REMARK    6  A    between atoms: C_19  and  C_20
REMARK    7  A    between atoms: C_24  and  C_26
REMARK                            x       y       z     vdW  Elec       q    Type
REMARK                         _______ _______ _______ _____ _____    ______ ____
ROOT
ATOM      1  O   UNL     1      -1.723   1.110  23.936  0.00  0.00    -0.219 OA
ATOM      2  C   UNL     1      -1.361   1.154  24.676  0.00  0.00    +0.199 C 
ATOM      3  C   UNL     1      -0.990   0.534  25.072  0.00  0.00    +0.135 C 
ATOM      4  C   UNL     1      -0.707   0.823  25.791  0.00  0.00    +0.162 C 
ATOM      5  O   UNL     1      -0.903   1.622  25.839  0.00  0.00    -0.350 OA
ATOM      6  C   UNL     1      -1.307   1.827  25.150  0.00  0.00    +0.169 C 
ENDROOT
BRANCH   6   7
ATOM      7  C   UNL     1      -1.605   2.575  24.967  0.00  0.00    +0.148 C 
BRANCH   7   8
ATOM      8  N   UNL     1      -2.403   2.743  25.095  0.00  0.00    -0.199 NA
ATOM      9  C   UNL     1      -2.670   3.523  25.060  0.00  0.00    +0.265 C 
ATOM     10  O   UNL     1      -2.140   4.134  24.898  0.00  0.00    -0.268 OA
BRANCH   9  11
ATOM     11  C   UNL     1      -3.467   3.692  25.188  0.00  0.00    +0.055 A 
ATOM     12  C   UNL     1      -3.996   3.692  24.554  0.00  0.00    +0.007 A 
ATOM     13  C   UNL     1      -4.793   3.861  24.682  0.00  0.00    +0.030 A 
ATOM     14  C   UNL     1      -5.062   4.029  25.444  0.00  0.00    +0.140 A 
ATOM     15  F   UNL     1      -5.859   4.198  25.572  0.00  0.00    -0.204 F 
ATOM     16  C   UNL     1      -4.534   4.030  26.078  0.00  0.00    +0.030 A 
ATOM     17  C   UNL     1      -3.736   3.861  25.949  0.00  0.00    +0.007 A 
ENDBRANCH   9  11
ENDBRANCH   7   8
ENDBRANCH   6   7
BRANCH   3  18
ATOM     18  N   UNL     1      -0.916  -0.241  24.798  0.00  0.00    -0.209 NA
BRANCH  18  19
ATOM     19  C   UNL     1      -1.165  -0.871  25.269  0.00  0.00    +0.115 C 
BRANCH  19  20
ATOM     20  C   UNL     1      -1.438  -1.566  24.917  0.00  0.00    -0.004 A 
ATOM     21  C   UNL     1      -0.899  -2.134  24.654  0.00  0.00    -0.003 A 
ATOM     22  C   UNL     1      -1.172  -2.829  24.302  0.00  0.00    +0.000 A 
ATOM     23  C   UNL     1      -1.982  -2.956  24.214  0.00  0.00    +0.010 A 
ATOM     24  C   UNL     1      -2.520  -2.388  24.477  0.00  0.00    +0.068 A 
ATOM     25  C   UNL     1      -2.248  -1.694  24.829  0.00  0.00    +0.007 A 
BRANCH  24  26
ATOM     26  C   UNL     1      -3.331  -2.516  24.388  0.00  0.00    +0.100 C 
ATOM     27  N   UNL     1      -4.141  -2.644  24.300  0.00  0.00    -0.191 NA
ENDBRANCH  24  26
ENDBRANCH  19  20
ENDBRANCH  18  19
ENDBRANCH   3  18
TORSDOF 7
ENDMDL
MODEL 10
REMARK VINA RESULT:      -7.7     14.710     16.691
REMARK  Name = 
REMARK  7 active torsions:
REMARK  status: ('A' for Active; 'I' for Inactive)
REMARK    1  A    between atoms: C_3  and  N_18
REMARK    2  A    between atoms: C_6  and  C_7
REMARK    3  A    between atoms: C_7  and  N_8
REMARK    4  A    between atoms: C_9  and  C_11
REMARK    5  A    between atoms: N_18  and  C_19
REMARK    6  A    between atoms: C_19  and  C_20
REMARK    7  A    between atoms: C_24  and  C_26
REMARK                            x       y       z     vdW  Elec       q    Type
REMARK                         _______ _______ _______ _____ _____    ______ ____
ROOT
ATOM      1  O   UNL     1      -2.921 -10.781  14.485  0.00  0.00    -0.219 OA
ATOM      2  C   UNL     1      -3.690 -10.653  14.215  0.00  0.00    +0.199 C 
ATOM      3  C   UNL     1      -4.367 -10.602  14.683  0.00  0.00    +0.135 C 
ATOM      4  C   UNL     1      -5.011 -10.470  14.187  0.00  0.00    +0.162 C 
ATOM      5  O   UNL     1      -4.734 -10.440  13.411  0.00  0.00    -0.350 OA
ATOM      6  C   UNL     1      -3.917 -10.552  13.428  0.00  0.00    +0.169 C 
ENDROOT
BRANCH   6   7
ATOM      7  C   UNL     1      -3.415 -10.563  12.773  0.00  0.00    +0.148 C 
BRANCH   7   8
ATOM      8  N   UNL     1      -3.680 -10.277  12.046  0.00  0.00    -0.199 NA
ATOM      9  C   UNL     1      -3.192 -10.323  11.382  0.00  0.00    +0.265 C 
ATOM     10  O   UNL     1      -2.439 -10.655  11.446  0.00  0.00    -0.268 OA
BRANCH   9  11
ATOM     11  C   UNL     1      -3.456 -10.037  10.655  0.00  0.00    +0.055 A 
ATOM     12  C   UNL     1      -3.875 -10.533  10.145  0.00  0.00    +0.007 A 
ATOM     13  C   UNL     1      -4.139 -10.247   9.418  0.00  0.00    +0.030 A 
ATOM     14  C   UNL     1      -3.985  -9.465   9.201  0.00  0.00    +0.140 A 
ATOM     15  F   UNL     1      -4.250  -9.179   8.474  0.00  0.00    -0.204 F 
ATOM     16  C   UNL     1      -3.566  -8.970   9.711  0.00  0.00    +0.030 A 
ATOM     17  C   UNL     1      -3.302  -9.257  10.438  0.00  0.00    +0.007 A 
ENDBRANCH   9  11
ENDBRANCH   7   8
ENDBRANCH   6   7
BRANCH   3  18
ATOM     18  N   UNL     1      -4.393 -10.670  15.505  0.00  0.00    -0.209 NA
BRANCH  18  19
ATOM     19  C   UNL     1      -4.951 -10.242  15.937  0.00  0.00    +0.115 C 
BRANCH  19  20
ATOM     20  C   UNL     1      -5.062 -10.401  16.739  0.00  0.00    -0.004 A 
ATOM     21  C   UNL     1      -4.421 -10.622  17.209  0.00  0.00    -0.003 A 
ATOM     22  C   UNL     1      -4.533 -10.781  18.011  0.00  0.00    +0.000 A 
ATOM     23  C   UNL     1      -5.285 -10.719  18.343  0.00  0.00    +0.010 A 
ATOM     24  C   UNL     1      -5.926 -10.499  17.872  0.00  0.00    +0.068 A 
ATOM     25  C   UNL     1      -5.815 -10.340  17.071  0.00  0.00    +0.007 A 
BRANCH  24  26
ATOM     26  C   UNL     1      -6.679 -10.437  18.205  0.00  0.00    +0.100 C 
ATOM     27  N   UNL     1      -7.432 -10.375  18.538  0.00  0.00    -0.191 NA
ENDBRANCH  24  26
ENDBRANCH  19  20
ENDBRANCH  18  19
ENDBRANCH   3  18
TORSDOF 7
ENDMDL
