MODEL 1
REMARK VINA RESULT:      -9.5      0.000      0.000
REMARK  Name = 
REMARK  7 active torsions:
REMARK  status: ('A' for Active; 'I' for Inactive)
REMARK    1  A    between atoms: C_3  and  N_16
REMARK    2  A    between atoms: C_6  and  C_7
REMARK    3  A    between atoms: C_7  and  N_8
REMARK    4  A    between atoms: C_9  and  C_11
REMARK    5  A    between atoms: N_16  and  C_17
REMARK    6  A    between atoms: C_17  and  C_18
REMARK    7  A    between atoms: C_22  and  C_24
REMARK                            x       y       z     vdW  Elec       q    Type
REMARK                         _______ _______ _______ _____ _____    ______ ____
ROOT
ATOM      1  O   UNL     1      -3.989   1.355  25.640  0.00  0.00    -0.219 OA
ATOM      2  C   UNL     1      -3.812   1.490  24.845  0.00  0.00    +0.199 C 
ATOM      3  C   UNL     1      -3.846   0.932  24.239  0.00  0.00    +0.135 C 
ATOM      4  C   UNL     1      -3.625   1.303  23.538  0.00  0.00    +0.162 C 
ATOM      5  O   UNL     1      -3.454   2.091  23.709  0.00  0.00    -0.350 OA
ATOM      6  C   UNL     1      -3.569   2.207  24.518  0.00  0.00    +0.169 C 
ENDROOT
BRANCH   6   7
ATOM      7  C   UNL     1      -3.461   2.915  24.927  0.00  0.00    +0.148 C 
BRANCH   7   8
ATOM      8  N   UNL     1      -2.777   3.360  24.808  0.00  0.00    -0.199 NA
ATOM      9  C   UNL     1      -2.614   4.005  25.296  0.00  0.00    +0.271 C 
ATOM     10  O   UNL     1      -3.136   4.205  25.903  0.00  0.00    -0.268 OA
BRANCH   9  11
ATOM     11  C   UNL     1      -1.929   4.449  25.178  0.00  0.00    +0.084 A 
ATOM     12  C   UNL     1      -1.888   5.272  25.120  0.00  0.00    +0.012 A 
ATOM     13  C   UNL     1      -1.099   5.480  25.003  0.00  0.00    +0.008 A 
ATOM     14  C   UNL     1      -0.652   4.787  24.989  0.00  0.00    +0.036 A 
ATOM     15  S   UNL     1      -1.165   4.151  25.097  0.00  0.00    -0.082 S 
ENDBRANCH   9  11
ENDBRANCH   7   8
ENDBRANCH   6   7
BRANCH   3  16
ATOM     16  N   UNL     1      -4.064   0.140  24.321  0.00  0.00    -0.209 NA
BRANCH  16  17
ATOM     17  C   UNL     1      -3.846  -0.410  23.746  0.00  0.00    +0.115 C 
BRANCH  17  18
ATOM     18  C   UNL     1      -3.735  -1.201  23.952  0.00  0.00    -0.004 A 
ATOM     19  C   UNL     1      -4.367  -1.730  23.912  0.00  0.00    -0.003 A 
ATOM     20  C   UNL     1      -4.257  -2.521  24.117  0.00  0.00    +0.000 A 
ATOM     21  C   UNL     1      -3.514  -2.784  24.363  0.00  0.00    +0.010 A 
ATOM     22  C   UNL     1      -2.883  -2.254  24.403  0.00  0.00    +0.068 A 
ATOM     23  C   UNL     1      -2.993  -1.464  24.197  0.00  0.00    +0.007 A 
BRANCH  22  24
ATOM     24  C   UNL     1      -2.140  -2.518  24.649  0.00  0.00    +0.100 C 
ATOM     25  N   UNL     1      -1.397  -2.780  24.895  0.00  0.00    -0.191 NA
ENDBRANCH  22  24
ENDBRANCH  17  18
ENDBRANCH  16  17
ENDBRANCH   3  16
TORSDOF 7
ENDMDL
MODEL 2
REMARK VINA RESULT:      -9.0      2.546      6.012
REMARK  Name = 
REMARK  7 active torsions:
REMARK  status: ('A' for Active; 'I' for Inactive)
REMARK    1  A    between atoms: C_3  and  N_16
REMARK    2  A    between atoms: C_6  and  C_7
REMARK    3  A    between atoms: C_7  and  N_8
REMARK    4  A    between atoms: C_9  and  C_11
REMARK    5  A    between atoms: N_16  and  C_17
REMARK    6  A    between atoms: C_17  and  C_18
REMARK    7  A    between atoms: C_22  and  C_24
REMARK                            x       y       z     vdW  Elec       q    Type
REMARK                         _______ _______ _______ _____ _____    ______ ____
ROOT
ATOM      1  O   UNL     1      -0.785   0.847  25.834  0.00  0.00    -0.219 OA
ATOM      2  C   UNL     1      -0.656   0.834  25.020  0.00  0.00    +0.199 C 
ATOM      3  C   UNL     1      -0.514   1.491  24.541  0.00  0.00    +0.135 C 
ATOM      4  C   UNL     1      -0.416   1.225  23.767  0.00  0.00    +0.162 C 
ATOM      5  O   UNL     1      -0.498   0.405  23.766  0.00  0.00    -0.350 OA
ATOM      6  C   UNL     1      -0.646   0.163  24.540  0.00  0.00    +0.169 C 
ENDROOT
BRANCH   6   7
ATOM      7  C   UNL     1      -0.764  -0.614  24.792  0.00  0.00    +0.148 C 
BRANCH   7   8
ATOM      8  N   UNL     1      -1.502  -0.971  24.698  0.00  0.00    -0.199 NA
ATOM      9  C   UNL     1      -1.604  -1.765  24.895  0.00  0.00    +0.271 C 
ATOM     10  O   UNL     1      -0.968  -2.203  25.186  0.00  0.00    -0.268 OA
BRANCH   9  11
ATOM     11  C   UNL     1      -2.342  -2.122  24.800  0.00  0.00    +0.084 A 
ATOM     12  C   UNL     1      -3.023  -1.950  25.234  0.00  0.00    +0.012 A 
ATOM     13  C   UNL     1      -3.630  -2.435  24.958  0.00  0.00    +0.008 A 
ATOM     14  C   UNL     1      -3.325  -2.906  24.353  0.00  0.00    +0.036 A 
ATOM     15  S   UNL     1      -2.530  -2.713  24.256  0.00  0.00    -0.082 S 
ENDBRANCH   9  11
ENDBRANCH   7   8
ENDBRANCH   6   7
BRANCH   3  16
ATOM     16  N   UNL     1      -0.476   2.276  24.794  0.00  0.00    -0.209 NA
BRANCH  16  17
ATOM     17  C   UNL     1      -0.781   2.877  24.318  0.00  0.00    +0.115 C 
BRANCH  17  18
ATOM     18  C   UNL     1      -1.030   3.586  24.659  0.00  0.00    -0.004 A 
ATOM     19  C   UNL     1      -0.577   4.269  24.567  0.00  0.00    -0.003 A 
ATOM     20  C   UNL     1      -0.827   4.978  24.908  0.00  0.00    +0.000 A 
ATOM     21  C   UNL     1      -1.529   5.003  25.340  0.00  0.00    +0.010 A 
ATOM     22  C   UNL     1      -1.982   4.320  25.431  0.00  0.00    +0.068 A 
ATOM     23  C   UNL     1      -1.733   3.611  25.091  0.00  0.00    +0.007 A 
BRANCH  22  24
ATOM     24  C   UNL     1      -2.685   4.345  25.864  0.00  0.00    +0.100 C 
ATOM     25  N   UNL     1      -3.387   4.371  26.296  0.00  0.00    -0.191 NA
ENDBRANCH  22  24
ENDBRANCH  17  18
ENDBRANCH  16  17
ENDBRANCH   3  16
TORSDOF 7
ENDMDL
MODEL 3
REMARK VINA RESULT:      -8.7      1.914      5.499
REMARK  Name = 
REMARK  7 active torsions:
REMARK  status: ('A' for Active; 'I' for Inactive)
REMARK    1  A    between atoms: C_3  and  N_16
REMARK    2  A    between atoms: C_6  and  C_7
REMARK    3  A    between atoms: C_7  and  N_8
REMARK    4  A    between atoms: C_9  and  C_11
REMARK    5  A    between atoms: N_16  and  C_17
REMARK    6  A    between atoms: C_17  and  C_18
REMARK    7  A    between atoms: C_22  and  C_24
REMARK                            x       y       z     vdW  Elec       q    Type
REMARK                         _______ _______ _______ _____ _____    ______ ____
ROOT
ATOM      1  O   UNL     1      -3.252   1.451  23.607  0.00  0.00    -0.219 OA
ATOM      2  C   UNL     1      -3.738   1.536  24.268  0.00  0.00    +0.199 C 
ATOM      3  C   UNL     1      -3.783   2.200  24.755  0.00  0.00    +0.135 C 
ATOM      4  C   UNL     1      -4.337   2.046  25.345  0.00  0.00    +0.162 C 
ATOM      5  O   UNL     1      -4.636   1.287  25.223  0.00  0.00    -0.350 OA
ATOM      6  C   UNL     1      -4.265   0.972  24.557  0.00  0.00    +0.169 C 
ENDROOT
BRANCH   6   7
ATOM      7  C   UNL     1      -4.399   0.223  24.237  0.00  0.00    +0.148 C 
BRANCH   7   8
ATOM      8  N   UNL     1      -4.016  -0.435  24.553  0.00  0.00    -0.199 NA
ATOM      9  C   UNL     1      -4.199  -1.191  24.277  0.00  0.00    +0.271 C 
ATOM     10  O   UNL     1      -4.765  -1.288  23.685  0.00  0.00    -0.268 OA
BRANCH   9  11
ATOM     11  C   UNL     1      -3.816  -1.850  24.594  0.00  0.00    +0.084 A 
ATOM     12  C   UNL     1      -3.525  -1.919  25.363  0.00  0.00    +0.012 A 
ATOM     13  C   UNL     1      -3.186  -2.666  25.441  0.00  0.00    +0.008 A 
ATOM     14  C   UNL     1      -3.267  -3.060  24.720  0.00  0.00    +0.036 A 
ATOM     15  S   UNL     1      -3.656  -2.555  24.197  0.00  0.00    -0.082 S 
ENDBRANCH   9  11
ENDBRANCH   7   8
ENDBRANCH   6   7
BRANCH   3  16
ATOM     16  N   UNL     1      -3.348   2.896  24.667  0.00  0.00    -0.209 NA
BRANCH  16  17
ATOM     17  C   UNL     1      -3.072   3.297  25.333  0.00  0.00    +0.115 C 
BRANCH  17  18
ATOM     18  C   UNL     1      -2.334   3.666  25.316  0.00  0.00    -0.004 A 
ATOM     19  C   UNL     1      -2.275   4.460  25.098  0.00  0.00    -0.003 A 
ATOM     20  C   UNL     1      -1.537   4.829  25.082  0.00  0.00    +0.000 A 
ATOM     21  C   UNL     1      -0.859   4.404  25.283  0.00  0.00    +0.010 A 
ATOM     22  C   UNL     1      -0.919   3.610  25.500  0.00  0.00    +0.068 A 
ATOM     23  C   UNL     1      -1.656   3.241  25.517  0.00  0.00    +0.007 A 
BRANCH  22  24
ATOM     24  C   UNL     1      -0.240   3.186  25.701  0.00  0.00    +0.100 C 
ATOM     25  N   UNL     1       0.438   2.761  25.902  0.00  0.00    -0.191 NA
ENDBRANCH  22  24
ENDBRANCH  17  18
ENDBRANCH  16  17
ENDBRANCH   3  16
TORSDOF 7
ENDMDL
MODEL 4
REMARK VINA RESULT:      -8.5      1.986      2.504
REMARK  Name = 
REMARK  7 active torsions:
REMARK  status: ('A' for Active; 'I' for Inactive)
REMARK    1  A    between atoms: C_3  and  N_16
REMARK    2  A    between atoms: C_6  and  C_7
REMARK    3  A    between atoms: C_7  and  N_8
REMARK    4  A    between atoms: C_9  and  C_11
REMARK    5  A    between atoms: N_16  and  C_17
REMARK    6  A    between atoms: C_17  and  C_18
REMARK    7  A    between atoms: C_22  and  C_24
REMARK                            x       y       z     vdW  Elec       q    Type
REMARK                         _______ _______ _______ _____ _____    ______ ____
ROOT
ATOM      1  O   UNL     1      -0.717   0.803  23.690  0.00  0.00    -0.219 OA
ATOM      2  C   UNL     1      -0.771   0.828  24.513  0.00  0.00    +0.199 C 
ATOM      3  C   UNL     1      -0.971   0.198  25.006  0.00  0.00    +0.135 C 
ATOM      4  C   UNL     1      -0.957   0.469  25.785  0.00  0.00    +0.162 C 
ATOM      5  O   UNL     1      -0.749   1.266  25.773  0.00  0.00    -0.350 OA
ATOM      6  C   UNL     1      -0.634   1.489  24.988  0.00  0.00    +0.169 C 
ENDROOT
BRANCH   6   7
ATOM      7  C   UNL     1      -0.419   2.240  24.723  0.00  0.00    +0.148 C 
BRANCH   7   8
ATOM      8  N   UNL     1      -0.861   2.899  24.950  0.00  0.00    -0.199 NA
ATOM      9  C   UNL     1      -0.658   3.648  24.669  0.00  0.00    +0.271 C 
ATOM     10  O   UNL     1      -0.014   3.738  24.162  0.00  0.00    -0.268 OA
BRANCH   9  11
ATOM     11  C   UNL     1      -1.100   4.307  24.895  0.00  0.00    +0.084 A 
ATOM     12  C   UNL     1      -0.881   5.097  24.794  0.00  0.00    +0.012 A 
ATOM     13  C   UNL     1      -1.484   5.569  25.099  0.00  0.00    +0.008 A 
ATOM     14  C   UNL     1      -2.075   5.073  25.389  0.00  0.00    +0.036 A 
ATOM     15  S   UNL     1      -1.838   4.293  25.263  0.00  0.00    -0.082 S 
ENDBRANCH   9  11
ENDBRANCH   7   8
ENDBRANCH   6   7
BRANCH   3  16
ATOM     16  N   UNL     1      -1.152  -0.569  24.762  0.00  0.00    -0.209 NA
BRANCH  16  17
ATOM     17  C   UNL     1      -1.651  -1.040  25.220  0.00  0.00    +0.115 C 
BRANCH  17  18
ATOM     18  C   UNL     1      -2.046  -1.679  24.876  0.00  0.00    -0.004 A 
ATOM     19  C   UNL     1      -1.655  -2.398  24.775  0.00  0.00    -0.003 A 
ATOM     20  C   UNL     1      -2.050  -3.036  24.431  0.00  0.00    +0.000 A 
ATOM     21  C   UNL     1      -2.834  -2.955  24.190  0.00  0.00    +0.010 A 
ATOM     22  C   UNL     1      -3.224  -2.235  24.292  0.00  0.00    +0.068 A 
ATOM     23  C   UNL     1      -2.831  -1.597  24.635  0.00  0.00    +0.007 A 
BRANCH  22  24
ATOM     24  C   UNL     1      -4.010  -2.154  24.050  0.00  0.00    +0.100 C 
ATOM     25  N   UNL     1      -4.794  -2.073  23.807  0.00  0.00    -0.191 NA
ENDBRANCH  22  24
ENDBRANCH  17  18
ENDBRANCH  16  17
ENDBRANCH   3  16
TORSDOF 7
ENDMDL
MODEL 5
REMARK VINA RESULT:      -8.3      4.274      5.089
REMARK  Name = 
REMARK  7 active torsions:
REMARK  status: ('A' for Active; 'I' for Inactive)
REMARK    1  A    between atoms: C_3  and  N_16
REMARK    2  A    between atoms: C_6  and  C_7
REMARK    3  A    between atoms: C_7  and  N_8
REMARK    4  A    between atoms: C_9  and  C_11
REMARK    5  A    between atoms: N_16  and  C_17
REMARK    6  A    between atoms: C_17  and  C_18
REMARK    7  A    between atoms: C_22  and  C_24
REMARK                            x       y       z     vdW  Elec       q    Type
REMARK                         _______ _______ _______ _____ _____    ______ ____
ROOT
ATOM      1  O   UNL     1      -0.161  -1.082  23.333  0.00  0.00    -0.219 OA
ATOM      2  C   UNL     1      -0.058  -0.317  23.626  0.00  0.00    +0.199 C 
ATOM      3  C   UNL     1      -0.542   0.061  24.176  0.00  0.00    +0.135 C 
ATOM      4  C   UNL     1      -0.237   0.815  24.309  0.00  0.00    +0.162 C 
ATOM      5  O   UNL     1       0.436   0.903  23.842  0.00  0.00    -0.350 OA
ATOM      6  C   UNL     1       0.547   0.204  23.419  0.00  0.00    +0.169 C 
ENDROOT
BRANCH   6   7
ATOM      7  C   UNL     1       1.156   0.052  22.884  0.00  0.00    +0.148 C 
BRANCH   7   8
ATOM      8  N   UNL     1       1.937   0.223  23.088  0.00  0.00    -0.199 NA
ATOM      9  C   UNL     1       2.535   0.156  22.523  0.00  0.00    +0.271 C 
ATOM     10  O   UNL     1       2.352  -0.082  21.755  0.00  0.00    -0.268 OA
BRANCH   9  11
ATOM     11  C   UNL     1       3.316   0.327  22.727  0.00  0.00    +0.084 A 
ATOM     12  C   UNL     1       3.696   1.053  22.627  0.00  0.00    +0.012 A 
ATOM     13  C   UNL     1       4.468   0.977  22.905  0.00  0.00    +0.008 A 
ATOM     14  C   UNL     1       4.566   0.204  23.176  0.00  0.00    +0.036 A 
ATOM     15  S   UNL     1       3.855  -0.197  23.066  0.00  0.00    -0.082 S 
ENDBRANCH   9  11
ENDBRANCH   7   8
ENDBRANCH   6   7
BRANCH   3  16
ATOM     16  N   UNL     1      -1.215  -0.260  24.531  0.00  0.00    -0.209 NA
BRANCH  16  17
ATOM     17  C   UNL     1      -1.725   0.225  24.962  0.00  0.00    +0.115 C 
BRANCH  17  18
ATOM     18  C   UNL     1      -2.491  -0.030  25.132  0.00  0.00    -0.004 A 
ATOM     19  C   UNL     1      -2.613  -0.771  25.473  0.00  0.00    -0.003 A 
ATOM     20  C   UNL     1      -3.379  -1.026  25.643  0.00  0.00    +0.000 A 
ATOM     21  C   UNL     1      -4.023  -0.539  25.472  0.00  0.00    +0.010 A 
ATOM     22  C   UNL     1      -3.900   0.202  25.131  0.00  0.00    +0.068 A 
ATOM     23  C   UNL     1      -3.135   0.457  24.961  0.00  0.00    +0.007 A 
BRANCH  22  24
ATOM     24  C   UNL     1      -4.545   0.689  24.960  0.00  0.00    +0.100 C 
ATOM     25  N   UNL     1      -5.189   1.175  24.789  0.00  0.00    -0.191 NA
ENDBRANCH  22  24
ENDBRANCH  17  18
ENDBRANCH  16  17
ENDBRANCH   3  16
TORSDOF 7
ENDMDL
MODEL 6
REMARK VINA RESULT:      -8.3      3.262      5.009
REMARK  Name = 
REMARK  7 active torsions:
REMARK  status: ('A' for Active; 'I' for Inactive)
REMARK    1  A    between atoms: C_3  and  N_16
REMARK    2  A    between atoms: C_6  and  C_7
REMARK    3  A    between atoms: C_7  and  N_8
REMARK    4  A    between atoms: C_9  and  C_11
REMARK    5  A    between atoms: N_16  and  C_17
REMARK    6  A    between atoms: C_17  and  C_18
REMARK    7  A    between atoms: C_22  and  C_24
REMARK                            x       y       z     vdW  Elec       q    Type
REMARK                         _______ _______ _______ _____ _____    ______ ____
ROOT
ATOM      1  O   UNL     1      -1.751   0.651  25.203  0.00  0.00    -0.219 OA
ATOM      2  C   UNL     1      -1.618   1.142  24.554  0.00  0.00    +0.199 C 
ATOM      3  C   UNL     1      -2.052   1.815  24.357  0.00  0.00    +0.135 C 
ATOM      4  C   UNL     1      -1.730   2.134  23.669  0.00  0.00    +0.162 C 
ATOM      5  O   UNL     1      -1.097   1.658  23.439  0.00  0.00    -0.350 OA
ATOM      6  C   UNL     1      -1.028   1.045  23.986  0.00  0.00    +0.169 C 
ENDROOT
BRANCH   6   7
ATOM      7  C   UNL     1      -0.467   0.440  23.968  0.00  0.00    +0.148 C 
BRANCH   7   8
ATOM      8  N   UNL     1       0.193   0.504  23.477  0.00  0.00    -0.199 NA
ATOM      9  C   UNL     1       0.706  -0.136  23.390  0.00  0.00    +0.271 C 
ATOM     10  O   UNL     1       0.559  -0.840  23.793  0.00  0.00    -0.268 OA
BRANCH   9  11
ATOM     11  C   UNL     1       1.366  -0.072  22.899  0.00  0.00    +0.084 A 
ATOM     12  C   UNL     1       1.403  -0.291  22.104  0.00  0.00    +0.012 A 
ATOM     13  C   UNL     1       2.164  -0.132  21.830  0.00  0.00    +0.008 A 
ATOM     14  C   UNL     1       2.599   0.184  22.456  0.00  0.00    +0.036 A 
ATOM     15  S   UNL     1       2.106   0.221  23.116  0.00  0.00    -0.082 S 
ENDBRANCH   9  11
ENDBRANCH   7   8
ENDBRANCH   6   7
BRANCH   3  16
ATOM     16  N   UNL     1      -2.696   2.117  24.777  0.00  0.00    -0.209 NA
BRANCH  16  17
ATOM     17  C   UNL     1      -3.236   2.614  24.402  0.00  0.00    +0.115 C 
BRANCH  17  18
ATOM     18  C   UNL     1      -3.932   2.834  24.787  0.00  0.00    -0.004 A 
ATOM     19  C   UNL     1      -3.952   3.523  25.240  0.00  0.00    -0.003 A 
ATOM     20  C   UNL     1      -4.648   3.742  25.626  0.00  0.00    +0.000 A 
ATOM     21  C   UNL     1      -5.323   3.272  25.559  0.00  0.00    +0.010 A 
ATOM     22  C   UNL     1      -5.302   2.583  25.106  0.00  0.00    +0.068 A 
ATOM     23  C   UNL     1      -4.607   2.364  24.720  0.00  0.00    +0.007 A 
BRANCH  22  24
ATOM     24  C   UNL     1      -5.977   2.113  25.039  0.00  0.00    +0.100 C 
ATOM     25  N   UNL     1      -6.652   1.644  24.973  0.00  0.00    -0.191 NA
ENDBRANCH  22  24
ENDBRANCH  17  18
ENDBRANCH  16  17
ENDBRANCH   3  16
TORSDOF 7
ENDMDL
MODEL 7
REMARK VINA RESULT:      -7.6      4.772      6.098
REMARK  Name = 
REMARK  7 active torsions:
REMARK  status: ('A' for Active; 'I' for Inactive)
REMARK    1  A    between atoms: C_3  and  N_16
REMARK    2  A    between atoms: C_6  and  C_7
REMARK    3  A    between atoms: C_7  and  N_8
REMARK    4  A    between atoms: C_9  and  C_11
REMARK    5  A    between atoms: N_16  and  C_17
REMARK    6  A    between atoms: C_17  and  C_18
REMARK    7  A    between atoms: C_22  and  C_24
REMARK                            x       y       z     vdW  Elec       q    Type
REMARK                         _______ _______ _______ _____ _____    ______ ____
ROOT
ATOM      1  O   UNL     1       0.544   1.569  24.209  0.00  0.00    -0.219 OA
ATOM      2  C   UNL     1       0.428   0.837  23.846  0.00  0.00    +0.199 C 
ATOM      3  C   UNL     1       0.986   0.422  23.403  0.00  0.00    +0.135 C 
ATOM      4  C   UNL     1       0.636  -0.279  23.146  0.00  0.00    +0.162 C 
ATOM      5  O   UNL     1      -0.137  -0.297  23.430  0.00  0.00    -0.350 OA
ATOM      6  C   UNL     1      -0.266   0.392  23.863  0.00  0.00    +0.169 C 
ENDROOT
BRANCH   6   7
ATOM      7  C   UNL     1      -0.967   0.601  24.246  0.00  0.00    +0.148 C 
BRANCH   7   8
ATOM      8  N   UNL     1      -1.561   0.039  24.354  0.00  0.00    -0.199 NA
ATOM      9  C   UNL     1      -2.270   0.252  24.719  0.00  0.00    +0.271 C 
ATOM     10  O   UNL     1      -2.384   1.028  24.975  0.00  0.00    -0.268 OA
BRANCH   9  11
ATOM     11  C   UNL     1      -2.864  -0.310  24.827  0.00  0.00    +0.084 A 
ATOM     12  C   UNL     1      -2.885  -0.887  25.417  0.00  0.00    +0.012 A 
ATOM     13  C   UNL     1      -3.574  -1.327  25.319  0.00  0.00    +0.008 A 
ATOM     14  C   UNL     1      -3.981  -1.023  24.668  0.00  0.00    +0.036 A 
ATOM     15  S   UNL     1      -3.542  -0.394  24.365  0.00  0.00    -0.082 S 
ENDBRANCH   9  11
ENDBRANCH   7   8
ENDBRANCH   6   7
BRANCH   3  16
ATOM     16  N   UNL     1       1.758   0.666  23.245  0.00  0.00    -0.209 NA
BRANCH  16  17
ATOM     17  C   UNL     1       2.290   0.146  22.888  0.00  0.00    +0.115 C 
BRANCH  17  18
ATOM     18  C   UNL     1       3.099   0.308  22.903  0.00  0.00    -0.004 A 
ATOM     19  C   UNL     1       3.396   0.964  22.500  0.00  0.00    -0.003 A 
ATOM     20  C   UNL     1       4.205   1.126  22.515  0.00  0.00    +0.000 A 
ATOM     21  C   UNL     1       4.716   0.632  22.933  0.00  0.00    +0.010 A 
ATOM     22  C   UNL     1       4.419  -0.024  23.336  0.00  0.00    +0.068 A 
ATOM     23  C   UNL     1       3.611  -0.186  23.321  0.00  0.00    +0.007 A 
BRANCH  22  24
ATOM     24  C   UNL     1       4.932  -0.517  23.755  0.00  0.00    +0.100 C 
ATOM     25  N   UNL     1       5.444  -1.010  24.173  0.00  0.00    -0.191 NA
ENDBRANCH  22  24
ENDBRANCH  17  18
ENDBRANCH  16  17
ENDBRANCH   3  16
TORSDOF 7
ENDMDL
MODEL 8
REMARK VINA RESULT:      -7.3      3.570      4.389
REMARK  Name = 
REMARK  7 active torsions:
REMARK  status: ('A' for Active; 'I' for Inactive)
REMARK    1  A    between atoms: C_3  and  N_16
REMARK    2  A    between atoms: C_6  and  C_7
REMARK    3  A    between atoms: C_7  and  N_8
REMARK    4  A    between atoms: C_9  and  C_11
REMARK    5  A    between atoms: N_16  and  C_17
REMARK    6  A    between atoms: C_17  and  C_18
REMARK    7  A    between atoms: C_22  and  C_24
REMARK                            x       y       z     vdW  Elec       q    Type
REMARK                         _______ _______ _______ _____ _____    ______ ____
ROOT
ATOM      1  O   UNL     1      -1.921   1.822  22.828  0.00  0.00    -0.219 OA
ATOM      2  C   UNL     1      -1.663   1.868  23.610  0.00  0.00    +0.199 C 
ATOM      3  C   UNL     1      -0.981   1.521  23.918  0.00  0.00    +0.135 C 
ATOM      4  C   UNL     1      -0.939   1.708  24.720  0.00  0.00    +0.162 C 
ATOM      5  O   UNL     1      -1.594   2.171  24.908  0.00  0.00    -0.350 OA
ATOM      6  C   UNL     1      -2.042   2.270  24.223  0.00  0.00    +0.169 C 
ENDROOT
BRANCH   6   7
ATOM      7  C   UNL     1      -2.745   2.697  24.161  0.00  0.00    +0.148 C 
BRANCH   7   8
ATOM      8  N   UNL     1      -3.411   2.459  24.586  0.00  0.00    -0.199 NA
ATOM      9  C   UNL     1      -4.085   2.936  24.599  0.00  0.00    +0.271 C 
ATOM     10  O   UNL     1      -4.092   3.650  24.185  0.00  0.00    -0.268 OA
BRANCH   9  11
ATOM     11  C   UNL     1      -4.750   2.698  25.024  0.00  0.00    +0.084 A 
ATOM     12  C   UNL     1      -5.040   3.054  25.711  0.00  0.00    +0.012 A 
ATOM     13  C   UNL     1      -5.711   2.639  25.949  0.00  0.00    +0.008 A 
ATOM     14  C   UNL     1      -5.837   2.027  25.410  0.00  0.00    +0.036 A 
ATOM     15  S   UNL     1      -5.243   2.063  24.839  0.00  0.00    -0.082 S 
ENDBRANCH   9  11
ENDBRANCH   7   8
ENDBRANCH   6   7
BRANCH   3  16
ATOM     16  N   UNL     1      -0.437   1.065  23.496  0.00  0.00    -0.209 NA
BRANCH  16  17
ATOM     17  C   UNL     1       0.292   0.876  23.834  0.00  0.00    +0.115 C 
BRANCH  17  18
ATOM     18  C   UNL     1       0.881   0.525  23.375  0.00  0.00    -0.004 A 
ATOM     19  C   UNL     1       0.702  -0.132  22.908  0.00  0.00    -0.003 A 
ATOM     20  C   UNL     1       1.291  -0.483  22.449  0.00  0.00    +0.000 A 
ATOM     21  C   UNL     1       2.058  -0.178  22.457  0.00  0.00    +0.010 A 
ATOM     22  C   UNL     1       2.235   0.479  22.924  0.00  0.00    +0.068 A 
ATOM     23  C   UNL     1       1.647   0.830  23.383  0.00  0.00    +0.007 A 
BRANCH  22  24
ATOM     24  C   UNL     1       3.002   0.783  22.931  0.00  0.00    +0.100 C 
ATOM     25  N   UNL     1       3.769   1.088  22.940  0.00  0.00    -0.191 NA
ENDBRANCH  22  24
ENDBRANCH  17  18
ENDBRANCH  16  17
ENDBRANCH   3  16
TORSDOF 7
ENDMDL
MODEL 9
REMARK VINA RESULT:      -7.0      2.613      5.107
REMARK  Name = 
REMARK  7 active torsions:
REMARK  status: ('A' for Active; 'I' for Inactive)
REMARK    1  A    between atoms: C_3  and  N_16
REMARK    2  A    between atoms: C_6  and  C_7
REMARK    3  A    between atoms: C_7  and  N_8
REMARK    4  A    between atoms: C_9  and  C_11
REMARK    5  A    between atoms: N_16  and  C_17
REMARK    6  A    between atoms: C_17  and  C_18
REMARK    7  A    between atoms: C_22  and  C_24
REMARK                            x       y       z     vdW  Elec       q    Type
REMARK                         _______ _______ _______ _____ _____    ______ ____
ROOT
ATOM      1  O   UNL     1      -1.692   1.903  25.160  0.00  0.00    -0.219 OA
ATOM      2  C   UNL     1      -1.849   1.876  24.350  0.00  0.00    +0.199 C 
ATOM      3  C   UNL     1      -2.404   2.336  23.948  0.00  0.00    +0.135 C 
ATOM      4  C   UNL     1      -2.376   2.129  23.151  0.00  0.00    +0.162 C 
ATOM      5  O   UNL     1      -1.805   1.543  23.059  0.00  0.00    -0.350 OA
ATOM      6  C   UNL     1      -1.479   1.386  23.800  0.00  0.00    +0.169 C 
ENDROOT
BRANCH   6   7
ATOM      7  C   UNL     1      -0.886   0.835  23.963  0.00  0.00    +0.148 C 
BRANCH   7   8
ATOM      8  N   UNL     1      -1.084   0.095  24.269  0.00  0.00    -0.199 NA
ATOM      9  C   UNL     1      -0.536  -0.522  24.242  0.00  0.00    +0.271 C 
ATOM     10  O   UNL     1       0.209  -0.398  23.909  0.00  0.00    -0.268 OA
BRANCH   9  11
ATOM     11  C   UNL     1      -0.734  -1.262  24.547  0.00  0.00    +0.084 A 
ATOM     12  C   UNL     1      -0.418  -1.606  25.228  0.00  0.00    +0.012 A 
ATOM     13  C   UNL     1      -0.771  -2.345  25.327  0.00  0.00    +0.008 A 
ATOM     14  C   UNL     1      -1.304  -2.458  24.708  0.00  0.00    +0.036 A 
ATOM     15  S   UNL     1      -1.281  -1.789  24.226  0.00  0.00    -0.082 S 
ENDBRANCH   9  11
ENDBRANCH   7   8
ENDBRANCH   6   7
BRANCH   3  16
ATOM     16  N   UNL     1      -2.900   2.903  24.286  0.00  0.00    -0.209 NA
BRANCH  16  17
ATOM     17  C   UNL     1      -3.685   2.962  24.041  0.00  0.00    +0.115 C 
BRANCH  17  18
ATOM     18  C   UNL     1      -4.271   3.175  24.582  0.00  0.00    -0.004 A 
ATOM     19  C   UNL     1      -4.331   3.957  24.838  0.00  0.00    -0.003 A 
ATOM     20  C   UNL     1      -4.917   4.170  25.379  0.00  0.00    +0.000 A 
ATOM     21  C   UNL     1      -5.442   3.601  25.664  0.00  0.00    +0.010 A 
ATOM     22  C   UNL     1      -5.381   2.819  25.407  0.00  0.00    +0.068 A 
ATOM     23  C   UNL     1      -4.796   2.606  24.867  0.00  0.00    +0.007 A 
BRANCH  22  24
ATOM     24  C   UNL     1      -5.907   2.250  25.693  0.00  0.00    +0.100 C 
ATOM     25  N   UNL     1      -6.433   1.681  25.977  0.00  0.00    -0.191 NA
ENDBRANCH  22  24
ENDBRANCH  17  18
ENDBRANCH  16  17
ENDBRANCH   3  16
TORSDOF 7
ENDMDL
MODEL 10
REMARK VINA RESULT:      -7.0      1.946      2.747
REMARK  Name = 
REMARK  7 active torsions:
REMARK  status: ('A' for Active; 'I' for Inactive)
REMARK    1  A    between atoms: C_3  and  N_16
REMARK    2  A    between atoms: C_6  and  C_7
REMARK    3  A    between atoms: C_7  and  N_8
REMARK    4  A    between atoms: C_9  and  C_11
REMARK    5  A    between atoms: N_16  and  C_17
REMARK    6  A    between atoms: C_17  and  C_18
REMARK    7  A    between atoms: C_22  and  C_24
REMARK                            x       y       z     vdW  Elec       q    Type
REMARK                         _______ _______ _______ _____ _____    ______ ____
ROOT
ATOM      1  O   UNL     1      -2.506   1.144  23.781  0.00  0.00    -0.219 OA
ATOM      2  C   UNL     1      -2.079   1.346  24.457  0.00  0.00    +0.199 C 
ATOM      3  C   UNL     1      -1.535   0.865  24.849  0.00  0.00    +0.135 C 
ATOM      4  C   UNL     1      -1.241   1.285  25.494  0.00  0.00    +0.162 C 
ATOM      5  O   UNL     1      -1.602   2.026  25.502  0.00  0.00    -0.350 OA
ATOM      6  C   UNL     1      -2.120   2.063  24.861  0.00  0.00    +0.169 C 
ENDROOT
BRANCH   6   7
ATOM      7  C   UNL     1      -2.596   2.706  24.660  0.00  0.00    +0.148 C 
BRANCH   7   8
ATOM      8  N   UNL     1      -3.353   2.776  24.981  0.00  0.00    -0.199 NA
ATOM      9  C   UNL     1      -3.807   3.448  24.825  0.00  0.00    +0.271 C 
ATOM     10  O   UNL     1      -3.504   4.049  24.349  0.00  0.00    -0.268 OA
BRANCH   9  11
ATOM     11  C   UNL     1      -4.564   3.517  25.146  0.00  0.00    +0.084 A 
ATOM     12  C   UNL     1      -5.115   2.908  25.227  0.00  0.00    +0.012 A 
ATOM     13  C   UNL     1      -5.793   3.222  25.573  0.00  0.00    +0.008 A 
ATOM     14  C   UNL     1      -5.663   4.026  25.706  0.00  0.00    +0.036 A 
ATOM     15  S   UNL     1      -4.904   4.208  25.442  0.00  0.00    -0.082 S 
ENDBRANCH   9  11
ENDBRANCH   7   8
ENDBRANCH   6   7
BRANCH   3  16
ATOM     16  N   UNL     1      -1.323   0.097  24.632  0.00  0.00    -0.209 NA
BRANCH  16  17
ATOM     17  C   UNL     1      -1.376  -0.516  25.182  0.00  0.00    +0.115 C 
BRANCH  17  18
ATOM     18  C   UNL     1      -1.495  -1.292  24.925  0.00  0.00    -0.004 A 
ATOM     19  C   UNL     1      -0.846  -1.774  24.759  0.00  0.00    -0.003 A 
ATOM     20  C   UNL     1      -0.965  -2.549  24.502  0.00  0.00    +0.000 A 
ATOM     21  C   UNL     1      -1.731  -2.841  24.411  0.00  0.00    +0.010 A 
ATOM     22  C   UNL     1      -2.379  -2.358  24.577  0.00  0.00    +0.068 A 
ATOM     23  C   UNL     1      -2.261  -1.583  24.833  0.00  0.00    +0.007 A 
BRANCH  22  24
ATOM     24  C   UNL     1      -3.145  -2.651  24.485  0.00  0.00    +0.100 C 
ATOM     25  N   UNL     1      -3.911  -2.943  24.393  0.00  0.00    -0.191 NA
ENDBRANCH  22  24
ENDBRANCH  17  18
ENDBRANCH  16  17
ENDBRANCH   3  16
TORSDOF 7
ENDMDL
