MODEL 1
REMARK VINA RESULT:     -11.2      0.000      0.000
REMARK  Name = 
REMARK  8 active torsions:
REMARK  status: ('A' for Active; 'I' for Inactive)
REMARK    1  A    between atoms: N_2  and  C_4
REMARK    2  A    between atoms: C_7  and  C_10
REMARK    3  A    between atoms: N_12  and  C_13
REMARK    4  A    between atoms: C_18  and  C_19
REMARK    5  A    between atoms: C_19  and  C_20
REMARK    6  A    between atoms: C_20  and  C_21
REMARK    7  A    between atoms: N_23  and  C_24
REMARK    8  A    between atoms: C_24  and  C_25
REMARK                            x       y       z     vdW  Elec       q    Type
REMARK                         _______ _______ _______ _____ _____    ______ ____
ROOT
ATOM     13  C   UNL     1      -1.259   0.893  25.083  0.00  0.00    +0.113 C 
ATOM     14  C   UNL     1      -0.509   1.068  24.786  0.00  0.00    +0.048 C 
ATOM     15  C   UNL     1      -0.353   1.863  24.938  0.00  0.00    +0.138 C 
ATOM     16  N   UNL     1      -1.007   2.181  25.330  0.00  0.00    -0.265 NA
ATOM     17  C   UNL     1      -1.566   1.581  25.419  0.00  0.00    +0.094 C 
ATOM     18  C   UNL     1      -1.007   2.974  25.554  0.00  0.00    +0.080 C 
ATOM     31  C   UNL     1      -0.354   3.451  25.387  0.00  0.00    +0.131 C 
ATOM     32  N   UNL     1       0.298   3.134  24.996  0.00  0.00    -0.203 NA
ATOM     33  C   UNL     1       0.300   2.340  24.771  0.00  0.00    +0.256 C 
ATOM     34  O   UNL     1       0.952   2.022  24.380  0.00  0.00    -0.272 OA
ENDROOT
BRANCH  13  12
ATOM     10  C   UNL     1      -2.231   0.026  24.495  0.00  0.00    +0.265 C 
ATOM     11  O   UNL     1      -2.452   0.626  23.975  0.00  0.00    -0.268 OA
ATOM     12  N   UNL     1      -1.634   0.160  25.049  0.00  0.00    -0.202 NA
BRANCH  10   7
ATOM      4  C   UNL     1      -3.357  -2.176  24.398  0.00  0.00    +0.048 A 
ATOM      5  C   UNL     1      -2.540  -2.135  24.506  0.00  0.00    +0.015 A 
ATOM      6  C   UNL     1      -2.165  -1.401  24.538  0.00  0.00    +0.006 A 
ATOM      7  C   UNL     1      -2.606  -0.708  24.463  0.00  0.00    +0.055 A 
ATOM      8  C   UNL     1      -3.423  -0.749  24.355  0.00  0.00    +0.006 A 
ATOM      9  C   UNL     1      -3.799  -1.482  24.322  0.00  0.00    +0.015 A 
BRANCH   4   2
ATOM      1  C   UNL     1      -4.332  -3.042  23.813  0.00  0.00    +0.112 C 
ATOM      2  N   UNL     1      -3.733  -2.909  24.365  0.00  0.00    -0.304 N 
ATOM      3  C   UNL     1      -3.510  -3.510  24.885  0.00  0.00    +0.112 C 
ENDBRANCH   4   2
ENDBRANCH  10   7
ENDBRANCH  13  12
BRANCH  18  19
ATOM     19  C   UNL     1      -1.660   3.291  25.945  0.00  0.00    +0.027 C 
BRANCH  19  20
ATOM     20  C   UNL     1      -2.105   3.888  25.588  0.00  0.00    +0.088 C 
BRANCH  20  21
ATOM     21  C   UNL     1      -2.894   4.000  25.804  0.00  0.00    +0.242 C 
ATOM     22  O   UNL     1      -3.086   4.531  26.404  0.00  0.00    -0.273 OA
ATOM     23  N   UNL     1      -3.490   3.579  25.418  0.00  0.00    -0.201 NA
BRANCH  23  24
ATOM     24  C   UNL     1      -4.278   3.691  25.634  0.00  0.00    +0.141 C 
BRANCH  24  25
ATOM     25  C   UNL     1      -4.840   3.112  25.459  0.00  0.00    -0.001 A 
ATOM     26  C   UNL     1      -5.353   2.845  26.046  0.00  0.00    -0.003 A 
ATOM     27  C   UNL     1      -5.915   2.266  25.870  0.00  0.00    -0.000 A 
ATOM     28  C   UNL     1      -5.963   1.955  25.107  0.00  0.00    -0.000 A 
ATOM     29  C   UNL     1      -5.449   2.224  24.520  0.00  0.00    -0.000 A 
ATOM     30  C   UNL     1      -4.888   2.802  24.696  0.00  0.00    -0.003 A 
ENDBRANCH  24  25
ENDBRANCH  23  24
ENDBRANCH  20  21
ENDBRANCH  19  20
ENDBRANCH  18  19
TORSDOF 8
ENDMDL
MODEL 2
REMARK VINA RESULT:     -11.2      1.429      3.769
REMARK  Name = 
REMARK  8 active torsions:
REMARK  status: ('A' for Active; 'I' for Inactive)
REMARK    1  A    between atoms: N_2  and  C_4
REMARK    2  A    between atoms: C_7  and  C_10
REMARK    3  A    between atoms: N_12  and  C_13
REMARK    4  A    between atoms: C_18  and  C_19
REMARK    5  A    between atoms: C_19  and  C_20
REMARK    6  A    between atoms: C_20  and  C_21
REMARK    7  A    between atoms: N_23  and  C_24
REMARK    8  A    between atoms: C_24  and  C_25
REMARK                            x       y       z     vdW  Elec       q    Type
REMARK                         _______ _______ _______ _____ _____    ______ ____
ROOT
ATOM     13  C   UNL     1      -4.743   1.518  24.974  0.00  0.00    +0.113 C 
ATOM     14  C   UNL     1      -5.434   1.810  25.319  0.00  0.00    +0.048 C 
ATOM     15  C   UNL     1      -5.338   2.620  25.436  0.00  0.00    +0.138 C 
ATOM     16  N   UNL     1      -4.587   2.830  25.164  0.00  0.00    -0.265 NA
ATOM     17  C   UNL     1      -4.220   2.148  24.879  0.00  0.00    +0.094 C 
ATOM     18  C   UNL     1      -4.336   3.614  25.212  0.00  0.00    +0.080 C 
ATOM     31  C   UNL     1      -4.834   4.189  25.532  0.00  0.00    +0.131 C 
ATOM     32  N   UNL     1      -5.584   3.979  25.803  0.00  0.00    -0.203 NA
ATOM     33  C   UNL     1      -5.836   3.195  25.756  0.00  0.00    +0.256 C 
ATOM     34  O   UNL     1      -6.586   2.985  26.028  0.00  0.00    -0.272 OA
ENDROOT
BRANCH  13  12
ATOM     10  C   UNL     1      -3.976   0.319  25.106  0.00  0.00    +0.265 C 
ATOM     11  O   UNL     1      -3.493   0.690  25.661  0.00  0.00    -0.268 OA
ATOM     12  N   UNL     1      -4.602   0.734  24.762  0.00  0.00    -0.202 NA
BRANCH  10   7
ATOM      4  C   UNL     1      -3.554  -2.035  24.469  0.00  0.00    +0.048 A 
ATOM      5  C   UNL     1      -3.842  -1.502  23.909  0.00  0.00    +0.015 A 
ATOM      6  C   UNL     1      -3.982  -0.717  24.122  0.00  0.00    +0.006 A 
ATOM      7  C   UNL     1      -3.836  -0.465  24.893  0.00  0.00    +0.055 A 
ATOM      8  C   UNL     1      -3.548  -0.999  25.453  0.00  0.00    +0.006 A 
ATOM      9  C   UNL     1      -3.407  -1.784  25.241  0.00  0.00    +0.015 A 
BRANCH   4   2
ATOM      1  C   UNL     1      -2.662  -3.145  24.356  0.00  0.00    +0.112 C 
ATOM      2  N   UNL     1      -3.413  -2.820  24.257  0.00  0.00    -0.304 N 
ATOM      3  C   UNL     1      -4.025  -3.279  23.947  0.00  0.00    +0.112 C 
ENDBRANCH   4   2
ENDBRANCH  10   7
ENDBRANCH  13  12
BRANCH  18  19
ATOM     19  C   UNL     1      -3.586   3.823  24.940  0.00  0.00    +0.027 C 
BRANCH  19  20
ATOM     20  C   UNL     1      -3.095   4.295  25.407  0.00  0.00    +0.088 C 
BRANCH  20  21
ATOM     21  C   UNL     1      -2.290   4.352  25.232  0.00  0.00    +0.242 C 
ATOM     22  O   UNL     1      -1.978   5.061  24.951  0.00  0.00    -0.273 OA
ATOM     23  N   UNL     1      -1.798   3.699  25.339  0.00  0.00    -0.201 NA
BRANCH  23  24
ATOM     24  C   UNL     1      -0.994   3.756  25.164  0.00  0.00    +0.141 C 
BRANCH  24  25
ATOM     25  C   UNL     1      -0.531   3.074  25.124  0.00  0.00    -0.001 A 
ATOM     26  C   UNL     1      -0.284   2.702  25.818  0.00  0.00    -0.003 A 
ATOM     27  C   UNL     1       0.179   2.020  25.778  0.00  0.00    -0.000 A 
ATOM     28  C   UNL     1       0.395   1.710  25.044  0.00  0.00    -0.000 A 
ATOM     29  C   UNL     1       0.147   2.083  24.351  0.00  0.00    -0.000 A 
ATOM     30  C   UNL     1      -0.315   2.764  24.391  0.00  0.00    -0.003 A 
ENDBRANCH  24  25
ENDBRANCH  23  24
ENDBRANCH  20  21
ENDBRANCH  19  20
ENDBRANCH  18  19
TORSDOF 8
ENDMDL
MODEL 3
REMARK VINA RESULT:     -11.1      1.836      4.107
REMARK  Name = 
REMARK  8 active torsions:
REMARK  status: ('A' for Active; 'I' for Inactive)
REMARK    1  A    between atoms: N_2  and  C_4
REMARK    2  A    between atoms: C_7  and  C_10
REMARK    3  A    between atoms: N_12  and  C_13
REMARK    4  A    between atoms: C_18  and  C_19
REMARK    5  A    between atoms: C_19  and  C_20
REMARK    6  A    between atoms: C_20  and  C_21
REMARK    7  A    between atoms: N_23  and  C_24
REMARK    8  A    between atoms: C_24  and  C_25
REMARK                            x       y       z     vdW  Elec       q    Type
REMARK                         _______ _______ _______ _____ _____    ______ ____
ROOT
ATOM     13  C   UNL     1      -1.442   2.615  24.334  0.00  0.00    +0.113 C 
ATOM     14  C   UNL     1      -1.373   3.297  24.794  0.00  0.00    +0.048 C 
ATOM     15  C   UNL     1      -2.123   3.489  25.079  0.00  0.00    +0.138 C 
ATOM     16  N   UNL     1      -2.656   2.926  24.794  0.00  0.00    -0.265 NA
ATOM     17  C   UNL     1      -2.234   2.386  24.334  0.00  0.00    +0.094 C 
ATOM     18  C   UNL     1      -3.455   2.979  24.992  0.00  0.00    +0.080 C 
ATOM     31  C   UNL     1      -3.722   3.593  25.473  0.00  0.00    +0.131 C 
ATOM     32  N   UNL     1      -3.190   4.155  25.756  0.00  0.00    -0.203 NA
ATOM     33  C   UNL     1      -2.390   4.104  25.560  0.00  0.00    +0.256 C 
ATOM     34  O   UNL     1      -1.858   4.666  25.843  0.00  0.00    -0.272 OA
ENDROOT
BRANCH  13  12
ATOM     10  C   UNL     1      -0.496   1.546  24.264  0.00  0.00    +0.265 C 
ATOM     11  O   UNL     1      -0.782   1.246  24.977  0.00  0.00    -0.268 OA
ATOM     12  N   UNL     1      -0.826   2.230  23.943  0.00  0.00    -0.202 NA
BRANCH  10   7
ATOM      4  C   UNL     1       1.352   0.394  23.087  0.00  0.00    +0.048 A 
ATOM      5  C   UNL     1       1.484   1.123  23.448  0.00  0.00    +0.015 A 
ATOM      6  C   UNL     1       0.868   1.507  23.841  0.00  0.00    +0.006 A 
ATOM      7  C   UNL     1       0.120   1.162  23.872  0.00  0.00    +0.055 A 
ATOM      8  C   UNL     1      -0.013   0.433  23.510  0.00  0.00    +0.006 A 
ATOM      9  C   UNL     1       0.602   0.048  23.118  0.00  0.00    +0.015 A 
BRANCH   4   2
ATOM      1  C   UNL     1       2.727   0.011  23.015  0.00  0.00    +0.112 C 
ATOM      2  N   UNL     1       1.967   0.009  22.694  0.00  0.00    -0.304 N 
ATOM      3  C   UNL     1       1.821  -0.378  21.980  0.00  0.00    +0.112 C 
ENDBRANCH   4   2
ENDBRANCH  10   7
ENDBRANCH  13  12
BRANCH  18  19
ATOM     19  C   UNL     1      -3.987   2.416  24.707  0.00  0.00    +0.027 C 
BRANCH  19  20
ATOM     20  C   UNL     1      -4.420   1.953  25.237  0.00  0.00    +0.088 C 
BRANCH  20  21
ATOM     21  C   UNL     1      -4.757   1.243  24.985  0.00  0.00    +0.242 C 
ATOM     22  O   UNL     1      -5.524   1.236  24.682  0.00  0.00    -0.273 OA
ATOM     23  N   UNL     1      -4.326   0.542  25.036  0.00  0.00    -0.201 NA
BRANCH  23  24
ATOM     24  C   UNL     1      -4.664  -0.167  24.783  0.00  0.00    +0.141 C 
BRANCH  24  25
ATOM     25  C   UNL     1      -4.207  -0.855  24.757  0.00  0.00    -0.001 A 
ATOM     26  C   UNL     1      -4.257  -1.358  24.105  0.00  0.00    -0.003 A 
ATOM     27  C   UNL     1      -3.800  -2.045  24.080  0.00  0.00    -0.000 A 
ATOM     28  C   UNL     1      -3.295  -2.229  24.705  0.00  0.00    -0.000 A 
ATOM     29  C   UNL     1      -3.246  -1.725  25.357  0.00  0.00    -0.000 A 
ATOM     30  C   UNL     1      -3.702  -1.038  25.383  0.00  0.00    -0.003 A 
ENDBRANCH  24  25
ENDBRANCH  23  24
ENDBRANCH  20  21
ENDBRANCH  19  20
ENDBRANCH  18  19
TORSDOF 8
ENDMDL
MODEL 4
REMARK VINA RESULT:     -10.3      1.503      5.117
REMARK  Name = 
REMARK  8 active torsions:
REMARK  status: ('A' for Active; 'I' for Inactive)
REMARK    1  A    between atoms: N_2  and  C_4
REMARK    2  A    between atoms: C_7  and  C_10
REMARK    3  A    between atoms: N_12  and  C_13
REMARK    4  A    between atoms: C_18  and  C_19
REMARK    5  A    between atoms: C_19  and  C_20
REMARK    6  A    between atoms: C_20  and  C_21
REMARK    7  A    between atoms: N_23  and  C_24
REMARK    8  A    between atoms: C_24  and  C_25
REMARK                            x       y       z     vdW  Elec       q    Type
REMARK                         _______ _______ _______ _____ _____    ______ ____
ROOT
ATOM     13  C   UNL     1      -3.584  -0.501  25.008  0.00  0.00    +0.113 C 
ATOM     14  C   UNL     1      -3.907  -1.228  24.787  0.00  0.00    +0.048 C 
ATOM     15  C   UNL     1      -3.284  -1.742  24.621  0.00  0.00    +0.138 C 
ATOM     16  N   UNL     1      -2.577  -1.333  24.739  0.00  0.00    -0.265 NA
ATOM     17  C   UNL     1      -2.763  -0.566  24.978  0.00  0.00    +0.094 C 
ATOM     18  C   UNL     1      -1.855  -1.713  24.612  0.00  0.00    +0.080 C 
ATOM     31  C   UNL     1      -1.841  -2.501  24.369  0.00  0.00    +0.131 C 
ATOM     32  N   UNL     1      -2.547  -2.909  24.251  0.00  0.00    -0.203 NA
ATOM     33  C   UNL     1      -3.269  -2.531  24.377  0.00  0.00    +0.256 C 
ATOM     34  O   UNL     1      -3.976  -2.939  24.260  0.00  0.00    -0.272 OA
ENDROOT
BRANCH  13  12
ATOM     10  C   UNL     1      -4.047   0.818  24.708  0.00  0.00    +0.265 C 
ATOM     11  O   UNL     1      -3.658   0.789  23.982  0.00  0.00    -0.268 OA
ATOM     12  N   UNL     1      -4.010   0.173  25.221  0.00  0.00    -0.202 NA
BRANCH  10   7
ATOM      4  C   UNL     1      -5.324   2.838  25.352  0.00  0.00    +0.048 A 
ATOM      5  C   UNL     1      -5.723   2.146  25.149  0.00  0.00    +0.015 A 
ATOM      6  C   UNL     1      -5.297   1.472  24.934  0.00  0.00    +0.006 A 
ATOM      7  C   UNL     1      -4.473   1.491  24.923  0.00  0.00    +0.055 A 
ATOM      8  C   UNL     1      -4.074   2.184  25.126  0.00  0.00    +0.006 A 
ATOM      9  C   UNL     1      -4.498   2.858  25.340  0.00  0.00    +0.015 A 
BRANCH   4   2
ATOM      1  C   UNL     1      -5.441   4.261  25.410  0.00  0.00    +0.112 C 
ATOM      2  N   UNL     1      -5.749   3.512  25.566  0.00  0.00    -0.304 N 
ATOM      3  C   UNL     1      -6.482   3.436  25.937  0.00  0.00    +0.112 C 
ENDBRANCH   4   2
ENDBRANCH  10   7
ENDBRANCH  13  12
BRANCH  18  19
ATOM     19  C   UNL     1      -1.149  -1.304  24.730  0.00  0.00    +0.027 C 
BRANCH  19  20
ATOM     20  C   UNL     1      -0.711  -1.042  24.081  0.00  0.00    +0.088 C 
BRANCH  20  21
ATOM     21  C   UNL     1      -0.149  -0.445  24.177  0.00  0.00    +0.242 C 
ATOM     22  O   UNL     1       0.654  -0.630  24.171  0.00  0.00    -0.273 OA
ATOM     23  N   UNL     1      -0.392   0.337  24.278  0.00  0.00    -0.201 NA
BRANCH  23  24
ATOM     24  C   UNL     1       0.171   0.933  24.374  0.00  0.00    +0.141 C 
BRANCH  24  25
ATOM     25  C   UNL     1      -0.066   1.691  24.599  0.00  0.00    -0.001 A 
ATOM     26  C   UNL     1      -0.006   1.924  25.388  0.00  0.00    -0.003 A 
ATOM     27  C   UNL     1      -0.243   2.682  25.613  0.00  0.00    -0.000 A 
ATOM     28  C   UNL     1      -0.540   3.206  25.049  0.00  0.00    -0.000 A 
ATOM     29  C   UNL     1      -0.600   2.972  24.260  0.00  0.00    -0.000 A 
ATOM     30  C   UNL     1      -0.363   2.215  24.035  0.00  0.00    -0.003 A 
ENDBRANCH  24  25
ENDBRANCH  23  24
ENDBRANCH  20  21
ENDBRANCH  19  20
ENDBRANCH  18  19
TORSDOF 8
ENDMDL
MODEL 5
REMARK VINA RESULT:      -9.9      1.285      4.612
REMARK  Name = 
REMARK  8 active torsions:
REMARK  status: ('A' for Active; 'I' for Inactive)
REMARK    1  A    between atoms: N_2  and  C_4
REMARK    2  A    between atoms: C_7  and  C_10
REMARK    3  A    between atoms: N_12  and  C_13
REMARK    4  A    between atoms: C_18  and  C_19
REMARK    5  A    between atoms: C_19  and  C_20
REMARK    6  A    between atoms: C_20  and  C_21
REMARK    7  A    between atoms: N_23  and  C_24
REMARK    8  A    between atoms: C_24  and  C_25
REMARK                            x       y       z     vdW  Elec       q    Type
REMARK                         _______ _______ _______ _____ _____    ______ ____
ROOT
ATOM     13  C   UNL     1      -1.620   2.054  24.936  0.00  0.00    +0.113 C 
ATOM     14  C   UNL     1      -1.003   2.433  24.541  0.00  0.00    +0.048 C 
ATOM     15  C   UNL     1      -0.404   1.879  24.414  0.00  0.00    +0.138 C 
ATOM     16  N   UNL     1      -0.652   1.158  24.731  0.00  0.00    -0.265 NA
ATOM     17  C   UNL     1      -1.404   1.267  25.054  0.00  0.00    +0.094 C 
ATOM     18  C   UNL     1      -0.161   0.497  24.685  0.00  0.00    +0.080 C 
ATOM     31  C   UNL     1       0.578   0.556  24.322  0.00  0.00    +0.131 C 
ATOM     32  N   UNL     1       0.825   1.276  24.005  0.00  0.00    -0.203 NA
ATOM     33  C   UNL     1       0.334   1.938  24.051  0.00  0.00    +0.256 C 
ATOM     34  O   UNL     1       0.582   2.658  23.734  0.00  0.00    -0.272 OA
ENDROOT
BRANCH  13  12
ATOM     10  C   UNL     1      -2.990   2.370  24.679  0.00  0.00    +0.265 C 
ATOM     11  O   UNL     1      -2.941   1.988  23.950  0.00  0.00    -0.268 OA
ATOM     12  N   UNL     1      -2.330   2.402  25.172  0.00  0.00    -0.202 NA
BRANCH  10   7
ATOM      4  C   UNL     1      -5.118   3.415  25.390  0.00  0.00    +0.048 A 
ATOM      5  C   UNL     1      -4.409   3.829  25.469  0.00  0.00    +0.015 A 
ATOM      6  C   UNL     1      -3.700   3.480  25.232  0.00  0.00    +0.006 A 
ATOM      7  C   UNL     1      -3.699   2.719  24.916  0.00  0.00    +0.055 A 
ATOM      8  C   UNL     1      -4.409   2.305  24.837  0.00  0.00    +0.006 A 
ATOM      9  C   UNL     1      -5.118   2.653  25.074  0.00  0.00    +0.015 A 
BRANCH   4   2
ATOM      1  C   UNL     1      -5.935   4.577  25.549  0.00  0.00    +0.112 C 
ATOM      2  N   UNL     1      -5.828   3.763  25.627  0.00  0.00    -0.304 N 
ATOM      3  C   UNL     1      -6.431   3.295  25.942  0.00  0.00    +0.112 C 
ENDBRANCH   4   2
ENDBRANCH  10   7
ENDBRANCH  13  12
BRANCH  18  19
ATOM     19  C   UNL     1      -0.409  -0.223  25.002  0.00  0.00    +0.027 C 
BRANCH  19  20
ATOM     20  C   UNL     1      -0.456  -0.891  24.520  0.00  0.00    +0.088 C 
BRANCH  20  21
ATOM     21  C   UNL     1      -0.946  -1.520  24.733  0.00  0.00    +0.242 C 
ATOM     22  O   UNL     1      -0.666  -2.108  25.238  0.00  0.00    -0.273 OA
ATOM     23  N   UNL     1      -1.716  -1.560  24.441  0.00  0.00    -0.201 NA
BRANCH  23  24
ATOM     24  C   UNL     1      -2.205  -2.189  24.654  0.00  0.00    +0.141 C 
BRANCH  24  25
ATOM     25  C   UNL     1      -2.989  -2.208  24.395  0.00  0.00    -0.001 A 
ATOM     26  C   UNL     1      -3.337  -2.926  24.187  0.00  0.00    -0.003 A 
ATOM     27  C   UNL     1      -4.121  -2.945  23.928  0.00  0.00    -0.000 A 
ATOM     28  C   UNL     1      -4.556  -2.246  23.878  0.00  0.00    -0.000 A 
ATOM     29  C   UNL     1      -4.207  -1.528  24.087  0.00  0.00    -0.000 A 
ATOM     30  C   UNL     1      -3.424  -1.508  24.345  0.00  0.00    -0.003 A 
ENDBRANCH  24  25
ENDBRANCH  23  24
ENDBRANCH  20  21
ENDBRANCH  19  20
ENDBRANCH  18  19
TORSDOF 8
ENDMDL
MODEL 6
REMARK VINA RESULT:      -9.9      1.909      4.236
REMARK  Name = 
REMARK  8 active torsions:
REMARK  status: ('A' for Active; 'I' for Inactive)
REMARK    1  A    between atoms: N_2  and  C_4
REMARK    2  A    between atoms: C_7  and  C_10
REMARK    3  A    between atoms: N_12  and  C_13
REMARK    4  A    between atoms: C_18  and  C_19
REMARK    5  A    between atoms: C_19  and  C_20
REMARK    6  A    between atoms: C_20  and  C_21
REMARK    7  A    between atoms: N_23  and  C_24
REMARK    8  A    between atoms: C_24  and  C_25
REMARK                            x       y       z     vdW  Elec       q    Type
REMARK                         _______ _______ _______ _____ _____    ______ ____
ROOT
ATOM     13  C   UNL     1      -2.236   0.265  24.100  0.00  0.00    +0.113 C 
ATOM     14  C   UNL     1      -2.650  -0.381  24.405  0.00  0.00    +0.048 C 
ATOM     15  C   UNL     1      -3.360  -0.104  24.719  0.00  0.00    +0.138 C 
ATOM     16  N   UNL     1      -3.385   0.714  24.609  0.00  0.00    -0.265 NA
ATOM     17  C   UNL     1      -2.690   0.941  24.226  0.00  0.00    +0.094 C 
ATOM     18  C   UNL     1      -4.038   1.145  24.871  0.00  0.00    +0.080 C 
ATOM     31  C   UNL     1      -4.665   0.759  25.243  0.00  0.00    +0.131 C 
ATOM     32  N   UNL     1      -4.640  -0.057  25.353  0.00  0.00    -0.203 NA
ATOM     33  C   UNL     1      -3.987  -0.490  25.091  0.00  0.00    +0.256 C 
ATOM     34  O   UNL     1      -3.962  -1.306  25.201  0.00  0.00    -0.272 OA
ENDROOT
BRANCH  13  12
ATOM     10  C   UNL     1      -0.812   0.363  24.177  0.00  0.00    +0.265 C 
ATOM     11  O   UNL     1      -0.866   0.516  24.985  0.00  0.00    -0.268 OA
ATOM     12  N   UNL     1      -1.497   0.238  23.734  0.00  0.00    -0.202 NA
BRANCH  10   7
ATOM      4  C   UNL     1       1.403   0.280  23.074  0.00  0.00    +0.048 A 
ATOM      5  C   UNL     1       1.157   0.969  23.455  0.00  0.00    +0.015 A 
ATOM      6  C   UNL     1       0.419   0.997  23.823  0.00  0.00    +0.006 A 
ATOM      7  C   UNL     1      -0.074   0.336  23.809  0.00  0.00    +0.055 A 
ATOM      8  C   UNL     1       0.172  -0.353  23.428  0.00  0.00    +0.006 A 
ATOM      9  C   UNL     1       0.909  -0.382  23.061  0.00  0.00    +0.015 A 
BRANCH   4   2
ATOM      1  C   UNL     1       2.235  -0.166  22.001  0.00  0.00    +0.112 C 
ATOM      2  N   UNL     1       2.140   0.251  22.707  0.00  0.00    -0.304 N 
ATOM      3  C   UNL     1       2.785   0.640  23.046  0.00  0.00    +0.112 C 
ENDBRANCH   4   2
ENDBRANCH  10   7
ENDBRANCH  13  12
BRANCH  18  19
ATOM     19  C   UNL     1      -4.063   1.962  24.760  0.00  0.00    +0.027 C 
BRANCH  19  20
ATOM     20  C   UNL     1      -4.237   2.459  25.396  0.00  0.00    +0.088 C 
BRANCH  20  21
ATOM     21  C   UNL     1      -4.009   3.252  25.375  0.00  0.00    +0.242 C 
ATOM     22  O   UNL     1      -4.569   3.838  25.224  0.00  0.00    -0.273 OA
ATOM     23  N   UNL     1      -3.221   3.458  25.503  0.00  0.00    -0.201 NA
BRANCH  23  24
ATOM     24  C   UNL     1      -2.994   4.251  25.481  0.00  0.00    +0.141 C 
BRANCH  24  25
ATOM     25  C   UNL     1      -2.206   4.450  25.336  0.00  0.00    -0.001 A 
ATOM     26  C   UNL     1      -1.608   3.900  25.483  0.00  0.00    -0.003 A 
ATOM     27  C   UNL     1      -0.820   4.099  25.337  0.00  0.00    -0.000 A 
ATOM     28  C   UNL     1      -0.631   4.847  25.045  0.00  0.00    -0.000 A 
ATOM     29  C   UNL     1      -1.229   5.396  24.899  0.00  0.00    -0.000 A 
ATOM     30  C   UNL     1      -2.016   5.198  25.044  0.00  0.00    -0.003 A 
ENDBRANCH  24  25
ENDBRANCH  23  24
ENDBRANCH  20  21
ENDBRANCH  19  20
ENDBRANCH  18  19
TORSDOF 8
ENDMDL
MODEL 7
REMARK VINA RESULT:      -9.8      1.495      4.646
REMARK  Name = 
REMARK  8 active torsions:
REMARK  status: ('A' for Active; 'I' for Inactive)
REMARK    1  A    between atoms: N_2  and  C_4
REMARK    2  A    between atoms: C_7  and  C_10
REMARK    3  A    between atoms: N_12  and  C_13
REMARK    4  A    between atoms: C_18  and  C_19
REMARK    5  A    between atoms: C_19  and  C_20
REMARK    6  A    between atoms: C_20  and  C_21
REMARK    7  A    between atoms: N_23  and  C_24
REMARK    8  A    between atoms: C_24  and  C_25
REMARK                            x       y       z     vdW  Elec       q    Type
REMARK                         _______ _______ _______ _____ _____    ______ ____
ROOT
ATOM     13  C   UNL     1      -1.170   0.470  24.657  0.00  0.00    +0.113 C 
ATOM     14  C   UNL     1      -0.620  -0.081  24.932  0.00  0.00    +0.048 C 
ATOM     15  C   UNL     1      -0.973  -0.827  24.907  0.00  0.00    +0.138 C 
ATOM     16  N   UNL     1      -1.740  -0.736  24.617  0.00  0.00    -0.265 NA
ATOM     17  C   UNL     1      -1.862   0.065  24.463  0.00  0.00    +0.094 C 
ATOM     18  C   UNL     1      -2.229  -1.396  24.531  0.00  0.00    +0.080 C 
ATOM     31  C   UNL     1      -1.950  -2.145  24.735  0.00  0.00    +0.131 C 
ATOM     32  N   UNL     1      -1.184  -2.235  25.024  0.00  0.00    -0.203 NA
ATOM     33  C   UNL     1      -0.694  -1.576  25.111  0.00  0.00    +0.256 C 
ATOM     34  O   UNL     1       0.072  -1.666  25.400  0.00  0.00    -0.272 OA
ENDROOT
BRANCH  13  12
ATOM     10  C   UNL     1      -1.359   1.796  25.156  0.00  0.00    +0.265 C 
ATOM     11  O   UNL     1      -1.792   1.496  25.790  0.00  0.00    -0.268 OA
ATOM     12  N   UNL     1      -1.048   1.283  24.590  0.00  0.00    -0.202 NA
BRANCH  10   7
ATOM      4  C   UNL     1      -0.992   4.235  24.950  0.00  0.00    +0.048 A 
ATOM      5  C   UNL     1      -0.605   3.715  24.440  0.00  0.00    +0.015 A 
ATOM      6  C   UNL     1      -0.728   2.902  24.508  0.00  0.00    +0.006 A 
ATOM      7  C   UNL     1      -1.236   2.609  25.087  0.00  0.00    +0.055 A 
ATOM      8  C   UNL     1      -1.623   3.128  25.598  0.00  0.00    +0.006 A 
ATOM      9  C   UNL     1      -1.501   3.941  25.530  0.00  0.00    +0.015 A 
BRANCH   4   2
ATOM      1  C   UNL     1      -1.468   5.574  25.096  0.00  0.00    +0.112 C 
ATOM      2  N   UNL     1      -0.870   5.048  24.883  0.00  0.00    -0.304 N 
ATOM      3  C   UNL     1      -0.148   5.334  24.601  0.00  0.00    +0.112 C 
ENDBRANCH   4   2
ENDBRANCH  10   7
ENDBRANCH  13  12
BRANCH  18  19
ATOM     19  C   UNL     1      -2.995  -1.305  24.241  0.00  0.00    +0.027 C 
BRANCH  19  20
ATOM     20  C   UNL     1      -3.633  -1.273  24.765  0.00  0.00    +0.088 C 
BRANCH  20  21
ATOM     21  C   UNL     1      -4.316  -0.858  24.558  0.00  0.00    +0.242 C 
ATOM     22  O   UNL     1      -4.853  -1.185  24.026  0.00  0.00    -0.273 OA
ATOM     23  N   UNL     1      -4.461  -0.115  24.886  0.00  0.00    -0.201 NA
BRANCH  23  24
ATOM     24  C   UNL     1      -5.144   0.300  24.680  0.00  0.00    +0.141 C 
BRANCH  24  25
ATOM     25  C   UNL     1      -5.223   1.094  24.891  0.00  0.00    -0.001 A 
ATOM     26  C   UNL     1      -5.580   1.297  25.606  0.00  0.00    -0.003 A 
ATOM     27  C   UNL     1      -5.660   2.091  25.816  0.00  0.00    -0.000 A 
ATOM     28  C   UNL     1      -5.381   2.682  25.312  0.00  0.00    -0.000 A 
ATOM     29  C   UNL     1      -5.023   2.477  24.597  0.00  0.00    -0.000 A 
ATOM     30  C   UNL     1      -4.944   1.684  24.386  0.00  0.00    -0.003 A 
ENDBRANCH  24  25
ENDBRANCH  23  24
ENDBRANCH  20  21
ENDBRANCH  19  20
ENDBRANCH  18  19
TORSDOF 8
ENDMDL
MODEL 8
REMARK VINA RESULT:      -9.6      2.541      6.122
REMARK  Name = 
REMARK  8 active torsions:
REMARK  status: ('A' for Active; 'I' for Inactive)
REMARK    1  A    between atoms: N_2  and  C_4
REMARK    2  A    between atoms: C_7  and  C_10
REMARK    3  A    between atoms: N_12  and  C_13
REMARK    4  A    between atoms: C_18  and  C_19
REMARK    5  A    between atoms: C_19  and  C_20
REMARK    6  A    between atoms: C_20  and  C_21
REMARK    7  A    between atoms: N_23  and  C_24
REMARK    8  A    between atoms: C_24  and  C_25
REMARK                            x       y       z     vdW  Elec       q    Type
REMARK                         _______ _______ _______ _____ _____    ______ ____
ROOT
ATOM     13  C   UNL     1      -2.484   0.005  24.967  0.00  0.00    +0.113 C 
ATOM     14  C   UNL     1      -2.634  -0.800  25.072  0.00  0.00    +0.048 C 
ATOM     15  C   UNL     1      -1.983  -1.219  24.786  0.00  0.00    +0.138 C 
ATOM     16  N   UNL     1      -1.431  -0.674  24.505  0.00  0.00    -0.265 NA
ATOM     17  C   UNL     1      -1.741   0.083  24.617  0.00  0.00    +0.094 C 
ATOM     18  C   UNL     1      -0.719  -0.937  24.183  0.00  0.00    +0.080 C 
ATOM     31  C   UNL     1      -0.558  -1.745  24.142  0.00  0.00    +0.131 C 
ATOM     32  N   UNL     1      -1.109  -2.290  24.423  0.00  0.00    -0.203 NA
ATOM     33  C   UNL     1      -1.822  -2.028  24.745  0.00  0.00    +0.256 C 
ATOM     34  O   UNL     1      -2.374  -2.572  25.026  0.00  0.00    -0.272 OA
ENDROOT
BRANCH  13  12
ATOM     10  C   UNL     1      -3.508   0.939  24.619  0.00  0.00    +0.265 C 
ATOM     11  O   UNL     1      -3.522   0.638  23.852  0.00  0.00    -0.268 OA
ATOM     12  N   UNL     1      -2.988   0.623  25.177  0.00  0.00    -0.202 NA
BRANCH  10   7
ATOM      4  C   UNL     1      -5.020   2.794  25.252  0.00  0.00    +0.048 A 
ATOM      5  C   UNL     1      -5.278   2.012  25.312  0.00  0.00    +0.015 A 
ATOM      6  C   UNL     1      -4.774   1.394  25.101  0.00  0.00    +0.006 A 
ATOM      7  C   UNL     1      -4.012   1.557  24.831  0.00  0.00    +0.055 A 
ATOM      8  C   UNL     1      -3.754   2.338  24.771  0.00  0.00    +0.006 A 
ATOM      9  C   UNL     1      -4.257   2.957  24.981  0.00  0.00    +0.015 A 
BRANCH   4   2
ATOM      1  C   UNL     1      -6.272   3.250  25.768  0.00  0.00    +0.112 C 
ATOM      2  N   UNL     1      -5.523   3.412  25.463  0.00  0.00    -0.304 N 
ATOM      3  C   UNL     1      -5.277   4.195  25.368  0.00  0.00    +0.112 C 
ENDBRANCH   4   2
ENDBRANCH  10   7
ENDBRANCH  13  12
BRANCH  18  19
ATOM     19  C   UNL     1      -0.168  -0.391  23.902  0.00  0.00    +0.027 C 
BRANCH  19  20
ATOM     20  C   UNL     1       0.510  -0.654  23.510  0.00  0.00    +0.088 C 
BRANCH  20  21
ATOM     21  C   UNL     1       0.990  -0.115  23.110  0.00  0.00    +0.242 C 
ATOM     22  O   UNL     1       0.652   0.515  22.702  0.00  0.00    -0.273 OA
ATOM     23  N   UNL     1       1.810  -0.208  23.120  0.00  0.00    -0.201 NA
BRANCH  23  24
ATOM     24  C   UNL     1       2.290   0.331  22.721  0.00  0.00    +0.141 C 
BRANCH  24  25
ATOM     25  C   UNL     1       3.106   0.328  22.846  0.00  0.00    -0.001 A 
ATOM     26  C   UNL     1       3.548   1.009  22.698  0.00  0.00    -0.003 A 
ATOM     27  C   UNL     1       4.364   1.005  22.823  0.00  0.00    -0.000 A 
ATOM     28  C   UNL     1       4.737   0.322  23.096  0.00  0.00    -0.000 A 
ATOM     29  C   UNL     1       4.294  -0.359  23.243  0.00  0.00    -0.000 A 
ATOM     30  C   UNL     1       3.479  -0.356  23.118  0.00  0.00    -0.003 A 
ENDBRANCH  24  25
ENDBRANCH  23  24
ENDBRANCH  20  21
ENDBRANCH  19  20
ENDBRANCH  18  19
TORSDOF 8
ENDMDL
MODEL 9
REMARK VINA RESULT:      -7.3     14.260     16.141
REMARK  Name = 
REMARK  8 active torsions:
REMARK  status: ('A' for Active; 'I' for Inactive)
REMARK    1  A    between atoms: N_2  and  C_4
REMARK    2  A    between atoms: C_7  and  C_10
REMARK    3  A    between atoms: N_12  and  C_13
REMARK    4  A    between atoms: C_18  and  C_19
REMARK    5  A    between atoms: C_19  and  C_20
REMARK    6  A    between atoms: C_20  and  C_21
REMARK    7  A    between atoms: N_23  and  C_24
REMARK    8  A    between atoms: C_24  and  C_25
REMARK                            x       y       z     vdW  Elec       q    Type
REMARK                         _______ _______ _______ _____ _____    ______ ____
ROOT
ATOM     13  C   UNL     1      -5.124 -10.576  14.148  0.00  0.00    +0.113 C 
ATOM     14  C   UNL     1      -4.486 -10.562  14.672  0.00  0.00    +0.048 C 
ATOM     15  C   UNL     1      -4.782 -10.416  15.428  0.00  0.00    +0.138 C 
ATOM     16  N   UNL     1      -5.602 -10.340  15.371  0.00  0.00    -0.265 NA
ATOM     17  C   UNL     1      -5.813 -10.439  14.580  0.00  0.00    +0.094 C 
ATOM     18  C   UNL     1      -6.049 -10.191  16.048  0.00  0.00    +0.080 C 
ATOM     31  C   UNL     1      -5.678 -10.117  16.781  0.00  0.00    +0.131 C 
ATOM     32  N   UNL     1      -4.859 -10.193  16.837  0.00  0.00    -0.203 NA
ATOM     33  C   UNL     1      -4.410 -10.342  16.161  0.00  0.00    +0.256 C 
ATOM     34  O   UNL     1      -3.591 -10.418  16.217  0.00  0.00    -0.272 OA
ENDROOT
BRANCH  13  12
ATOM     10  C   UNL     1      -5.165 -10.073  12.810  0.00  0.00    +0.265 C 
ATOM     11  O   UNL     1      -5.295  -9.313  13.100  0.00  0.00    -0.268 OA
ATOM     12  N   UNL     1      -5.079 -10.705  13.334  0.00  0.00    -0.202 NA
BRANCH  10   7
ATOM      4  C   UNL     1      -5.028 -10.463  10.370  0.00  0.00    +0.048 A 
ATOM      5  C   UNL     1      -5.749 -10.551  10.762  0.00  0.00    +0.015 A 
ATOM      6  C   UNL     1      -5.794 -10.421  11.575  0.00  0.00    +0.006 A 
ATOM      7  C   UNL     1      -5.120 -10.203  11.997  0.00  0.00    +0.055 A 
ATOM      8  C   UNL     1      -4.399 -10.116  11.605  0.00  0.00    +0.006 A 
ATOM      9  C   UNL     1      -4.353 -10.245  10.792  0.00  0.00    +0.015 A 
BRANCH   4   2
ATOM      1  C   UNL     1      -4.255 -10.536   9.170  0.00  0.00    +0.112 C 
ATOM      2  N   UNL     1      -4.982 -10.593   9.557  0.00  0.00    -0.304 N 
ATOM      3  C   UNL     1      -5.663 -10.781   9.130  0.00  0.00    +0.112 C 
ENDBRANCH   4   2
ENDBRANCH  10   7
ENDBRANCH  13  12
BRANCH  18  19
ATOM     19  C   UNL     1      -6.869 -10.115  15.991  0.00  0.00    +0.027 C 
BRANCH  19  20
ATOM     20  C   UNL     1      -7.292  -9.747  16.597  0.00  0.00    +0.088 C 
BRANCH  20  21
ATOM     21  C   UNL     1      -8.118  -9.751  16.585  0.00  0.00    +0.242 C 
ATOM     22  O   UNL     1      -8.526 -10.466  16.617  0.00  0.00    -0.273 OA
ATOM     23  N   UNL     1      -8.533  -9.040  16.541  0.00  0.00    -0.201 NA
BRANCH  23  24
ATOM     24  C   UNL     1      -9.358  -9.045  16.530  0.00  0.00    +0.141 C 
BRANCH  24  25
ATOM     25  C   UNL     1      -9.774  -8.333  16.489  0.00  0.00    -0.001 A 
ATOM     26  C   UNL     1     -10.081  -7.996  17.176  0.00  0.00    -0.003 A 
ATOM     27  C   UNL     1     -10.498  -7.284  17.135  0.00  0.00    -0.000 A 
ATOM     28  C   UNL     1     -10.605  -6.911  16.407  0.00  0.00    -0.000 A 
ATOM     29  C   UNL     1     -10.297  -7.249  15.720  0.00  0.00    -0.000 A 
ATOM     30  C   UNL     1      -9.881  -7.960  15.761  0.00  0.00    -0.003 A 
ENDBRANCH  24  25
ENDBRANCH  23  24
ENDBRANCH  20  21
ENDBRANCH  19  20
ENDBRANCH  18  19
TORSDOF 8
ENDMDL
