MODEL 1
REMARK VINA RESULT:     -14.4      0.000      0.000
REMARK  Name = 
REMARK  3 active torsions:
REMARK  status: ('A' for Active; 'I' for Inactive)
REMARK    1  A    between atoms: C_7  and  N_10
REMARK    2  A    between atoms: C_17  and  N_18
REMARK    3  A    between atoms: C_19  and  C_21
REMARK                            x       y       z     vdW  Elec       q    Type
REMARK                         _______ _______ _______ _____ _____    ______ ____
ROOT
ATOM     10  N   UNL     1      -4.683   3.083  25.280  0.00  0.00    -0.273 NA
ATOM     11  C   UNL     1      -5.508   2.990  25.373  0.00  0.00    +0.074 C 
ATOM     12  C   UNL     1      -5.586   2.020  25.201  0.00  0.00    +0.039 C 
ATOM     13  C   UNL     1      -5.816   1.247  25.086  0.00  0.00    +0.011 C 
ATOM     14  C   UNL     1      -5.220   1.618  25.076  0.00  0.00    +0.056 C 
ATOM     15  C   UNL     1      -5.161   2.556  25.245  0.00  0.00    +0.078 C 
ATOM     16  C   UNL     1      -4.317   1.526  24.936  0.00  0.00    +0.056 A 
ATOM     17  C   UNL     1      -3.752   0.954  24.752  0.00  0.00    +0.086 A 
ATOM     26  C   UNL     1      -2.957   1.166  24.685  0.00  0.00    +0.023 A 
ATOM     27  C   UNL     1      -2.728   1.950  24.802  0.00  0.00    +0.062 A 
ATOM     28  C   UNL     1      -3.292   2.522  24.986  0.00  0.00    +0.261 A 
ATOM     29  O   UNL     1      -2.646   3.033  24.996  0.00  0.00    -0.267 OA
ATOM     30  N   UNL     1      -4.087   2.310  25.053  0.00  0.00    -0.298 N 
ATOM     31  C   UNL     1      -4.641   1.934  25.057  0.00  0.00    +0.110 C 
ENDROOT
BRANCH  10   7
ATOM      1  C   UNL     1      -1.476   4.911  24.460  0.00  0.00    +0.095 C 
ATOM      2  C   UNL     1      -1.748   4.588  25.169  0.00  0.00    +0.226 C 
ATOM      3  O   UNL     1      -1.285   4.640  25.850  0.00  0.00    -0.275 OA
ATOM      4  N   UNL     1      -2.481   4.211  25.197  0.00  0.00    -0.279 N 
ATOM      5  C   UNL     1      -2.753   3.888  25.905  0.00  0.00    +0.095 C 
ATOM      6  C   UNL     1      -3.486   3.512  25.933  0.00  0.00    +0.038 C 
ATOM      7  C   UNL     1      -3.949   3.459  25.252  0.00  0.00    +0.061 C 
ATOM      8  C   UNL     1      -3.678   3.782  24.543  0.00  0.00    +0.038 C 
ATOM      9  C   UNL     1      -2.944   4.159  24.515  0.00  0.00    +0.095 C 
ENDBRANCH  10   7
BRANCH  17  18
ATOM     18  N   UNL     1      -3.981   0.170  24.635  0.00  0.00    -0.174 NA
ATOM     19  C   UNL     1      -3.410  -0.416  24.531  0.00  0.00    +0.275 C 
ATOM     20  O   UNL     1      -2.610  -0.218  24.543  0.00  0.00    -0.267 OA
BRANCH  19  21
ATOM     21  C   UNL     1      -3.640  -1.199  24.414  0.00  0.00    +0.085 A 
ATOM     22  C   UNL     1      -4.103  -1.481  23.791  0.00  0.00    +0.012 A 
ATOM     23  C   UNL     1      -4.196  -2.295  23.891  0.00  0.00    +0.008 A 
ATOM     24  C   UNL     1      -3.791  -2.515  24.576  0.00  0.00    +0.036 A 
ATOM     25  S   UNL     1      -3.448  -1.839  24.898  0.00  0.00    -0.082 S 
ENDBRANCH  19  21
ENDBRANCH  17  18
TORSDOF 3
ENDMDL
MODEL 2
REMARK VINA RESULT:     -14.0      1.565      4.397
REMARK  Name = 
REMARK  3 active torsions:
REMARK  status: ('A' for Active; 'I' for Inactive)
REMARK    1  A    between atoms: C_7  and  N_10
REMARK    2  A    between atoms: C_17  and  N_18
REMARK    3  A    between atoms: C_19  and  C_21
REMARK                            x       y       z     vdW  Elec       q    Type
REMARK                         _______ _______ _______ _____ _____    ______ ____
ROOT
ATOM     10  N   UNL     1      -4.844   0.860  24.825  0.00  0.00    -0.273 NA
ATOM     11  C   UNL     1      -5.468   1.415  24.815  0.00  0.00    +0.074 C 
ATOM     12  C   UNL     1      -4.944   2.253  24.792  0.00  0.00    +0.039 C 
ATOM     13  C   UNL     1      -4.665   3.018  24.773  0.00  0.00    +0.011 C 
ATOM     14  C   UNL     1      -4.399   2.369  24.787  0.00  0.00    +0.056 C 
ATOM     15  C   UNL     1      -4.919   1.568  24.809  0.00  0.00    +0.078 C 
ATOM     16  C   UNL     1      -3.598   1.919  24.795  0.00  0.00    +0.056 A 
ATOM     17  C   UNL     1      -2.785   2.058  24.788  0.00  0.00    +0.086 A 
ATOM     26  C   UNL     1      -2.258   1.423  24.801  0.00  0.00    +0.023 A 
ATOM     27  C   UNL     1      -2.544   0.649  24.821  0.00  0.00    +0.062 A 
ATOM     28  C   UNL     1      -3.357   0.510  24.828  0.00  0.00    +0.261 A 
ATOM     29  O   UNL     1      -3.134  -0.283  24.846  0.00  0.00    -0.267 OA
ATOM     30  N   UNL     1      -3.884   1.145  24.815  0.00  0.00    -0.298 N 
ATOM     31  C   UNL     1      -4.112   1.774  24.800  0.00  0.00    +0.110 C 
ENDROOT
BRANCH  10   7
ATOM      1  C   UNL     1      -3.184  -2.476  24.186  0.00  0.00    +0.095 C 
ATOM      2  C   UNL     1      -3.336  -2.075  24.890  0.00  0.00    +0.226 C 
ATOM      3  O   UNL     1      -3.111  -2.407  25.611  0.00  0.00    -0.275 OA
ATOM      4  N   UNL     1      -3.713  -1.341  24.874  0.00  0.00    -0.279 N 
ATOM      5  C   UNL     1      -3.865  -0.940  25.578  0.00  0.00    +0.095 C 
ATOM      6  C   UNL     1      -4.242  -0.207  25.563  0.00  0.00    +0.038 C 
ATOM      7  C   UNL     1      -4.467   0.126  24.841  0.00  0.00    +0.061 C 
ATOM      8  C   UNL     1      -4.315  -0.275  24.137  0.00  0.00    +0.038 C 
ATOM      9  C   UNL     1      -3.938  -1.009  24.153  0.00  0.00    +0.095 C 
ENDBRANCH  10   7
BRANCH  17  18
ATOM     18  N   UNL     1      -2.499   2.831  24.768  0.00  0.00    -0.174 NA
ATOM     19  C   UNL     1      -1.735   2.995  25.032  0.00  0.00    +0.275 C 
ATOM     20  O   UNL     1      -1.257   2.386  25.315  0.00  0.00    -0.267 OA
BRANCH  19  21
ATOM     21  C   UNL     1      -1.449   3.769  25.012  0.00  0.00    +0.085 A 
ATOM     22  C   UNL     1      -1.783   4.419  25.394  0.00  0.00    +0.012 A 
ATOM     23  C   UNL     1      -1.319   5.080  25.225  0.00  0.00    +0.008 A 
ATOM     24  C   UNL     1      -0.698   4.838  24.739  0.00  0.00    +0.036 A 
ATOM     25  S   UNL     1      -0.778   4.028  24.607  0.00  0.00    -0.082 S 
ENDBRANCH  19  21
ENDBRANCH  17  18
TORSDOF 3
ENDMDL
MODEL 3
REMARK VINA RESULT:     -12.4      1.726      2.914
REMARK  Name = 
REMARK  3 active torsions:
REMARK  status: ('A' for Active; 'I' for Inactive)
REMARK    1  A    between atoms: C_7  and  N_10
REMARK    2  A    between atoms: C_17  and  N_18
REMARK    3  A    between atoms: C_19  and  C_21
REMARK                            x       y       z     vdW  Elec       q    Type
REMARK                         _______ _______ _______ _____ _____    ______ ____
ROOT
ATOM     10  N   UNL     1      -0.510   1.620  24.581  0.00  0.00    -0.273 NA
ATOM     11  C   UNL     1       0.162   1.166  24.379  0.00  0.00    +0.074 C 
ATOM     12  C   UNL     1      -0.261   0.278  24.282  0.00  0.00    +0.039 C 
ATOM     13  C   UNL     1      -0.452  -0.505  24.165  0.00  0.00    +0.011 C 
ATOM     14  C   UNL     1      -0.783   0.090  24.336  0.00  0.00    +0.056 C 
ATOM     15  C   UNL     1      -0.360   0.941  24.426  0.00  0.00    +0.078 C 
ATOM     16  C   UNL     1      -1.617   0.417  24.542  0.00  0.00    +0.056 A 
ATOM     17  C   UNL     1      -2.399   0.169  24.628  0.00  0.00    +0.086 A 
ATOM     26  C   UNL     1      -2.984   0.713  24.833  0.00  0.00    +0.023 A 
ATOM     27  C   UNL     1      -2.787   1.506  24.951  0.00  0.00    +0.062 A 
ATOM     28  C   UNL     1      -2.005   1.754  24.864  0.00  0.00    +0.261 A 
ATOM     29  O   UNL     1      -2.310   2.495  25.058  0.00  0.00    -0.267 OA
ATOM     30  N   UNL     1      -1.420   1.209  24.659  0.00  0.00    -0.298 N 
ATOM     31  C   UNL     1      -1.128   0.629  24.498  0.00  0.00    +0.110 C 
ENDROOT
BRANCH  10   7
ATOM      1  C   UNL     1      -2.414   4.464  26.188  0.00  0.00    +0.095 C 
ATOM      2  C   UNL     1      -2.305   4.267  25.395  0.00  0.00    +0.226 C 
ATOM      3  O   UNL     1      -2.645   4.732  24.804  0.00  0.00    -0.275 OA
ATOM      4  N   UNL     1      -1.857   3.606  25.191  0.00  0.00    -0.279 N 
ATOM      5  C   UNL     1      -1.748   3.408  24.398  0.00  0.00    +0.095 C 
ATOM      6  C   UNL     1      -1.299   2.747  24.194  0.00  0.00    +0.038 C 
ATOM      7  C   UNL     1      -0.959   2.282  24.785  0.00  0.00    +0.061 C 
ATOM      8  C   UNL     1      -1.067   2.478  25.579  0.00  0.00    +0.038 C 
ATOM      9  C   UNL     1      -1.516   3.140  25.782  0.00  0.00    +0.095 C 
ENDBRANCH  10   7
BRANCH  17  18
ATOM     18  N   UNL     1      -2.595  -0.624  24.511  0.00  0.00    -0.174 NA
ATOM     19  C   UNL     1      -3.372  -0.878  24.626  0.00  0.00    +0.275 C 
ATOM     20  O   UNL     1      -3.951  -0.339  24.858  0.00  0.00    -0.267 OA
BRANCH  19  21
ATOM     21  C   UNL     1      -3.569  -1.670  24.508  0.00  0.00    +0.085 A 
ATOM     22  C   UNL     1      -3.330  -2.304  24.979  0.00  0.00    +0.012 A 
ATOM     23  C   UNL     1      -3.652  -2.993  24.661  0.00  0.00    +0.008 A 
ATOM     24  C   UNL     1      -4.090  -2.785  23.993  0.00  0.00    +0.036 A 
ATOM     25  S   UNL     1      -4.038  -1.968  23.899  0.00  0.00    -0.082 S 
ENDBRANCH  19  21
ENDBRANCH  17  18
TORSDOF 3
ENDMDL
MODEL 4
REMARK VINA RESULT:     -11.9      1.350      2.286
REMARK  Name = 
REMARK  3 active torsions:
REMARK  status: ('A' for Active; 'I' for Inactive)
REMARK    1  A    between atoms: C_7  and  N_10
REMARK    2  A    between atoms: C_17  and  N_18
REMARK    3  A    between atoms: C_19  and  C_21
REMARK                            x       y       z     vdW  Elec       q    Type
REMARK                         _______ _______ _______ _____ _____    ______ ____
ROOT
ATOM     10  N   UNL     1      -2.658   2.532  24.048  0.00  0.00    -0.273 NA
ATOM     11  C   UNL     1      -1.959   2.431  23.602  0.00  0.00    +0.074 C 
ATOM     12  C   UNL     1      -1.959   1.447  23.516  0.00  0.00    +0.039 C 
ATOM     13  C   UNL     1      -1.815   0.661  23.358  0.00  0.00    +0.011 C 
ATOM     14  C   UNL     1      -2.299   1.042  23.694  0.00  0.00    +0.056 C 
ATOM     15  C   UNL     1      -2.285   1.994  23.768  0.00  0.00    +0.078 C 
ATOM     16  C   UNL     1      -3.078   0.957  24.174  0.00  0.00    +0.056 A 
ATOM     17  C   UNL     1      -3.600   0.381  24.451  0.00  0.00    +0.086 A 
ATOM     26  C   UNL     1      -4.265   0.603  24.886  0.00  0.00    +0.023 A 
ATOM     27  C   UNL     1      -4.407   1.400  25.044  0.00  0.00    +0.062 A 
ATOM     28  C   UNL     1      -3.885   1.976  24.768  0.00  0.00    +0.261 A 
ATOM     29  O   UNL     1      -4.403   2.500  25.137  0.00  0.00    -0.267 OA
ATOM     30  N   UNL     1      -3.221   1.754  24.333  0.00  0.00    -0.298 N 
ATOM     31  C   UNL     1      -2.773   1.368  24.019  0.00  0.00    +0.110 C 
ENDROOT
BRANCH  10   7
ATOM      1  C   UNL     1      -5.743   4.331  25.291  0.00  0.00    +0.095 C 
ATOM      2  C   UNL     1      -5.064   4.085  25.689  0.00  0.00    +0.226 C 
ATOM      3  O   UNL     1      -4.986   4.227  26.499  0.00  0.00    -0.275 OA
ATOM      4  N   UNL     1      -4.463   3.697  25.280  0.00  0.00    -0.279 N 
ATOM      5  C   UNL     1      -3.784   3.451  25.678  0.00  0.00    +0.095 C 
ATOM      6  C   UNL     1      -3.182   3.063  25.268  0.00  0.00    +0.038 C 
ATOM      7  C   UNL     1      -3.260   2.921  24.459  0.00  0.00    +0.061 C 
ATOM      8  C   UNL     1      -3.939   3.166  24.060  0.00  0.00    +0.038 C 
ATOM      9  C   UNL     1      -4.540   3.554  24.470  0.00  0.00    +0.095 C 
ENDBRANCH  10   7
BRANCH  17  18
ATOM     18  N   UNL     1      -3.457  -0.416  24.292  0.00  0.00    -0.174 NA
ATOM     19  C   UNL     1      -3.824  -0.998  24.746  0.00  0.00    +0.275 C 
ATOM     20  O   UNL     1      -4.333  -0.784  25.359  0.00  0.00    -0.267 OA
BRANCH  19  21
ATOM     21  C   UNL     1      -3.681  -1.796  24.588  0.00  0.00    +0.085 A 
ATOM     22  C   UNL     1      -3.994  -2.228  23.958  0.00  0.00    +0.012 A 
ATOM     23  C   UNL     1      -3.707  -3.000  24.012  0.00  0.00    +0.008 A 
ATOM     24  C   UNL     1      -3.217  -3.044  24.675  0.00  0.00    +0.036 A 
ATOM     25  S   UNL     1      -3.201  -2.300  25.030  0.00  0.00    -0.082 S 
ENDBRANCH  19  21
ENDBRANCH  17  18
TORSDOF 3
ENDMDL
MODEL 5
REMARK VINA RESULT:     -11.7      2.010      3.381
REMARK  Name = 
REMARK  3 active torsions:
REMARK  status: ('A' for Active; 'I' for Inactive)
REMARK    1  A    between atoms: C_7  and  N_10
REMARK    2  A    between atoms: C_17  and  N_18
REMARK    3  A    between atoms: C_19  and  C_21
REMARK                            x       y       z     vdW  Elec       q    Type
REMARK                         _______ _______ _______ _____ _____    ______ ____
ROOT
ATOM     10  N   UNL     1      -2.248   4.141  25.244  0.00  0.00    -0.273 NA
ATOM     11  C   UNL     1      -1.576   4.637  25.210  0.00  0.00    +0.074 C 
ATOM     12  C   UNL     1      -0.901   3.981  24.909  0.00  0.00    +0.039 C 
ATOM     13  C   UNL     1      -0.239   3.573  24.668  0.00  0.00    +0.011 C 
ATOM     14  C   UNL     1      -0.917   3.437  24.787  0.00  0.00    +0.056 C 
ATOM     15  C   UNL     1      -1.558   4.083  25.078  0.00  0.00    +0.078 C 
ATOM     16  C   UNL     1      -1.530   2.753  24.764  0.00  0.00    +0.056 A 
ATOM     17  C   UNL     1      -1.586   1.948  24.590  0.00  0.00    +0.086 A 
ATOM     26  C   UNL     1      -2.310   1.561  24.661  0.00  0.00    +0.023 A 
ATOM     27  C   UNL     1      -2.979   1.977  24.906  0.00  0.00    +0.062 A 
ATOM     28  C   UNL     1      -2.924   2.781  25.080  0.00  0.00    +0.261 A 
ATOM     29  O   UNL     1      -3.729   2.713  25.242  0.00  0.00    -0.267 OA
ATOM     30  N   UNL     1      -2.199   3.169  25.009  0.00  0.00    -0.298 N 
ATOM     31  C   UNL     1      -1.549   3.272  24.888  0.00  0.00    +0.110 C 
ENDROOT
BRANCH  10   7
ATOM      1  C   UNL     1      -5.922   3.259  25.106  0.00  0.00    +0.095 C 
ATOM      2  C   UNL     1      -5.384   3.237  25.731  0.00  0.00    +0.226 C 
ATOM      3  O   UNL     1      -5.631   2.988  26.478  0.00  0.00    -0.275 OA
ATOM      4  N   UNL     1      -4.601   3.463  25.610  0.00  0.00    -0.279 N 
ATOM      5  C   UNL     1      -4.063   3.440  26.234  0.00  0.00    +0.095 C 
ATOM      6  C   UNL     1      -3.279   3.666  26.113  0.00  0.00    +0.038 C 
ATOM      7  C   UNL     1      -3.032   3.915  25.366  0.00  0.00    +0.061 C 
ATOM      8  C   UNL     1      -3.569   3.938  24.741  0.00  0.00    +0.038 C 
ATOM      9  C   UNL     1      -4.354   3.712  24.862  0.00  0.00    +0.095 C 
ENDBRANCH  10   7
BRANCH  17  18
ATOM     18  N   UNL     1      -0.917   1.532  24.346  0.00  0.00    -0.174 NA
ATOM     19  C   UNL     1      -0.987   0.750  24.093  0.00  0.00    +0.275 C 
ATOM     20  O   UNL     1      -1.727   0.385  24.085  0.00  0.00    -0.267 OA
BRANCH  19  21
ATOM     21  C   UNL     1      -0.318   0.334  23.848  0.00  0.00    +0.085 A 
ATOM     22  C   UNL     1       0.182   0.542  23.226  0.00  0.00    +0.012 A 
ATOM     23  C   UNL     1       0.777  -0.027  23.176  0.00  0.00    +0.008 A 
ATOM     24  C   UNL     1       0.645  -0.587  23.768  0.00  0.00    +0.036 A 
ATOM     25  S   UNL     1      -0.031  -0.364  24.183  0.00  0.00    -0.082 S 
ENDBRANCH  19  21
ENDBRANCH  17  18
TORSDOF 3
ENDMDL
MODEL 6
REMARK VINA RESULT:     -11.4      2.205      4.639
REMARK  Name = 
REMARK  3 active torsions:
REMARK  status: ('A' for Active; 'I' for Inactive)
REMARK    1  A    between atoms: C_7  and  N_10
REMARK    2  A    between atoms: C_17  and  N_18
REMARK    3  A    between atoms: C_19  and  C_21
REMARK                            x       y       z     vdW  Elec       q    Type
REMARK                         _______ _______ _______ _____ _____    ______ ____
ROOT
ATOM     10  N   UNL     1      -0.550   1.281  25.380  0.00  0.00    -0.273 NA
ATOM     11  C   UNL     1      -0.133   1.959  25.636  0.00  0.00    +0.074 C 
ATOM     12  C   UNL     1      -0.873   2.613  25.650  0.00  0.00    +0.039 C 
ATOM     13  C   UNL     1      -1.363   3.261  25.714  0.00  0.00    +0.011 C 
ATOM     14  C   UNL     1      -1.418   2.585  25.533  0.00  0.00    +0.056 C 
ATOM     15  C   UNL     1      -0.692   1.964  25.524  0.00  0.00    +0.078 C 
ATOM     16  C   UNL     1      -2.031   1.962  25.251  0.00  0.00    +0.056 A 
ATOM     17  C   UNL     1      -2.832   1.889  25.069  0.00  0.00    +0.086 A 
ATOM     26  C   UNL     1      -3.135   1.161  24.824  0.00  0.00    +0.023 A 
ATOM     27  C   UNL     1      -2.636   0.507  24.761  0.00  0.00    +0.062 A 
ATOM     28  C   UNL     1      -1.835   0.580  24.942  0.00  0.00    +0.261 A 
ATOM     29  O   UNL     1      -1.806  -0.220  24.746  0.00  0.00    -0.267 OA
ATOM     30  N   UNL     1      -1.532   1.308  25.187  0.00  0.00    -0.298 N 
ATOM     31  C   UNL     1      -1.507   1.955  25.356  0.00  0.00    +0.110 C 
ENDROOT
BRANCH  10   7
ATOM      1  C   UNL     1      -1.302  -2.409  25.046  0.00  0.00    +0.095 C 
ATOM      2  C   UNL     1      -1.080  -1.850  24.483  0.00  0.00    +0.226 C 
ATOM      3  O   UNL     1      -0.990  -2.074  23.693  0.00  0.00    -0.275 OA
ATOM      4  N   UNL     1      -0.947  -1.067  24.706  0.00  0.00    -0.279 N 
ATOM      5  C   UNL     1      -0.725  -0.508  24.143  0.00  0.00    +0.095 C 
ATOM      6  C   UNL     1      -0.593   0.274  24.366  0.00  0.00    +0.038 C 
ATOM      7  C   UNL     1      -0.683   0.498  25.156  0.00  0.00    +0.061 C 
ATOM      8  C   UNL     1      -0.905  -0.060  25.720  0.00  0.00    +0.038 C 
ATOM      9  C   UNL     1      -1.037  -0.843  25.496  0.00  0.00    +0.095 C 
ENDBRANCH  10   7
BRANCH  17  18
ATOM     18  N   UNL     1      -3.331   2.543  25.132  0.00  0.00    -0.174 NA
ATOM     19  C   UNL     1      -4.149   2.438  25.146  0.00  0.00    +0.275 C 
ATOM     20  O   UNL     1      -4.468   1.679  25.097  0.00  0.00    -0.267 OA
BRANCH  19  21
ATOM     21  C   UNL     1      -4.648   3.092  25.210  0.00  0.00    +0.085 A 
ATOM     22  C   UNL     1      -4.607   3.779  24.754  0.00  0.00    +0.012 A 
ATOM     23  C   UNL     1      -5.210   4.285  25.003  0.00  0.00    +0.008 A 
ATOM     24  C   UNL     1      -5.622   3.911  25.612  0.00  0.00    +0.036 A 
ATOM     25  S   UNL     1      -5.275   3.174  25.740  0.00  0.00    -0.082 S 
ENDBRANCH  19  21
ENDBRANCH  17  18
TORSDOF 3
ENDMDL
MODEL 7
REMARK VINA RESULT:     -11.3      2.326      4.170
REMARK  Name = 
REMARK  3 active torsions:
REMARK  status: ('A' for Active; 'I' for Inactive)
REMARK    1  A    between atoms: C_7  and  N_10
REMARK    2  A    between atoms: C_17  and  N_18
REMARK    3  A    between atoms: C_19  and  C_21
REMARK                            x       y       z     vdW  Elec       q    Type
REMARK                         _______ _______ _______ _____ _____    ______ ____
ROOT
ATOM     10  N   UNL     1      -1.759  -1.186  25.091  0.00  0.00    -0.273 NA
ATOM     11  C   UNL     1      -2.170  -1.749  25.551  0.00  0.00    +0.074 C 
ATOM     12  C   UNL     1      -3.025  -1.269  25.676  0.00  0.00    +0.039 C 
ATOM     13  C   UNL     1      -3.774  -1.011  25.867  0.00  0.00    +0.011 C 
ATOM     14  C   UNL     1      -3.219  -0.773  25.509  0.00  0.00    +0.056 C 
ATOM     15  C   UNL     1      -2.399  -1.250  25.398  0.00  0.00    +0.078 C 
ATOM     16  C   UNL     1      -2.932  -0.049  25.021  0.00  0.00    +0.056 A 
ATOM     17  C   UNL     1      -3.190   0.690  24.760  0.00  0.00    +0.086 A 
ATOM     26  C   UNL     1      -2.690   1.164  24.306  0.00  0.00    +0.023 A 
ATOM     27  C   UNL     1      -1.933   0.900  24.114  0.00  0.00    +0.062 A 
ATOM     28  C   UNL     1      -1.675   0.161  24.376  0.00  0.00    +0.261 A 
ATOM     29  O   UNL     1      -0.980   0.359  23.978  0.00  0.00    -0.267 OA
ATOM     30  N   UNL     1      -2.175  -0.313  24.829  0.00  0.00    -0.298 N 
ATOM     31  C   UNL     1      -2.717  -0.517  25.165  0.00  0.00    +0.110 C 
ENDROOT
BRANCH  10   7
ATOM      1  C   UNL     1       0.802  -0.030  22.561  0.00  0.00    +0.095 C 
ATOM      2  C   UNL     1       0.701   0.165  23.356  0.00  0.00    +0.226 C 
ATOM      3  O   UNL     1       1.217   0.699  23.717  0.00  0.00    -0.275 OA
ATOM      4  N   UNL     1       0.087  -0.172  23.790  0.00  0.00    -0.279 N 
ATOM      5  C   UNL     1      -0.014   0.023  24.585  0.00  0.00    +0.095 C 
ATOM      6  C   UNL     1      -0.628  -0.314  25.019  0.00  0.00    +0.038 C 
ATOM      7  C   UNL     1      -1.144  -0.848  24.657  0.00  0.00    +0.061 C 
ATOM      8  C   UNL     1      -1.044  -1.043  23.862  0.00  0.00    +0.038 C 
ATOM      9  C   UNL     1      -0.429  -0.706  23.428  0.00  0.00    +0.095 C 
ENDBRANCH  10   7
BRANCH  17  18
ATOM     18  N   UNL     1      -3.948   0.954  24.951  0.00  0.00    -0.174 NA
ATOM     19  C   UNL     1      -4.154   1.743  24.827  0.00  0.00    +0.275 C 
ATOM     20  O   UNL     1      -3.602   2.267  24.510  0.00  0.00    -0.267 OA
BRANCH  19  21
ATOM     21  C   UNL     1      -4.912   2.007  25.018  0.00  0.00    +0.085 A 
ATOM     22  C   UNL     1      -5.620   1.697  24.730  0.00  0.00    +0.012 A 
ATOM     23  C   UNL     1      -6.240   2.126  25.066  0.00  0.00    +0.008 A 
ATOM     24  C   UNL     1      -5.915   2.700  25.561  0.00  0.00    +0.036 A 
ATOM     25  S   UNL     1      -5.094   2.627  25.531  0.00  0.00    -0.082 S 
ENDBRANCH  19  21
ENDBRANCH  17  18
TORSDOF 3
ENDMDL
MODEL 8
REMARK VINA RESULT:     -11.1      2.310      5.360
REMARK  Name = 
REMARK  3 active torsions:
REMARK  status: ('A' for Active; 'I' for Inactive)
REMARK    1  A    between atoms: C_7  and  N_10
REMARK    2  A    between atoms: C_17  and  N_18
REMARK    3  A    between atoms: C_19  and  C_21
REMARK                            x       y       z     vdW  Elec       q    Type
REMARK                         _______ _______ _______ _____ _____    ______ ____
ROOT
ATOM     10  N   UNL     1      -0.637  -0.479  24.214  0.00  0.00    -0.273 NA
ATOM     11  C   UNL     1       0.148  -0.361  23.952  0.00  0.00    +0.074 C 
ATOM     12  C   UNL     1       0.210   0.620  24.052  0.00  0.00    +0.039 C 
ATOM     13  C   UNL     1       0.420   1.407  24.075  0.00  0.00    +0.011 C 
ATOM     14  C   UNL     1      -0.143   1.015  24.225  0.00  0.00    +0.056 C 
ATOM     15  C   UNL     1      -0.188   0.067  24.123  0.00  0.00    +0.078 C 
ATOM     16  C   UNL     1      -1.005   1.082  24.536  0.00  0.00    +0.056 A 
ATOM     17  C   UNL     1      -1.551   1.643  24.797  0.00  0.00    +0.086 A 
ATOM     26  C   UNL     1      -2.305   1.406  25.033  0.00  0.00    +0.023 A 
ATOM     27  C   UNL     1      -2.514   0.608  25.008  0.00  0.00    +0.062 A 
ATOM     28  C   UNL     1      -1.968   0.047  24.747  0.00  0.00    +0.261 A 
ATOM     29  O   UNL     1      -2.578  -0.488  24.895  0.00  0.00    -0.267 OA
ATOM     30  N   UNL     1      -1.214   0.284  24.511  0.00  0.00    -0.298 N 
ATOM     31  C   UNL     1      -0.691   0.679  24.376  0.00  0.00    +0.110 C 
ENDROOT
BRANCH  10   7
ATOM      1  C   UNL     1      -3.993  -2.208  24.419  0.00  0.00    +0.095 C 
ATOM      2  C   UNL     1      -3.414  -2.083  24.992  0.00  0.00    +0.226 C 
ATOM      3  O   UNL     1      -3.529  -2.361  25.761  0.00  0.00    -0.275 OA
ATOM      4  N   UNL     1      -2.720  -1.682  24.798  0.00  0.00    -0.279 N 
ATOM      5  C   UNL     1      -2.140  -1.558  25.371  0.00  0.00    +0.095 C 
ATOM      6  C   UNL     1      -1.446  -1.157  25.177  0.00  0.00    +0.038 C 
ATOM      7  C   UNL     1      -1.331  -0.880  24.408  0.00  0.00    +0.061 C 
ATOM      8  C   UNL     1      -1.911  -1.004  23.834  0.00  0.00    +0.038 C 
ATOM      9  C   UNL     1      -2.605  -1.405  24.029  0.00  0.00    +0.095 C 
ENDBRANCH  10   7
BRANCH  17  18
ATOM     18  N   UNL     1      -1.342   2.440  24.823  0.00  0.00    -0.174 NA
ATOM     19  C   UNL     1      -1.892   3.003  25.068  0.00  0.00    +0.275 C 
ATOM     20  O   UNL     1      -2.652   2.768  25.289  0.00  0.00    -0.267 OA
BRANCH  19  21
ATOM     21  C   UNL     1      -1.683   3.801  25.094  0.00  0.00    +0.085 A 
ATOM     22  C   UNL     1      -0.974   4.125  24.824  0.00  0.00    +0.012 A 
ATOM     23  C   UNL     1      -0.999   4.939  24.957  0.00  0.00    +0.008 A 
ATOM     24  C   UNL     1      -1.724   5.118  25.308  0.00  0.00    +0.036 A 
ATOM     25  S   UNL     1      -2.146   4.415  25.393  0.00  0.00    -0.082 S 
ENDBRANCH  19  21
ENDBRANCH  17  18
TORSDOF 3
ENDMDL
