MODEL 1
REMARK VINA RESULT:     -11.5      0.000      0.000
REMARK  Name = 
REMARK  6 active torsions:
REMARK  status: ('A' for Active; 'I' for Inactive)
REMARK    1  A    between atoms: C_4  and  C_15
REMARK    2  A    between atoms: C_6  and  C_8
REMARK    3  A    between atoms: C_22  and  C_23
REMARK    4  A    between atoms: C_23  and  N_24
REMARK    5  A    between atoms: N_27  and  C_28
REMARK    6  A    between atoms: C_28  and  C_29
REMARK                            x       y       z     vdW  Elec       q    Type
REMARK                         _______ _______ _______ _____ _____    ______ ____
ROOT
ATOM     15  C   UNL     1      -1.102   2.648  24.466  0.00  0.00    +0.056 C 
ATOM     16  C   UNL     1      -1.038   2.514  23.703  0.00  0.00    +0.078 C 
ATOM     17  N   UNL     1      -0.551   2.207  24.294  0.00  0.00    -0.272 NA
ATOM     18  C   UNL     1      -0.902   2.579  25.209  0.00  0.00    +0.072 C 
ATOM     19  C   UNL     1      -0.860   2.619  25.860  0.00  0.00    +0.018 C 
ATOM     20  C   UNL     1      -0.620   2.343  25.041  0.00  0.00    +0.010 C 
ATOM     21  C   UNL     1       0.074   1.807  25.003  0.00  0.00    +0.018 C 
ATOM     22  C   UNL     1       0.171   1.650  24.262  0.00  0.00    +0.079 C 
ENDROOT
BRANCH  15   4
ATOM      1  C   UNL     1      -2.004   5.209  25.362  0.00  0.00    +0.074 C 
ATOM      2  C   UNL     1      -2.165   4.425  25.160  0.00  0.00    +0.139 A 
ATOM      3  N   UNL     1      -1.553   3.929  24.914  0.00  0.00    -0.235 NA
ATOM      4  C   UNL     1      -1.714   3.145  24.713  0.00  0.00    +0.063 A 
ATOM      5  C   UNL     1      -2.485   2.858  24.757  0.00  0.00    +0.034 A 
ATOM      6  C   UNL     1      -3.097   3.354  25.003  0.00  0.00    +0.084 A 
ATOM      7  N   UNL     1      -2.937   4.137  25.204  0.00  0.00    -0.231 NA
BRANCH   6   8
ATOM      8  C   UNL     1      -3.869   3.067  25.047  0.00  0.00    +0.018 A 
ATOM      9  C   UNL     1      -4.298   3.144  25.748  0.00  0.00    +0.004 A 
ATOM     10  C   UNL     1      -5.070   2.857  25.794  0.00  0.00    +0.030 A 
ATOM     11  C   UNL     1      -5.414   2.493  25.137  0.00  0.00    +0.140 A 
ATOM     12  F   UNL     1      -6.186   2.207  25.183  0.00  0.00    -0.204 F 
ATOM     13  C   UNL     1      -4.986   2.417  24.437  0.00  0.00    +0.030 A 
ATOM     14  C   UNL     1      -4.213   2.704  24.392  0.00  0.00    +0.004 A 
ENDBRANCH   6   8
ENDBRANCH  15   4
BRANCH  22  23
ATOM     23  C   UNL     1       0.649   1.226  23.740  0.00  0.00    +0.133 C 
BRANCH  23  24
ATOM     24  N   UNL     1       1.470   1.272  23.801  0.00  0.00    -0.186 NA
ATOM     25  C   UNL     1       1.946   0.787  23.334  0.00  0.00    +0.340 C 
ATOM     26  O   UNL     1       1.601   0.255  22.806  0.00  0.00    -0.249 OA
ATOM     27  N   UNL     1       2.767   0.834  23.394  0.00  0.00    -0.182 NA
BRANCH  27  28
ATOM     28  C   UNL     1       3.244   0.349  22.927  0.00  0.00    +0.143 C 
BRANCH  28  29
ATOM     29  C   UNL     1       4.016   0.179  23.162  0.00  0.00    -0.001 A 
ATOM     30  C   UNL     1       4.606   0.750  23.087  0.00  0.00    -0.003 A 
ATOM     31  C   UNL     1       5.378   0.580  23.322  0.00  0.00    -0.000 A 
ATOM     32  C   UNL     1       5.560  -0.162  23.633  0.00  0.00    -0.000 A 
ATOM     33  C   UNL     1       4.971  -0.734  23.709  0.00  0.00    -0.000 A 
ATOM     34  C   UNL     1       4.199  -0.563  23.473  0.00  0.00    -0.003 A 
ENDBRANCH  28  29
ENDBRANCH  27  28
ENDBRANCH  23  24
ENDBRANCH  22  23
TORSDOF 6
ENDMDL
MODEL 2
REMARK VINA RESULT:     -11.2      1.698      2.244
REMARK  Name = 
REMARK  6 active torsions:
REMARK  status: ('A' for Active; 'I' for Inactive)
REMARK    1  A    between atoms: C_4  and  C_15
REMARK    2  A    between atoms: C_6  and  C_8
REMARK    3  A    between atoms: C_22  and  C_23
REMARK    4  A    between atoms: C_23  and  N_24
REMARK    5  A    between atoms: N_27  and  C_28
REMARK    6  A    between atoms: C_28  and  C_29
REMARK                            x       y       z     vdW  Elec       q    Type
REMARK                         _______ _______ _______ _____ _____    ______ ____
ROOT
ATOM     15  C   UNL     1      -1.772   0.585  23.912  0.00  0.00    +0.056 C 
ATOM     16  C   UNL     1      -1.623   0.720  23.160  0.00  0.00    +0.078 C 
ATOM     17  N   UNL     1      -1.069   0.517  23.738  0.00  0.00    -0.272 NA
ATOM     18  C   UNL     1      -1.590   0.405  24.640  0.00  0.00    +0.072 C 
ATOM     19  C   UNL     1      -1.596   0.272  25.280  0.00  0.00    +0.018 C 
ATOM     20  C   UNL     1      -1.223   0.386  24.473  0.00  0.00    +0.010 C 
ATOM     21  C   UNL     1      -0.354   0.267  24.430  0.00  0.00    +0.018 C 
ATOM     22  C   UNL     1      -0.166   0.392  23.700  0.00  0.00    +0.079 C 
ENDROOT
BRANCH  15   4
ATOM      1  C   UNL     1      -4.265  -0.644  24.578  0.00  0.00    +0.074 C 
ATOM      2  C   UNL     1      -3.803   0.034  24.492  0.00  0.00    +0.139 A 
ATOM      3  N   UNL     1      -3.019  -0.030  24.245  0.00  0.00    -0.235 NA
ATOM      4  C   UNL     1      -2.557   0.649  24.159  0.00  0.00    +0.063 A 
ATOM      5  C   UNL     1      -2.879   1.390  24.320  0.00  0.00    +0.034 A 
ATOM      6  C   UNL     1      -3.663   1.454  24.567  0.00  0.00    +0.084 A 
ATOM      7  N   UNL     1      -4.126   0.777  24.653  0.00  0.00    -0.231 NA
BRANCH   6   8
ATOM      8  C   UNL     1      -3.987   2.196  24.728  0.00  0.00    +0.018 A 
ATOM      9  C   UNL     1      -4.065   2.752  24.123  0.00  0.00    +0.004 A 
ATOM     10  C   UNL     1      -4.389   3.494  24.284  0.00  0.00    +0.030 A 
ATOM     11  C   UNL     1      -4.633   3.680  25.050  0.00  0.00    +0.140 A 
ATOM     12  F   UNL     1      -4.956   4.422  25.210  0.00  0.00    -0.204 F 
ATOM     13  C   UNL     1      -4.554   3.125  25.654  0.00  0.00    +0.030 A 
ATOM     14  C   UNL     1      -4.231   2.382  25.494  0.00  0.00    +0.004 A 
ENDBRANCH   6   8
ENDBRANCH  15   4
BRANCH  22  23
ATOM     23  C   UNL     1       0.476   0.405  23.183  0.00  0.00    +0.133 C 
BRANCH  23  24
ATOM     24  N   UNL     1       1.245   0.443  23.481  0.00  0.00    -0.186 NA
ATOM     25  C   UNL     1       1.885   0.270  22.990  0.00  0.00    +0.340 C 
ATOM     26  O   UNL     1       1.757   0.059  22.203  0.00  0.00    -0.249 OA
ATOM     27  N   UNL     1       2.654   0.308  23.287  0.00  0.00    -0.182 NA
BRANCH  27  28
ATOM     28  C   UNL     1       3.295   0.135  22.797  0.00  0.00    +0.143 C 
BRANCH  28  29
ATOM     29  C   UNL     1       4.051   0.060  23.118  0.00  0.00    -0.001 A 
ATOM     30  C   UNL     1       4.278  -0.644  23.481  0.00  0.00    -0.003 A 
ATOM     31  C   UNL     1       5.035  -0.718  23.802  0.00  0.00    -0.000 A 
ATOM     32  C   UNL     1       5.564  -0.087  23.759  0.00  0.00    -0.000 A 
ATOM     33  C   UNL     1       5.337   0.618  23.396  0.00  0.00    -0.000 A 
ATOM     34  C   UNL     1       4.581   0.691  23.076  0.00  0.00    -0.003 A 
ENDBRANCH  28  29
ENDBRANCH  27  28
ENDBRANCH  23  24
ENDBRANCH  22  23
TORSDOF 6
ENDMDL
MODEL 3
REMARK VINA RESULT:     -10.6      2.536      2.823
REMARK  Name = 
REMARK  6 active torsions:
REMARK  status: ('A' for Active; 'I' for Inactive)
REMARK    1  A    between atoms: C_4  and  C_15
REMARK    2  A    between atoms: C_6  and  C_8
REMARK    3  A    between atoms: C_22  and  C_23
REMARK    4  A    between atoms: C_23  and  N_24
REMARK    5  A    between atoms: N_27  and  C_28
REMARK    6  A    between atoms: C_28  and  C_29
REMARK                            x       y       z     vdW  Elec       q    Type
REMARK                         _______ _______ _______ _____ _____    ______ ____
ROOT
ATOM     15  C   UNL     1      -1.252   0.828  24.051  0.00  0.00    +0.056 C 
ATOM     16  C   UNL     1      -1.090   0.823  23.290  0.00  0.00    +0.078 C 
ATOM     17  N   UNL     1      -0.554   0.968  23.901  0.00  0.00    -0.272 NA
ATOM     18  C   UNL     1      -1.086   0.901  24.802  0.00  0.00    +0.072 C 
ATOM     19  C   UNL     1      -1.105   0.931  25.454  0.00  0.00    +0.018 C 
ATOM     20  C   UNL     1      -0.720   0.971  24.645  0.00  0.00    +0.010 C 
ATOM     21  C   UNL     1       0.138   1.153  24.635  0.00  0.00    +0.018 C 
ATOM     22  C   UNL     1       0.338   1.158  23.898  0.00  0.00    +0.079 C 
ENDROOT
BRANCH  15   4
ATOM      1  C   UNL     1      -3.799   1.759  24.953  0.00  0.00    +0.074 C 
ATOM      2  C   UNL     1      -3.306   1.139  24.724  0.00  0.00    +0.139 A 
ATOM      3  N   UNL     1      -2.526   1.293  24.502  0.00  0.00    -0.235 NA
ATOM      4  C   UNL     1      -2.032   0.673  24.273  0.00  0.00    +0.063 A 
ATOM      5  C   UNL     1      -2.317  -0.100  24.266  0.00  0.00    +0.034 A 
ATOM      6  C   UNL     1      -3.097  -0.254  24.487  0.00  0.00    +0.084 A 
ATOM      7  N   UNL     1      -3.591   0.365  24.716  0.00  0.00    -0.231 NA
BRANCH   6   8
ATOM      8  C   UNL     1      -3.383  -1.028  24.480  0.00  0.00    +0.018 A 
ATOM      9  C   UNL     1      -3.173  -1.551  25.084  0.00  0.00    +0.004 A 
ATOM     10  C   UNL     1      -3.459  -2.325  25.078  0.00  0.00    +0.030 A 
ATOM     11  C   UNL     1      -3.955  -2.576  24.467  0.00  0.00    +0.140 A 
ATOM     12  F   UNL     1      -4.241  -3.350  24.461  0.00  0.00    -0.204 F 
ATOM     13  C   UNL     1      -4.164  -2.054  23.865  0.00  0.00    +0.030 A 
ATOM     14  C   UNL     1      -3.878  -1.280  23.871  0.00  0.00    +0.004 A 
ENDBRANCH   6   8
ENDBRANCH  15   4
BRANCH  22  23
ATOM     23  C   UNL     1       0.982   1.269  23.395  0.00  0.00    +0.133 C 
BRANCH  23  24
ATOM     24  N   UNL     1       1.750   1.165  23.679  0.00  0.00    -0.186 NA
ATOM     25  C   UNL     1       2.334   0.857  23.184  0.00  0.00    +0.340 C 
ATOM     26  O   UNL     1       2.150   0.653  22.406  0.00  0.00    -0.249 OA
ATOM     27  N   UNL     1       3.101   0.753  23.467  0.00  0.00    -0.182 NA
BRANCH  27  28
ATOM     28  C   UNL     1       3.686   0.445  22.973  0.00  0.00    +0.143 C 
BRANCH  28  29
ATOM     29  C   UNL     1       4.395   0.171  23.293  0.00  0.00    -0.001 A 
ATOM     30  C   UNL     1       5.043   0.677  23.355  0.00  0.00    -0.003 A 
ATOM     31  C   UNL     1       5.752   0.403  23.675  0.00  0.00    -0.000 A 
ATOM     32  C   UNL     1       5.813  -0.378  23.934  0.00  0.00    -0.000 A 
ATOM     33  C   UNL     1       5.165  -0.885  23.871  0.00  0.00    -0.000 A 
ATOM     34  C   UNL     1       4.456  -0.610  23.551  0.00  0.00    -0.003 A 
ENDBRANCH  28  29
ENDBRANCH  27  28
ENDBRANCH  23  24
ENDBRANCH  22  23
TORSDOF 6
ENDMDL
MODEL 4
REMARK VINA RESULT:      -9.2      2.660      3.970
REMARK  Name = 
REMARK  6 active torsions:
REMARK  status: ('A' for Active; 'I' for Inactive)
REMARK    1  A    between atoms: C_4  and  C_15
REMARK    2  A    between atoms: C_6  and  C_8
REMARK    3  A    between atoms: C_22  and  C_23
REMARK    4  A    between atoms: C_23  and  N_24
REMARK    5  A    between atoms: N_27  and  C_28
REMARK    6  A    between atoms: C_28  and  C_29
REMARK                            x       y       z     vdW  Elec       q    Type
REMARK                         _______ _______ _______ _____ _____    ______ ____
ROOT
ATOM     15  C   UNL     1      -1.133   2.399  24.859  0.00  0.00    +0.056 C 
ATOM     16  C   UNL     1      -1.304   1.976  24.228  0.00  0.00    +0.078 C 
ATOM     17  N   UNL     1      -0.770   1.771  24.823  0.00  0.00    -0.272 NA
ATOM     18  C   UNL     1      -0.771   2.551  25.523  0.00  0.00    +0.072 C 
ATOM     19  C   UNL     1      -0.553   2.815  26.080  0.00  0.00    +0.018 C 
ATOM     20  C   UNL     1      -0.607   2.191  25.438  0.00  0.00    +0.010 C 
ATOM     21  C   UNL     1      -0.099   1.483  25.544  0.00  0.00    +0.018 C 
ATOM     22  C   UNL     1      -0.238   1.038  24.940  0.00  0.00    +0.079 C 
ENDROOT
BRANCH  15   4
ATOM      1  C   UNL     1      -1.052   5.256  24.940  0.00  0.00    +0.074 C 
ATOM      2  C   UNL     1      -1.480   4.551  24.984  0.00  0.00    +0.139 A 
ATOM      3  N   UNL     1      -1.093   3.828  24.899  0.00  0.00    -0.235 NA
ATOM      4  C   UNL     1      -1.521   3.124  24.944  0.00  0.00    +0.063 A 
ATOM      5  C   UNL     1      -2.334   3.142  25.073  0.00  0.00    +0.034 A 
ATOM      6  C   UNL     1      -2.721   3.866  25.159  0.00  0.00    +0.084 A 
ATOM      7  N   UNL     1      -2.295   4.570  25.114  0.00  0.00    -0.231 NA
BRANCH   6   8
ATOM      8  C   UNL     1      -3.536   3.886  25.288  0.00  0.00    +0.018 A 
ATOM      9  C   UNL     1      -3.830   3.915  26.059  0.00  0.00    +0.004 A 
ATOM     10  C   UNL     1      -4.645   3.935  26.190  0.00  0.00    +0.030 A 
ATOM     11  C   UNL     1      -5.165   3.926  25.549  0.00  0.00    +0.140 A 
ATOM     12  F   UNL     1      -5.980   3.945  25.680  0.00  0.00    -0.204 F 
ATOM     13  C   UNL     1      -4.871   3.896  24.779  0.00  0.00    +0.030 A 
ATOM     14  C   UNL     1      -4.056   3.876  24.649  0.00  0.00    +0.004 A 
ENDBRANCH   6   8
ENDBRANCH  15   4
BRANCH  22  23
ATOM     23  C   UNL     1      -0.030   0.318  24.596  0.00  0.00    +0.133 C 
BRANCH  23  24
ATOM     24  N   UNL     1      -0.611  -0.162  24.260  0.00  0.00    -0.186 NA
ATOM     25  C   UNL     1      -0.759  -0.911  24.572  0.00  0.00    +0.340 C 
ATOM     26  O   UNL     1      -0.326  -1.180  25.221  0.00  0.00    -0.249 OA
ATOM     27  N   UNL     1      -1.339  -1.390  24.235  0.00  0.00    -0.182 NA
BRANCH  27  28
ATOM     28  C   UNL     1      -1.487  -2.140  24.547  0.00  0.00    +0.143 C 
BRANCH  28  29
ATOM     29  C   UNL     1      -2.252  -2.449  24.533  0.00  0.00    -0.001 A 
ATOM     30  C   UNL     1      -2.468  -2.989  23.949  0.00  0.00    -0.003 A 
ATOM     31  C   UNL     1      -3.232  -3.299  23.934  0.00  0.00    -0.000 A 
ATOM     32  C   UNL     1      -3.782  -3.067  24.504  0.00  0.00    -0.000 A 
ATOM     33  C   UNL     1      -3.566  -2.526  25.089  0.00  0.00    -0.000 A 
ATOM     34  C   UNL     1      -2.801  -2.218  25.103  0.00  0.00    -0.003 A 
ENDBRANCH  28  29
ENDBRANCH  27  28
ENDBRANCH  23  24
ENDBRANCH  22  23
TORSDOF 6
ENDMDL
MODEL 5
REMARK VINA RESULT:      -8.9      2.579      7.431
REMARK  Name = 
REMARK  6 active torsions:
REMARK  status: ('A' for Active; 'I' for Inactive)
REMARK    1  A    between atoms: C_4  and  C_15
REMARK    2  A    between atoms: C_6  and  C_8
REMARK    3  A    between atoms: C_22  and  C_23
REMARK    4  A    between atoms: C_23  and  N_24
REMARK    5  A    between atoms: N_27  and  C_28
REMARK    6  A    between atoms: C_28  and  C_29
REMARK                            x       y       z     vdW  Elec       q    Type
REMARK                         _______ _______ _______ _____ _____    ______ ____
ROOT
ATOM     15  C   UNL     1       0.547   0.635  23.513  0.00  0.00    +0.056 C 
ATOM     16  C   UNL     1       0.464   1.408  23.538  0.00  0.00    +0.078 C 
ATOM     17  N   UNL     1       0.020   0.856  23.962  0.00  0.00    -0.272 NA
ATOM     18  C   UNL     1       0.380  -0.094  23.704  0.00  0.00    +0.072 C 
ATOM     19  C   UNL     1       0.359  -0.744  23.763  0.00  0.00    +0.018 C 
ATOM     20  C   UNL     1       0.107   0.100  23.932  0.00  0.00    +0.010 C 
ATOM     21  C   UNL     1      -0.551   0.198  24.504  0.00  0.00    +0.018 C 
ATOM     22  C   UNL     1      -0.665   0.951  24.557  0.00  0.00    +0.079 C 
ENDROOT
BRANCH  15   4
ATOM      1  C   UNL     1       1.303  -0.739  21.122  0.00  0.00    +0.074 C 
ATOM      2  C   UNL     1       1.512  -0.353  21.821  0.00  0.00    +0.139 A 
ATOM      3  N   UNL     1       0.925  -0.052  22.317  0.00  0.00    -0.235 NA
ATOM      4  C   UNL     1       1.134   0.334  23.016  0.00  0.00    +0.063 A 
ATOM      5  C   UNL     1       1.929   0.420  23.218  0.00  0.00    +0.034 A 
ATOM      6  C   UNL     1       2.515   0.119  22.722  0.00  0.00    +0.084 A 
ATOM      7  N   UNL     1       2.307  -0.267  22.024  0.00  0.00    -0.231 NA
BRANCH   6   8
ATOM      8  C   UNL     1       3.310   0.204  22.924  0.00  0.00    +0.018 A 
ATOM      9  C   UNL     1       3.706   0.908  22.752  0.00  0.00    +0.004 A 
ATOM     10  C   UNL     1       4.502   0.994  22.954  0.00  0.00    +0.030 A 
ATOM     11  C   UNL     1       4.902   0.375  23.327  0.00  0.00    +0.140 A 
ATOM     12  F   UNL     1       5.697   0.462  23.529  0.00  0.00    -0.204 F 
ATOM     13  C   UNL     1       4.506  -0.327  23.499  0.00  0.00    +0.030 A 
ATOM     14  C   UNL     1       3.710  -0.413  23.297  0.00  0.00    +0.004 A 
ENDBRANCH   6   8
ENDBRANCH  15   4
BRANCH  22  23
ATOM     23  C   UNL     1      -1.133   1.517  24.932  0.00  0.00    +0.133 C 
BRANCH  23  24
ATOM     24  N   UNL     1      -1.951   1.419  24.969  0.00  0.00    -0.186 NA
ATOM     25  C   UNL     1      -2.442   2.077  25.045  0.00  0.00    +0.340 C 
ATOM     26  O   UNL     1      -2.116   2.833  25.084  0.00  0.00    -0.249 OA
ATOM     27  N   UNL     1      -3.261   1.978  25.082  0.00  0.00    -0.182 NA
BRANCH  27  28
ATOM     28  C   UNL     1      -3.753   2.636  25.158  0.00  0.00    +0.143 C 
BRANCH  28  29
ATOM     29  C   UNL     1      -4.568   2.535  25.237  0.00  0.00    -0.001 A 
ATOM     30  C   UNL     1      -5.000   3.035  25.730  0.00  0.00    -0.003 A 
ATOM     31  C   UNL     1      -5.815   2.934  25.809  0.00  0.00    -0.000 A 
ATOM     32  C   UNL     1      -6.198   2.332  25.396  0.00  0.00    -0.000 A 
ATOM     33  C   UNL     1      -5.766   1.831  24.903  0.00  0.00    -0.000 A 
ATOM     34  C   UNL     1      -4.951   1.933  24.824  0.00  0.00    -0.003 A 
ENDBRANCH  28  29
ENDBRANCH  27  28
ENDBRANCH  23  24
ENDBRANCH  22  23
TORSDOF 6
ENDMDL
MODEL 6
REMARK VINA RESULT:      -8.6      3.777      6.273
REMARK  Name = 
REMARK  6 active torsions:
REMARK  status: ('A' for Active; 'I' for Inactive)
REMARK    1  A    between atoms: C_4  and  C_15
REMARK    2  A    between atoms: C_6  and  C_8
REMARK    3  A    between atoms: C_22  and  C_23
REMARK    4  A    between atoms: C_23  and  N_24
REMARK    5  A    between atoms: N_27  and  C_28
REMARK    6  A    between atoms: C_28  and  C_29
REMARK                            x       y       z     vdW  Elec       q    Type
REMARK                         _______ _______ _______ _____ _____    ______ ____
ROOT
ATOM     15  C   UNL     1      -3.963   0.162  24.401  0.00  0.00    +0.056 C 
ATOM     16  C   UNL     1      -3.698   0.699  23.904  0.00  0.00    +0.078 C 
ATOM     17  N   UNL     1      -4.240   0.825  24.514  0.00  0.00    -0.272 NA
ATOM     18  C   UNL     1      -4.385  -0.096  24.994  0.00  0.00    +0.072 C 
ATOM     19  C   UNL     1      -4.672  -0.455  25.458  0.00  0.00    +0.018 C 
ATOM     20  C   UNL     1      -4.496   0.294  24.997  0.00  0.00    +0.010 C 
ATOM     21  C   UNL     1      -4.916   1.017  25.261  0.00  0.00    +0.018 C 
ATOM     22  C   UNL     1      -4.681   1.573  24.794  0.00  0.00    +0.079 C 
ENDROOT
BRANCH  15   4
ATOM      1  C   UNL     1      -4.345  -2.538  23.544  0.00  0.00    +0.074 C 
ATOM      2  C   UNL     1      -3.868  -1.957  23.885  0.00  0.00    +0.139 A 
ATOM      3  N   UNL     1      -4.154  -1.188  23.973  0.00  0.00    -0.235 NA
ATOM      4  C   UNL     1      -3.677  -0.608  24.314  0.00  0.00    +0.063 A 
ATOM      5  C   UNL     1      -2.916  -0.796  24.568  0.00  0.00    +0.034 A 
ATOM      6  C   UNL     1      -2.630  -1.564  24.481  0.00  0.00    +0.084 A 
ATOM      7  N   UNL     1      -3.106  -2.145  24.140  0.00  0.00    -0.231 NA
BRANCH   6   8
ATOM      8  C   UNL     1      -1.869  -1.754  24.735  0.00  0.00    +0.018 A 
ATOM      9  C   UNL     1      -1.249  -1.224  24.609  0.00  0.00    +0.004 A 
ATOM     10  C   UNL     1      -0.486  -1.412  24.863  0.00  0.00    +0.030 A 
ATOM     11  C   UNL     1      -0.344  -2.131  25.243  0.00  0.00    +0.140 A 
ATOM     12  F   UNL     1       0.418  -2.319  25.496  0.00  0.00    -0.204 F 
ATOM     13  C   UNL     1      -0.964  -2.660  25.369  0.00  0.00    +0.030 A 
ATOM     14  C   UNL     1      -1.726  -2.472  25.115  0.00  0.00    +0.004 A 
ENDBRANCH   6   8
ENDBRANCH  15   4
BRANCH  22  23
ATOM     23  C   UNL     1      -4.772   2.377  24.636  0.00  0.00    +0.133 C 
BRANCH  23  24
ATOM     24  N   UNL     1      -4.124   2.827  24.394  0.00  0.00    -0.186 NA
ATOM     25  C   UNL     1      -3.841   3.435  24.874  0.00  0.00    +0.340 C 
ATOM     26  O   UNL     1      -4.206   3.593  25.597  0.00  0.00    -0.249 OA
ATOM     27  N   UNL     1      -3.193   3.884  24.632  0.00  0.00    -0.182 NA
BRANCH  27  28
ATOM     28  C   UNL     1      -2.910   4.492  25.113  0.00  0.00    +0.143 C 
BRANCH  28  29
ATOM     29  C   UNL     1      -2.120   4.723  25.063  0.00  0.00    -0.001 A 
ATOM     30  C   UNL     1      -1.926   5.522  24.999  0.00  0.00    -0.003 A 
ATOM     31  C   UNL     1      -1.135   5.753  24.950  0.00  0.00    -0.000 A 
ATOM     32  C   UNL     1      -0.538   5.184  24.965  0.00  0.00    -0.000 A 
ATOM     33  C   UNL     1      -0.732   4.384  25.029  0.00  0.00    -0.000 A 
ATOM     34  C   UNL     1      -1.522   4.154  25.078  0.00  0.00    -0.003 A 
ENDBRANCH  28  29
ENDBRANCH  27  28
ENDBRANCH  23  24
ENDBRANCH  22  23
TORSDOF 6
ENDMDL
