MODEL 1
REMARK VINA RESULT:     -11.1      0.000      0.000
REMARK  Name = 
REMARK  7 active torsions:
REMARK  status: ('A' for Active; 'I' for Inactive)
REMARK    1  A    between atoms: C_2  and  C_4
REMARK    2  A    between atoms: C_4  and  C_5
REMARK    3  A    between atoms: C_7  and  C_25
REMARK    4  A    between atoms: N_11  and  C_12
REMARK    5  A    between atoms: C_12  and  C_13
REMARK    6  A    between atoms: N_27  and  C_28
REMARK    7  A    between atoms: C_28  and  C_29
REMARK                            x       y       z     vdW  Elec       q    Type
REMARK                         _______ _______ _______ _____ _____    ______ ____
ROOT
ATOM      5  C   UNL     1      -3.123  -0.496  24.541  0.00  0.00    +0.095 C 
ATOM      6  N   UNL     1      -2.310  -0.635  24.537  0.00  0.00    -0.207 NA
ATOM      7  C   UNL     1      -1.695  -0.095  24.644  0.00  0.00    +0.155 C 
ATOM      8  C   UNL     1      -1.742   0.717  24.781  0.00  0.00    +0.055 C 
ATOM      9  C   UNL     1      -2.415   1.190  24.845  0.00  0.00    -0.002 A 
ATOM     10  C   UNL     1      -2.388   2.003  24.984  0.00  0.00    +0.072 A 
ATOM     11  N   UNL     1      -3.164   2.283  25.013  0.00  0.00    -0.319 N 
ATOM     19  C   UNL     1      -3.670   1.643  24.891  0.00  0.00    +0.060 A 
ATOM     20  C   UNL     1      -3.207   0.967  24.788  0.00  0.00    +0.011 A 
ATOM     21  C   UNL     1      -3.522   0.217  24.652  0.00  0.00    -0.005 A 
ATOM     22  C   UNL     1      -4.389   0.182  24.625  0.00  0.00    -0.003 A 
ATOM     23  C   UNL     1      -4.853   0.857  24.728  0.00  0.00    +0.001 A 
ATOM     24  C   UNL     1      -4.492   1.588  24.862  0.00  0.00    +0.017 A 
ENDROOT
BRANCH   7  25
ATOM     25  C   UNL     1      -0.932  -0.409  24.609  0.00  0.00    +0.258 C 
ATOM     26  O   UNL     1      -0.641  -0.853  25.240  0.00  0.00    -0.272 OA
ATOM     27  N   UNL     1      -0.462  -0.277  23.943  0.00  0.00    -0.196 NA
BRANCH  27  28
ATOM     28  C   UNL     1       0.299  -0.591  23.909  0.00  0.00    +0.179 C 
BRANCH  28  29
ATOM     29  C   UNL     1       0.806  -0.376  23.294  0.00  0.00    +0.145 A 
ATOM     30  C   UNL     1       1.500   0.064  23.370  0.00  0.00    +0.038 A 
ATOM     31  C   UNL     1       1.831   0.149  22.618  0.00  0.00    +0.043 A 
ATOM     32  C   UNL     1       1.341  -0.237  22.079  0.00  0.00    +0.179 A 
ATOM     33  O   UNL     1       0.708  -0.562  22.496  0.00  0.00    -0.453 OA
ENDBRANCH  28  29
ENDBRANCH  27  28
ENDBRANCH   7  25
BRANCH   5   4
ATOM      4  C   UNL     1      -3.599  -1.158  24.416  0.00  0.00    +0.022 C 
BRANCH   4   2
ATOM      1  C   UNL     1      -3.445  -2.007  25.556  0.00  0.00    +0.000 C 
ATOM      2  C   UNL     1      -3.386  -1.886  24.742  0.00  0.00    +0.002 C 
ATOM      3  C   UNL     1      -3.113  -2.493  24.253  0.00  0.00    +0.000 C 
ENDBRANCH   4   2
ENDBRANCH   5   4
BRANCH  11  12
ATOM     12  C   UNL     1      -3.394   3.065  25.140  0.00  0.00    +0.170 C 
BRANCH  12  13
ATOM     13  C   UNL     1      -2.824   3.659  25.193  0.00  0.00    +0.144 A 
ATOM     14  N   UNL     1      -2.221   3.803  24.649  0.00  0.00    -0.227 NA
ATOM     15  C   UNL     1      -1.782   4.447  24.919  0.00  0.00    +0.119 A 
ATOM     16  C   UNL     1      -2.114   4.701  25.630  0.00  0.00    +0.098 A 
ATOM     17  N   UNL     1      -2.758   4.215  25.799  0.00  0.00    -0.310 N 
ATOM     18  C   UNL     1      -3.250   4.273  26.459  0.00  0.00    +0.132 C 
ENDBRANCH  12  13
ENDBRANCH  11  12
TORSDOF 7
ENDMDL
MODEL 2
REMARK VINA RESULT:     -10.9      1.937      3.766
REMARK  Name = 
REMARK  7 active torsions:
REMARK  status: ('A' for Active; 'I' for Inactive)
REMARK    1  A    between atoms: C_2  and  C_4
REMARK    2  A    between atoms: C_4  and  C_5
REMARK    3  A    between atoms: C_7  and  C_25
REMARK    4  A    between atoms: N_11  and  C_12
REMARK    5  A    between atoms: C_12  and  C_13
REMARK    6  A    between atoms: N_27  and  C_28
REMARK    7  A    between atoms: C_28  and  C_29
REMARK                            x       y       z     vdW  Elec       q    Type
REMARK                         _______ _______ _______ _____ _____    ______ ____
ROOT
ATOM      5  C   UNL     1      -4.641   2.211  24.947  0.00  0.00    +0.095 C 
ATOM      6  N   UNL     1      -4.611   1.457  24.613  0.00  0.00    -0.207 NA
ATOM      7  C   UNL     1      -3.948   1.001  24.431  0.00  0.00    +0.155 C 
ATOM      8  C   UNL     1      -3.151   1.187  24.538  0.00  0.00    +0.055 C 
ATOM      9  C   UNL     1      -2.821   1.874  24.853  0.00  0.00    -0.002 A 
ATOM     10  C   UNL     1      -2.008   1.994  24.931  0.00  0.00    +0.072 A 
ATOM     11  N   UNL     1      -1.891   2.739  25.265  0.00  0.00    -0.319 N 
ATOM     19  C   UNL     1      -2.631   3.080  25.393  0.00  0.00    +0.060 A 
ATOM     20  C   UNL     1      -3.206   2.546  25.139  0.00  0.00    +0.011 A 
ATOM     21  C   UNL     1      -4.016   2.695  25.180  0.00  0.00    -0.005 A 
ATOM     22  C   UNL     1      -4.230   3.467  25.516  0.00  0.00    -0.003 A 
ATOM     23  C   UNL     1      -3.656   4.002  25.771  0.00  0.00    +0.001 A 
ATOM     24  C   UNL     1      -2.856   3.808  25.709  0.00  0.00    +0.017 A 
ENDROOT
BRANCH   7  25
ATOM     25  C   UNL     1      -4.102   0.261  24.098  0.00  0.00    +0.258 C 
ATOM     26  O   UNL     1      -4.353   0.206  23.315  0.00  0.00    -0.272 OA
ATOM     27  N   UNL     1      -4.004  -0.422  24.551  0.00  0.00    -0.196 NA
BRANCH  27  28
ATOM     28  C   UNL     1      -4.158  -1.161  24.218  0.00  0.00    +0.179 C 
BRANCH  28  29
ATOM     29  C   UNL     1      -3.839  -1.841  24.560  0.00  0.00    +0.145 A 
ATOM     30  C   UNL     1      -3.666  -2.545  24.166  0.00  0.00    +0.038 A 
ATOM     31  C   UNL     1      -3.356  -3.076  24.718  0.00  0.00    +0.043 A 
ATOM     32  C   UNL     1      -3.339  -2.700  25.452  0.00  0.00    +0.179 A 
ATOM     33  O   UNL     1      -3.637  -1.936  25.354  0.00  0.00    -0.453 OA
ENDBRANCH  28  29
ENDBRANCH  27  28
ENDBRANCH   7  25
BRANCH   5   4
ATOM      4  C   UNL     1      -5.397   2.521  25.061  0.00  0.00    +0.022 C 
BRANCH   4   2
ATOM      1  C   UNL     1      -6.066   1.793  26.094  0.00  0.00    +0.000 C 
ATOM      2  C   UNL     1      -6.013   2.027  25.304  0.00  0.00    +0.002 C 
ATOM      3  C   UNL     1      -6.574   1.769  24.758  0.00  0.00    +0.000 C 
ENDBRANCH   4   2
ENDBRANCH   5   4
BRANCH  11  12
ATOM     12  C   UNL     1      -1.162   3.083  25.439  0.00  0.00    +0.170 C 
BRANCH  12  13
ATOM     13  C   UNL     1      -0.465   2.736  25.167  0.00  0.00    +0.144 A 
ATOM     14  N   UNL     1      -0.272   2.591  24.377  0.00  0.00    -0.227 NA
ATOM     15  C   UNL     1       0.473   2.239  24.358  0.00  0.00    +0.119 A 
ATOM     16  C   UNL     1       0.741   2.167  25.135  0.00  0.00    +0.098 A 
ATOM     17  N   UNL     1       0.161   2.474  25.635  0.00  0.00    -0.310 N 
ATOM     18  C   UNL     1       0.201   2.513  26.458  0.00  0.00    +0.132 C 
ENDBRANCH  12  13
ENDBRANCH  11  12
TORSDOF 7
ENDMDL
MODEL 3
REMARK VINA RESULT:     -10.6      2.081      5.637
REMARK  Name = 
REMARK  7 active torsions:
REMARK  status: ('A' for Active; 'I' for Inactive)
REMARK    1  A    between atoms: C_2  and  C_4
REMARK    2  A    between atoms: C_4  and  C_5
REMARK    3  A    between atoms: C_7  and  C_25
REMARK    4  A    between atoms: N_11  and  C_12
REMARK    5  A    between atoms: C_12  and  C_13
REMARK    6  A    between atoms: N_27  and  C_28
REMARK    7  A    between atoms: C_28  and  C_29
REMARK                            x       y       z     vdW  Elec       q    Type
REMARK                         _______ _______ _______ _____ _____    ______ ____
ROOT
ATOM      5  C   UNL     1      -1.659   3.496  25.342  0.00  0.00    +0.095 C 
ATOM      6  N   UNL     1      -2.425   3.442  25.040  0.00  0.00    -0.207 NA
ATOM      7  C   UNL     1      -2.794   2.794  24.687  0.00  0.00    +0.155 C 
ATOM      8  C   UNL     1      -2.488   2.041  24.548  0.00  0.00    +0.055 C 
ATOM      9  C   UNL     1      -1.738   1.749  24.728  0.00  0.00    -0.002 A 
ATOM     10  C   UNL     1      -1.497   0.978  24.559  0.00  0.00    +0.072 A 
ATOM     11  N   UNL     1      -0.718   0.891  24.818  0.00  0.00    -0.319 N 
ATOM     19  C   UNL     1      -0.477   1.608  25.147  0.00  0.00    +0.060 A 
ATOM     20  C   UNL     1      -1.108   2.139  25.091  0.00  0.00    +0.011 A 
ATOM     21  C   UNL     1      -1.073   2.917  25.364  0.00  0.00    -0.005 A 
ATOM     22  C   UNL     1      -0.316   3.146  25.722  0.00  0.00    -0.003 A 
ATOM     23  C   UNL     1       0.315   2.617  25.778  0.00  0.00    +0.001 A 
ATOM     24  C   UNL     1       0.233   1.847  25.490  0.00  0.00    +0.017 A 
ENDROOT
BRANCH   7  25
ATOM     25  C   UNL     1      -3.572   2.916  24.440  0.00  0.00    +0.258 C 
ATOM     26  O   UNL     1      -3.722   3.254  23.703  0.00  0.00    -0.272 OA
ATOM     27  N   UNL     1      -4.199   2.700  24.931  0.00  0.00    -0.196 NA
BRANCH  27  28
ATOM     28  C   UNL     1      -4.976   2.822  24.684  0.00  0.00    +0.179 C 
BRANCH  28  29
ATOM     29  C   UNL     1      -5.597   2.448  25.079  0.00  0.00    +0.145 A 
ATOM     30  C   UNL     1      -5.817   2.573  25.864  0.00  0.00    +0.038 A 
ATOM     31  C   UNL     1      -6.464   2.085  26.027  0.00  0.00    +0.043 A 
ATOM     32  C   UNL     1      -6.642   1.660  25.344  0.00  0.00    +0.179 A 
ATOM     33  O   UNL     1      -6.106   1.884  24.757  0.00  0.00    -0.453 OA
ENDBRANCH  28  29
ENDBRANCH  27  28
ENDBRANCH   7  25
BRANCH   5   4
ATOM      4  C   UNL     1      -1.452   4.227  25.663  0.00  0.00    +0.022 C 
BRANCH   4   2
ATOM      1  C   UNL     1      -2.338   5.337  25.504  0.00  0.00    +0.000 C 
ATOM      2  C   UNL     1      -1.663   4.923  25.273  0.00  0.00    +0.002 C 
ATOM      3  C   UNL     1      -1.198   5.205  24.652  0.00  0.00    +0.000 C 
ENDBRANCH   4   2
ENDBRANCH   5   4
BRANCH  11  12
ATOM     12  C   UNL     1      -0.260   0.208  24.758  0.00  0.00    +0.170 C 
BRANCH  12  13
ATOM     13  C   UNL     1      -0.604  -0.532  24.883  0.00  0.00    +0.144 A 
ATOM     14  N   UNL     1      -1.109  -0.733  25.504  0.00  0.00    -0.227 NA
ATOM     15  C   UNL     1      -1.319  -1.526  25.414  0.00  0.00    +0.119 A 
ATOM     16  C   UNL     1      -0.945  -1.814  24.738  0.00  0.00    +0.098 A 
ATOM     17  N   UNL     1      -0.502  -1.200  24.410  0.00  0.00    -0.310 N 
ATOM     18  C   UNL     1      -0.040  -1.245  23.728  0.00  0.00    +0.132 C 
ENDBRANCH  12  13
ENDBRANCH  11  12
TORSDOF 7
ENDMDL
MODEL 4
REMARK VINA RESULT:     -10.4      1.633      4.406
REMARK  Name = 
REMARK  7 active torsions:
REMARK  status: ('A' for Active; 'I' for Inactive)
REMARK    1  A    between atoms: C_2  and  C_4
REMARK    2  A    between atoms: C_4  and  C_5
REMARK    3  A    between atoms: C_7  and  C_25
REMARK    4  A    between atoms: N_11  and  C_12
REMARK    5  A    between atoms: C_12  and  C_13
REMARK    6  A    between atoms: N_27  and  C_28
REMARK    7  A    between atoms: C_28  and  C_29
REMARK                            x       y       z     vdW  Elec       q    Type
REMARK                         _______ _______ _______ _____ _____    ______ ____
ROOT
ATOM      5  C   UNL     1      -4.474   1.502  24.881  0.00  0.00    +0.095 C 
ATOM      6  N   UNL     1      -4.103   2.182  25.165  0.00  0.00    -0.207 NA
ATOM      7  C   UNL     1      -3.308   2.292  25.359  0.00  0.00    +0.155 C 
ATOM      8  C   UNL     1      -2.689   1.750  25.316  0.00  0.00    +0.055 C 
ATOM      9  C   UNL     1      -2.710   0.963  25.069  0.00  0.00    -0.002 A 
ATOM     10  C   UNL     1      -2.046   0.473  25.051  0.00  0.00    +0.072 A 
ATOM     11  N   UNL     1      -2.282  -0.267  24.775  0.00  0.00    -0.319 N 
ATOM     19  C   UNL     1      -3.092  -0.236  24.622  0.00  0.00    +0.060 A 
ATOM     20  C   UNL     1      -3.357   0.524  24.803  0.00  0.00    +0.011 A 
ATOM     21  C   UNL     1      -4.142   0.765  24.720  0.00  0.00    -0.005 A 
ATOM     22  C   UNL     1      -4.683   0.154  24.423  0.00  0.00    -0.003 A 
ATOM     23  C   UNL     1      -4.419  -0.606  24.241  0.00  0.00    +0.001 A 
ATOM     24  C   UNL     1      -3.623  -0.801  24.341  0.00  0.00    +0.017 A 
ENDROOT
BRANCH   7  25
ATOM     25  C   UNL     1      -3.107   3.045  25.631  0.00  0.00    +0.258 C 
ATOM     26  O   UNL     1      -3.477   3.353  26.301  0.00  0.00    -0.272 OA
ATOM     27  N   UNL     1      -2.536   3.489  25.233  0.00  0.00    -0.196 NA
BRANCH  27  28
ATOM     28  C   UNL     1      -2.336   4.240  25.506  0.00  0.00    +0.179 C 
BRANCH  28  29
ATOM     29  C   UNL     1      -1.677   4.629  25.194  0.00  0.00    +0.145 A 
ATOM     30  C   UNL     1      -1.615   5.440  25.054  0.00  0.00    +0.038 A 
ATOM     31  C   UNL     1      -0.865   5.587  24.742  0.00  0.00    +0.043 A 
ATOM     32  C   UNL     1      -0.465   4.869  24.689  0.00  0.00    +0.179 A 
ATOM     33  O   UNL     1      -0.967   4.276  24.969  0.00  0.00    -0.453 OA
ENDBRANCH  28  29
ENDBRANCH  27  28
ENDBRANCH   7  25
BRANCH   5   4
ATOM      4  C   UNL     1      -5.283   1.570  24.739  0.00  0.00    +0.022 C 
BRANCH   4   2
ATOM      1  C   UNL     1      -5.960   2.802  24.998  0.00  0.00    +0.000 C 
ATOM      2  C   UNL     1      -5.751   2.039  25.232  0.00  0.00    +0.002 C 
ATOM      3  C   UNL     1      -6.009   1.744  25.959  0.00  0.00    +0.000 C 
ENDBRANCH   4   2
ENDBRANCH   5   4
BRANCH  11  12
ATOM     12  C   UNL     1      -1.795  -0.924  24.670  0.00  0.00    +0.170 C 
BRANCH  12  13
ATOM     13  C   UNL     1      -1.015  -0.825  24.419  0.00  0.00    +0.144 A 
ATOM     14  N   UNL     1      -0.755  -0.294  23.843  0.00  0.00    -0.227 NA
ATOM     15  C   UNL     1       0.061  -0.380  23.768  0.00  0.00    +0.119 A 
ATOM     16  C   UNL     1       0.306  -0.962  24.298  0.00  0.00    +0.098 A 
ATOM     17  N   UNL     1      -0.359  -1.237  24.700  0.00  0.00    -0.310 N 
ATOM     18  C   UNL     1      -0.367  -1.823  25.282  0.00  0.00    +0.132 C 
ENDBRANCH  12  13
ENDBRANCH  11  12
TORSDOF 7
ENDMDL
MODEL 5
REMARK VINA RESULT:     -10.3      2.094      4.163
REMARK  Name = 
REMARK  7 active torsions:
REMARK  status: ('A' for Active; 'I' for Inactive)
REMARK    1  A    between atoms: C_2  and  C_4
REMARK    2  A    between atoms: C_4  and  C_5
REMARK    3  A    between atoms: C_7  and  C_25
REMARK    4  A    between atoms: N_11  and  C_12
REMARK    5  A    between atoms: C_12  and  C_13
REMARK    6  A    between atoms: N_27  and  C_28
REMARK    7  A    between atoms: C_28  and  C_29
REMARK                            x       y       z     vdW  Elec       q    Type
REMARK                         _______ _______ _______ _____ _____    ______ ____
ROOT
ATOM      5  C   UNL     1      -2.649  -1.274  24.515  0.00  0.00    +0.095 C 
ATOM      6  N   UNL     1      -3.358  -0.855  24.483  0.00  0.00    -0.207 NA
ATOM      7  C   UNL     1      -3.480  -0.042  24.563  0.00  0.00    +0.155 C 
ATOM      8  C   UNL     1      -2.922   0.551  24.695  0.00  0.00    +0.055 C 
ATOM      9  C   UNL     1      -2.105   0.479  24.779  0.00  0.00    -0.002 A 
ATOM     10  C   UNL     1      -1.603   1.120  24.909  0.00  0.00    +0.072 A 
ATOM     11  N   UNL     1      -0.831   0.833  24.963  0.00  0.00    -0.319 N 
ATOM     19  C   UNL     1      -0.856   0.014  24.866  0.00  0.00    +0.060 A 
ATOM     20  C   UNL     1      -1.643  -0.205  24.752  0.00  0.00    +0.011 A 
ATOM     21  C   UNL     1      -1.886  -0.985  24.634  0.00  0.00    -0.005 A 
ATOM     22  C   UNL     1      -1.246  -1.572  24.639  0.00  0.00    -0.003 A 
ATOM     23  C   UNL     1      -0.459  -1.354  24.753  0.00  0.00    +0.001 A 
ATOM     24  C   UNL     1      -0.264  -0.560  24.866  0.00  0.00    +0.017 A 
ENDROOT
BRANCH   7  25
ATOM     25  C   UNL     1      -4.264   0.209  24.504  0.00  0.00    +0.258 C 
ATOM     26  O   UNL     1      -4.769  -0.142  23.955  0.00  0.00    -0.272 OA
ATOM     27  N   UNL     1      -4.541   0.813  24.995  0.00  0.00    -0.196 NA
BRANCH  27  28
ATOM     28  C   UNL     1      -5.324   1.064  24.936  0.00  0.00    +0.179 C 
BRANCH  28  29
ATOM     29  C   UNL     1      -5.557   1.774  25.287  0.00  0.00    +0.145 A 
ATOM     30  C   UNL     1      -5.986   1.851  25.987  0.00  0.00    +0.038 A 
ATOM     31  C   UNL     1      -6.095   2.656  26.131  0.00  0.00    +0.043 A 
ATOM     32  C   UNL     1      -5.733   3.077  25.521  0.00  0.00    +0.179 A 
ATOM     33  O   UNL     1      -5.400   2.531  24.999  0.00  0.00    -0.453 OA
ENDBRANCH  28  29
ENDBRANCH  27  28
ENDBRANCH   7  25
BRANCH   5   4
ATOM      4  C   UNL     1      -2.711  -2.090  24.414  0.00  0.00    +0.022 C 
BRANCH   4   2
ATOM      1  C   UNL     1      -3.950  -2.777  24.220  0.00  0.00    +0.000 C 
ATOM      2  C   UNL     1      -3.360  -2.496  24.724  0.00  0.00    +0.002 C 
ATOM      3  C   UNL     1      -3.418  -2.620  25.538  0.00  0.00    +0.000 C 
ENDBRANCH   4   2
ENDBRANCH   5   4
BRANCH  11  12
ATOM     12  C   UNL     1      -0.153   1.285  25.092  0.00  0.00    +0.170 C 
BRANCH  12  13
ATOM     13  C   UNL     1      -0.170   2.100  24.967  0.00  0.00    +0.144 A 
ATOM     14  N   UNL     1      -0.359   2.479  24.259  0.00  0.00    -0.227 NA
ATOM     15  C   UNL     1      -0.307   3.293  24.384  0.00  0.00    +0.119 A 
ATOM     16  C   UNL     1      -0.086   3.417  25.169  0.00  0.00    +0.098 A 
ATOM     17  N   UNL     1      -0.002   2.680  25.529  0.00  0.00    -0.310 N 
ATOM     18  C   UNL     1       0.214   2.546  26.315  0.00  0.00    +0.132 C 
ENDBRANCH  12  13
ENDBRANCH  11  12
TORSDOF 7
ENDMDL
MODEL 6
REMARK VINA RESULT:     -10.2      1.126      3.825
REMARK  Name = 
REMARK  7 active torsions:
REMARK  status: ('A' for Active; 'I' for Inactive)
REMARK    1  A    between atoms: C_2  and  C_4
REMARK    2  A    between atoms: C_4  and  C_5
REMARK    3  A    between atoms: C_7  and  C_25
REMARK    4  A    between atoms: N_11  and  C_12
REMARK    5  A    between atoms: C_12  and  C_13
REMARK    6  A    between atoms: N_27  and  C_28
REMARK    7  A    between atoms: C_28  and  C_29
REMARK                            x       y       z     vdW  Elec       q    Type
REMARK                         _______ _______ _______ _____ _____    ______ ____
ROOT
ATOM      5  C   UNL     1      -2.269   2.571  24.699  0.00  0.00    +0.095 C 
ATOM      6  N   UNL     1      -1.477   2.342  24.699  0.00  0.00    -0.207 NA
ATOM      7  C   UNL     1      -1.161   1.580  24.677  0.00  0.00    +0.155 C 
ATOM      8  C   UNL     1      -1.561   0.859  24.648  0.00  0.00    +0.055 C 
ATOM      9  C   UNL     1      -2.374   0.721  24.636  0.00  0.00    -0.002 A 
ATOM     10  C   UNL     1      -2.707  -0.033  24.607  0.00  0.00    +0.072 A 
ATOM     11  N   UNL     1      -3.528   0.051  24.602  0.00  0.00    -0.319 N 
ATOM     19  C   UNL     1      -3.702   0.857  24.627  0.00  0.00    +0.060 A 
ATOM     20  C   UNL     1      -2.989   1.271  24.648  0.00  0.00    +0.011 A 
ATOM     21  C   UNL     1      -2.942   2.095  24.677  0.00  0.00    -0.005 A 
ATOM     22  C   UNL     1      -3.707   2.506  24.683  0.00  0.00    -0.003 A 
ATOM     23  C   UNL     1      -4.420   2.092  24.662  0.00  0.00    +0.001 A 
ATOM     24  C   UNL     1      -4.418   1.267  24.634  0.00  0.00    +0.017 A 
ENDROOT
BRANCH   7  25
ATOM     25  C   UNL     1      -0.337   1.533  24.683  0.00  0.00    +0.258 C 
ATOM     26  O   UNL     1       0.083   1.762  25.354  0.00  0.00    -0.272 OA
ATOM     27  N   UNL     1       0.065   1.257  24.017  0.00  0.00    -0.196 NA
BRANCH  27  28
ATOM     28  C   UNL     1       0.888   1.211  24.024  0.00  0.00    +0.179 C 
BRANCH  28  29
ATOM     29  C   UNL     1       1.280   0.761  23.453  0.00  0.00    +0.145 A 
ATOM     30  C   UNL     1       2.082   0.811  23.263  0.00  0.00    +0.038 A 
ATOM     31  C   UNL     1       2.236   0.263  22.665  0.00  0.00    +0.043 A 
ATOM     32  C   UNL     1       1.531  -0.125  22.486  0.00  0.00    +0.179 A 
ATOM     33  O   UNL     1       0.940   0.183  22.973  0.00  0.00    -0.453 OA
ENDBRANCH  28  29
ENDBRANCH  27  28
ENDBRANCH   7  25
BRANCH   5   4
ATOM      4  C   UNL     1      -2.406   3.384  24.725  0.00  0.00    +0.022 C 
BRANCH   4   2
ATOM      1  C   UNL     1      -1.355   4.336  24.898  0.00  0.00    +0.000 C 
ATOM      2  C   UNL     1      -1.950   3.863  25.219  0.00  0.00    +0.002 C 
ATOM      3  C   UNL     1      -2.090   3.869  26.032  0.00  0.00    +0.000 C 
ENDBRANCH   4   2
ENDBRANCH   5   4
BRANCH  11  12
ATOM     12  C   UNL     1      -4.079  -0.563  24.576  0.00  0.00    +0.170 C 
BRANCH  12  13
ATOM     13  C   UNL     1      -3.855  -1.328  24.788  0.00  0.00    +0.144 A 
ATOM     14  N   UNL     1      -3.473  -1.546  25.486  0.00  0.00    -0.227 NA
ATOM     15  C   UNL     1      -3.356  -2.362  25.468  0.00  0.00    +0.119 A 
ATOM     16  C   UNL     1      -3.664  -2.649  24.759  0.00  0.00    +0.098 A 
ATOM     17  N   UNL     1      -3.973  -2.010  24.339  0.00  0.00    -0.310 N 
ATOM     18  C   UNL     1      -4.336  -2.046  23.598  0.00  0.00    +0.132 C 
ENDBRANCH  12  13
ENDBRANCH  11  12
TORSDOF 7
ENDMDL
MODEL 7
REMARK VINA RESULT:     -10.0      1.660      4.826
REMARK  Name = 
REMARK  7 active torsions:
REMARK  status: ('A' for Active; 'I' for Inactive)
REMARK    1  A    between atoms: C_2  and  C_4
REMARK    2  A    between atoms: C_4  and  C_5
REMARK    3  A    between atoms: C_7  and  C_25
REMARK    4  A    between atoms: N_11  and  C_12
REMARK    5  A    between atoms: C_12  and  C_13
REMARK    6  A    between atoms: N_27  and  C_28
REMARK    7  A    between atoms: C_28  and  C_29
REMARK                            x       y       z     vdW  Elec       q    Type
REMARK                         _______ _______ _______ _____ _____    ______ ____
ROOT
ATOM      5  C   UNL     1      -2.461  -0.337  24.743  0.00  0.00    +0.095 C 
ATOM      6  N   UNL     1      -2.791   0.352  24.432  0.00  0.00    -0.207 NA
ATOM      7  C   UNL     1      -2.424   0.945  23.991  0.00  0.00    +0.155 C 
ATOM      8  C   UNL     1      -1.635   0.996  23.755  0.00  0.00    +0.055 C 
ATOM      9  C   UNL     1      -1.019   0.466  23.899  0.00  0.00    -0.002 A 
ATOM     10  C   UNL     1      -0.248   0.580  23.629  0.00  0.00    +0.072 A 
ATOM     11  N   UNL     1       0.208  -0.060  23.880  0.00  0.00    -0.319 N 
ATOM     19  C   UNL     1      -0.282  -0.571  24.305  0.00  0.00    +0.060 A 
ATOM     20  C   UNL     1      -1.040  -0.246  24.316  0.00  0.00    +0.011 A 
ATOM     21  C   UNL     1      -1.683  -0.603  24.692  0.00  0.00    -0.005 A 
ATOM     22  C   UNL     1      -1.505  -1.358  25.082  0.00  0.00    -0.003 A 
ATOM     23  C   UNL     1      -0.747  -1.683  25.071  0.00  0.00    +0.001 A 
ATOM     24  C   UNL     1      -0.136  -1.289  24.682  0.00  0.00    +0.017 A 
ENDROOT
BRANCH   7  25
ATOM     25  C   UNL     1      -2.909   1.570  23.757  0.00  0.00    +0.258 C 
ATOM     26  O   UNL     1      -3.130   1.647  22.967  0.00  0.00    -0.272 OA
ATOM     27  N   UNL     1      -3.173   2.118  24.316  0.00  0.00    -0.196 NA
BRANCH  27  28
ATOM     28  C   UNL     1      -3.658   2.743  24.082  0.00  0.00    +0.179 C 
BRANCH  28  29
ATOM     29  C   UNL     1      -4.090   3.162  24.646  0.00  0.00    +0.145 A 
ATOM     30  C   UNL     1      -3.793   3.744  25.150  0.00  0.00    +0.038 A 
ATOM     31  C   UNL     1      -4.416   4.014  25.621  0.00  0.00    +0.043 A 
ATOM     32  C   UNL     1      -5.096   3.600  25.408  0.00  0.00    +0.179 A 
ATOM     33  O   UNL     1      -4.895   3.073  24.805  0.00  0.00    -0.453 OA
ENDBRANCH  28  29
ENDBRANCH  27  28
ENDBRANCH   7  25
BRANCH   5   4
ATOM      4  C   UNL     1      -2.979  -0.824  25.161  0.00  0.00    +0.022 C 
BRANCH   4   2
ATOM      1  C   UNL     1      -4.348  -0.468  25.367  0.00  0.00    +0.000 C 
ATOM      2  C   UNL     1      -3.772  -0.872  24.936  0.00  0.00    +0.002 C 
ATOM      3  C   UNL     1      -3.988  -1.325  24.281  0.00  0.00    +0.000 C 
ENDBRANCH   4   2
ENDBRANCH   5   4
BRANCH  11  12
ATOM     12  C   UNL     1       1.011  -0.171  23.733  0.00  0.00    +0.170 C 
BRANCH  12  13
ATOM     13  C   UNL     1       1.293  -0.174  22.957  0.00  0.00    +0.144 A 
ATOM     14  N   UNL     1       0.895  -0.469  22.298  0.00  0.00    -0.227 NA
ATOM     15  C   UNL     1       1.377  -0.359  21.638  0.00  0.00    +0.119 A 
ATOM     16  C   UNL     1       2.074   0.005  21.890  0.00  0.00    +0.098 A 
ATOM     17  N   UNL     1       2.021   0.119  22.705  0.00  0.00    -0.310 N 
ATOM     18  C   UNL     1       2.597   0.466  23.184  0.00  0.00    +0.132 C 
ENDBRANCH  12  13
ENDBRANCH  11  12
TORSDOF 7
ENDMDL
