REMARK  Name = 
REMARK  5 active torsions:
REMARK  status: ('A' for Active; 'I' for Inactive)
REMARK    1  A    between atoms: N_2  and  C_4
REMARK    2  A    between atoms: C_7  and  C_8
REMARK    3  A    between atoms: C_8  and  N_9
REMARK    4  A    between atoms: N_9  and  S_10
REMARK    5  A    between atoms: S_10  and  C_13
REMARK                            x       y       z     vdW  Elec       q    Type
REMARK                         _______ _______ _______ _____ _____    ______ ____
ROOT
ATOM      8  C   UNL     1       0.531  -5.237   0.000  0.00  0.00    +0.148 C 
ENDROOT
BRANCH   8   7
ATOM      4  C   UNL     1       1.429  -3.300   0.000  0.00  0.00    +0.121 C 
ATOM      5  C   UNL     1       2.096  -3.785   0.000  0.00  0.00    +0.161 C 
ATOM      6  O   UNL     1       1.841  -4.569   0.000  0.00  0.00    -0.351 OA
ATOM      7  C   UNL     1       1.016  -4.569   0.000  0.00  0.00    +0.166 C 
ATOM     19  C   UNL     1       0.761  -3.785   0.000  0.00  0.00    +0.197 C 
ATOM     20  O   UNL     1      -0.023  -3.530   0.000  0.00  0.00    -0.219 OA
BRANCH   4   2
ATOM      1  C   UNL     1       2.143  -2.062   0.000  0.00  0.00    +0.090 C 
ATOM      2  N   UNL     1       1.429  -2.475   0.000  0.00  0.00    -0.267 NA
ATOM      3  C   UNL     1       0.715  -2.062   0.000  0.00  0.00    +0.090 C 
ENDBRANCH   4   2
ENDBRANCH   8   7
BRANCH   8   9
ATOM      9  N   UNL     1       0.867  -5.991   0.000  0.00  0.00    -0.075 NA
BRANCH   9  10
ATOM     10  S   UNL     1       0.382  -6.658   0.000  0.00  0.00    +0.077 S 
ATOM     11  O   UNL     1      -0.285  -6.173   0.000  0.00  0.00    -0.152 OA
ATOM     12  O   UNL     1       1.050  -7.143   0.000  0.00  0.00    -0.152 OA
BRANCH  10  13
ATOM     13  C   UNL     1      -0.103  -7.325   0.000  0.00  0.00    +0.124 A 
ATOM     14  C   UNL     1       0.233  -8.079   0.000  0.00  0.00    +0.020 A 
ATOM     15  C   UNL     1      -0.252  -8.747   0.000  0.00  0.00    +0.001 A 
ATOM     16  C   UNL     1      -1.073  -8.660   0.000  0.00  0.00    +0.000 A 
ATOM     17  C   UNL     1      -1.408  -7.907   0.000  0.00  0.00    +0.001 A 
ATOM     18  C   UNL     1      -0.923  -7.239   0.000  0.00  0.00    +0.020 A 
ENDBRANCH  10  13
ENDBRANCH   9  10
ENDBRANCH   8   9
TORSDOF 5
