REMARK  Name = 
REMARK  6 active torsions:
REMARK  status: ('A' for Active; 'I' for Inactive)
REMARK    1  A    between atoms: C_2  and  C_3
REMARK    2  A    between atoms: C_5  and  C_6
REMARK    3  A    between atoms: C_6  and  N_7
REMARK    4  A    between atoms: N_10  and  C_11
REMARK    5  A    between atoms: C_18  and  N_21
REMARK    6  A    between atoms: N_24  and  C_27
REMARK                            x       y       z     vdW  Elec       q    Type
REMARK                         _______ _______ _______ _____ _____    ______ ____
ROOT
ATOM      3  C   UNL     1       0.715  -3.712   0.000  0.00  0.00    +0.180 C 
ATOM      4  O   UNL     1       1.382  -4.197   0.000  0.00  0.00    -0.350 OA
ATOM      5  C   UNL     1       1.127  -4.982   0.000  0.00  0.00    +0.154 C 
ATOM     18  C   UNL     1       0.302  -4.982   0.000  0.00  0.00    +0.120 C 
ATOM     19  C   UNL     1       0.047  -4.197   0.000  0.00  0.00    +0.198 C 
ATOM     20  O   UNL     1      -0.738  -3.942   0.000  0.00  0.00    -0.219 OA
ENDROOT
BRANCH  18  21
ATOM     21  N   UNL     1      -0.183  -5.649   0.000  0.00  0.00    -0.267 NA
ATOM     22  C   UNL     1       0.153  -6.403   0.000  0.00  0.00    +0.094 C 
ATOM     23  C   UNL     1      -0.332  -7.071   0.000  0.00  0.00    +0.108 C 
ATOM     24  N   UNL     1      -1.153  -6.984   0.000  0.00  0.00    -0.305 N 
ATOM     25  C   UNL     1      -1.488  -6.231   0.000  0.00  0.00    +0.108 C 
ATOM     26  C   UNL     1      -1.003  -5.563   0.000  0.00  0.00    +0.094 C 
BRANCH  24  27
ATOM     27  C   UNL     1      -1.638  -7.652   0.000  0.00  0.00    +0.048 A 
ATOM     28  C   UNL     1      -1.302  -8.405   0.000  0.00  0.00    +0.017 A 
ATOM     29  C   UNL     1      -1.787  -9.073   0.000  0.00  0.00    +0.031 A 
ATOM     30  C   UNL     1      -2.608  -8.987   0.000  0.00  0.00    +0.140 A 
ATOM     31  F   UNL     1      -3.092  -9.654   0.000  0.00  0.00    -0.204 F 
ATOM     32  C   UNL     1      -2.943  -8.233   0.000  0.00  0.00    +0.031 A 
ATOM     33  C   UNL     1      -2.458  -7.566   0.000  0.00  0.00    +0.017 A 
ENDBRANCH  24  27
ENDBRANCH  18  21
BRANCH   3   2
ATOM      1  O   UNL     1       0.000  -2.475   0.000  0.00  0.00    -0.218 OA
ATOM      2  C   UNL     1       0.715  -2.888   0.000  0.00  0.00    +0.214 C 
ENDBRANCH   3   2
BRANCH   5   6
ATOM      6  C   UNL     1       1.612  -5.649   0.000  0.00  0.00    +0.148 C 
BRANCH   6   7
ATOM      7  N   UNL     1       2.432  -5.563   0.000  0.00  0.00    -0.184 NA
ATOM      8  C   UNL     1       2.917  -6.231   0.000  0.00  0.00    +0.344 C 
ATOM      9  O   UNL     1       2.582  -6.984   0.000  0.00  0.00    -0.249 OA
ATOM     10  N   UNL     1       3.738  -6.144   0.000  0.00  0.00    -0.161 NA
BRANCH  10  11
ATOM     11  C   UNL     1       4.223  -6.812   0.000  0.00  0.00    +0.076 A 
ATOM     12  C   UNL     1       5.043  -6.726   0.000  0.00  0.00    +0.028 A 
ATOM     13  C   UNL     1       5.528  -7.393   0.000  0.00  0.00    +0.059 A 
ATOM     14 CL   UNL     1       6.349  -7.307   0.000  0.00  0.00    -0.082 Cl
ATOM     15  C   UNL     1       5.192  -8.147   0.000  0.00  0.00    +0.011 A 
ATOM     16  C   UNL     1       4.372  -8.233   0.000  0.00  0.00    +0.002 A 
ATOM     17  C   UNL     1       3.887  -7.566   0.000  0.00  0.00    +0.017 A 
ENDBRANCH  10  11
ENDBRANCH   6   7
ENDBRANCH   5   6
TORSDOF 6
