MODEL 1
REMARK VINA RESULT:     -11.7      0.000      0.000
REMARK  Name = 
REMARK  4 active torsions:
REMARK  status: ('A' for Active; 'I' for Inactive)
REMARK    1  A    between atoms: O_2  and  C_3
REMARK    2  A    between atoms: C_6  and  C_7
REMARK    3  A    between atoms: C_7  and  N_8
REMARK    4  A    between atoms: N_14  and  C_15
REMARK                            x       y       z     vdW  Elec       q    Type
REMARK                         _______ _______ _______ _____ _____    ______ ____
ROOT
ATOM      8  N   UNL     1      -4.207   0.931  25.008  0.00  0.00    -0.266 NA
ATOM      9  C   UNL     1      -4.618   1.358  24.434  0.00  0.00    +0.094 C 
ATOM     10  C   UNL     1      -4.334   2.090  24.183  0.00  0.00    +0.112 C 
ATOM     11  N   UNL     1      -3.639   2.397  24.505  0.00  0.00    -0.261 N 
ATOM     12  C   UNL     1      -3.228   1.970  25.079  0.00  0.00    +0.113 C 
ATOM     13  C   UNL     1      -2.564   2.408  25.295  0.00  0.00    +0.116 C 
ATOM     14  N   UNL     1      -2.564   3.105  24.855  0.00  0.00    -0.264 N 
ATOM     21  C   UNL     1      -3.229   3.098  24.367  0.00  0.00    +0.307 C 
ATOM     22  O   UNL     1      -3.445   3.689  23.834  0.00  0.00    -0.252 OA
ATOM     23  C   UNL     1      -3.512   1.237  25.330  0.00  0.00    +0.094 C 
ENDROOT
BRANCH  14  15
ATOM     15  C   UNL     1      -1.999   3.705  24.896  0.00  0.00    +0.077 C 
ATOM     16  C   UNL     1      -2.183   4.421  25.263  0.00  0.00    +0.020 C 
ATOM     17  C   UNL     1      -1.618   5.021  25.304  0.00  0.00    +0.002 C 
ATOM     18  C   UNL     1      -0.869   4.904  24.978  0.00  0.00    +0.000 C 
ATOM     19  C   UNL     1      -0.685   4.189  24.611  0.00  0.00    +0.002 C 
ATOM     20  C   UNL     1      -1.250   3.590  24.570  0.00  0.00    +0.020 C 
ENDBRANCH  14  15
BRANCH   8   7
ATOM      7  C   UNL     1      -4.490   0.198  25.260  0.00  0.00    +0.099 C 
BRANCH   7   6
ATOM      3  C   UNL     1      -3.340  -1.879  24.561  0.00  0.00    +0.139 A 
ATOM      4  C   UNL     1      -3.848  -1.493  24.038  0.00  0.00    +0.037 A 
ATOM      5  C   UNL     1      -4.232  -0.801  24.271  0.00  0.00    +0.000 A 
ATOM      6  C   UNL     1      -4.107  -0.494  25.026  0.00  0.00    -0.006 A 
ATOM     24  C   UNL     1      -3.598  -0.880  25.550  0.00  0.00    +0.000 A 
ATOM     25  C   UNL     1      -3.215  -1.572  25.316  0.00  0.00    +0.037 A 
BRANCH   3   2
ATOM      1  C   UNL     1      -2.134  -2.624  24.377  0.00  0.00    +0.252 C 
ATOM      2  O   UNL     1      -2.955  -2.571  24.328  0.00  0.00    -0.471 OA
ENDBRANCH   3   2
ENDBRANCH   7   6
ENDBRANCH   8   7
TORSDOF 4
ENDMDL
MODEL 2
REMARK VINA RESULT:     -11.3      1.733      2.165
REMARK  Name = 
REMARK  4 active torsions:
REMARK  status: ('A' for Active; 'I' for Inactive)
REMARK    1  A    between atoms: O_2  and  C_3
REMARK    2  A    between atoms: C_6  and  C_7
REMARK    3  A    between atoms: C_7  and  N_8
REMARK    4  A    between atoms: N_14  and  C_15
REMARK                            x       y       z     vdW  Elec       q    Type
REMARK                         _______ _______ _______ _____ _____    ______ ____
ROOT
ATOM      8  N   UNL     1      -1.058   0.001  25.118  0.00  0.00    -0.266 NA
ATOM      9  C   UNL     1      -0.757   0.102  24.357  0.00  0.00    +0.094 C 
ATOM     10  C   UNL     1      -0.695   0.859  24.035  0.00  0.00    +0.112 C 
ATOM     11  N   UNL     1      -0.934   1.515  24.474  0.00  0.00    -0.261 N 
ATOM     12  C   UNL     1      -1.235   1.414  25.236  0.00  0.00    +0.113 C 
ATOM     13  C   UNL     1      -1.425   2.158  25.536  0.00  0.00    +0.116 C 
ATOM     14  N   UNL     1      -1.241   2.719  24.960  0.00  0.00    -0.264 N 
ATOM     21  C   UNL     1      -0.938   2.322  24.304  0.00  0.00    +0.307 C 
ATOM     22  O   UNL     1      -0.683   2.670  23.601  0.00  0.00    -0.252 OA
ATOM     23  C   UNL     1      -1.297   0.656  25.558  0.00  0.00    +0.094 C 
ENDROOT
BRANCH  14  15
ATOM     15  C   UNL     1      -1.343   3.535  25.028  0.00  0.00    +0.077 C 
ATOM     16  C   UNL     1      -2.096   3.848  25.159  0.00  0.00    +0.020 C 
ATOM     17  C   UNL     1      -2.198   4.664  25.227  0.00  0.00    +0.002 C 
ATOM     18  C   UNL     1      -1.547   5.167  25.164  0.00  0.00    +0.000 C 
ATOM     19  C   UNL     1      -0.796   4.855  25.033  0.00  0.00    +0.002 C 
ATOM     20  C   UNL     1      -0.694   4.039  24.965  0.00  0.00    +0.020 C 
ENDBRANCH  14  15
BRANCH   8   7
ATOM      7  C   UNL     1      -1.121  -0.757  25.440  0.00  0.00    +0.099 C 
BRANCH   7   6
ATOM      3  C   UNL     1      -2.992  -2.232  24.773  0.00  0.00    +0.139 A 
ATOM      4  C   UNL     1      -2.247  -2.335  24.438  0.00  0.00    +0.037 A 
ATOM      5  C   UNL     1      -1.622  -1.844  24.659  0.00  0.00    +0.000 A 
ATOM      6  C   UNL     1      -1.744  -1.249  25.218  0.00  0.00    -0.006 A 
ATOM     24  C   UNL     1      -2.491  -1.145  25.554  0.00  0.00    +0.000 A 
ATOM     25  C   UNL     1      -3.115  -1.637  25.332  0.00  0.00    +0.037 A 
BRANCH   3   2
ATOM      1  C   UNL     1      -4.165  -2.468  23.992  0.00  0.00    +0.252 C 
ATOM      2  O   UNL     1      -3.617  -2.724  24.552  0.00  0.00    -0.471 OA
ENDBRANCH   3   2
ENDBRANCH   7   6
ENDBRANCH   8   7
TORSDOF 4
ENDMDL
MODEL 3
REMARK VINA RESULT:     -11.2      1.162      5.142
REMARK  Name = 
REMARK  4 active torsions:
REMARK  status: ('A' for Active; 'I' for Inactive)
REMARK    1  A    between atoms: O_2  and  C_3
REMARK    2  A    between atoms: C_6  and  C_7
REMARK    3  A    between atoms: C_7  and  N_8
REMARK    4  A    between atoms: N_14  and  C_15
REMARK                            x       y       z     vdW  Elec       q    Type
REMARK                         _______ _______ _______ _____ _____    ______ ____
ROOT
ATOM      8  N   UNL     1      -3.857   2.262  24.341  0.00  0.00    -0.266 NA
ATOM      9  C   UNL     1      -4.371   2.174  24.980  0.00  0.00    +0.094 C 
ATOM     10  C   UNL     1      -4.560   1.420  25.256  0.00  0.00    +0.112 C 
ATOM     11  N   UNL     1      -4.235   0.754  24.893  0.00  0.00    -0.261 N 
ATOM     12  C   UNL     1      -3.721   0.842  24.254  0.00  0.00    +0.113 C 
ATOM     13  C   UNL     1      -3.487   0.091  24.008  0.00  0.00    +0.116 C 
ATOM     14  N   UNL     1      -3.857  -0.463  24.495  0.00  0.00    -0.264 N 
ATOM     21  C   UNL     1      -4.318  -0.052  25.042  0.00  0.00    +0.307 C 
ATOM     22  O   UNL     1      -4.783  -0.390  25.634  0.00  0.00    -0.252 OA
ATOM     23  C   UNL     1      -3.531   1.597  23.977  0.00  0.00    +0.094 C 
ENDROOT
BRANCH  14  15
ATOM     15  C   UNL     1      -3.778  -1.282  24.445  0.00  0.00    +0.077 C 
ATOM     16  C   UNL     1      -3.244  -1.677  24.935  0.00  0.00    +0.020 C 
ATOM     17  C   UNL     1      -3.165  -2.497  24.885  0.00  0.00    +0.002 C 
ATOM     18  C   UNL     1      -3.621  -2.922  24.344  0.00  0.00    +0.000 C 
ATOM     19  C   UNL     1      -4.155  -2.528  23.854  0.00  0.00    +0.002 C 
ATOM     20  C   UNL     1      -4.233  -1.708  23.905  0.00  0.00    +0.020 C 
ENDBRANCH  14  15
BRANCH   8   7
ATOM      7  C   UNL     1      -3.667   3.017  24.065  0.00  0.00    +0.099 C 
BRANCH   7   6
ATOM      3  C   UNL     1      -1.785   4.266  25.075  0.00  0.00    +0.139 A 
ATOM      4  C   UNL     1      -2.555   4.400  25.336  0.00  0.00    +0.037 A 
ATOM      5  C   UNL     1      -3.183   3.984  24.999  0.00  0.00    +0.000 A 
ATOM      6  C   UNL     1      -3.040   3.433  24.402  0.00  0.00    -0.006 A 
ATOM     24  C   UNL     1      -2.269   3.299  24.140  0.00  0.00    +0.000 A 
ATOM     25  C   UNL     1      -1.641   3.715  24.477  0.00  0.00    +0.037 A 
BRANCH   3   2
ATOM      1  C   UNL     1      -0.704   5.193  24.948  0.00  0.00    +0.252 C 
ATOM      2  O   UNL     1      -1.156   4.682  25.411  0.00  0.00    -0.471 OA
ENDBRANCH   3   2
ENDBRANCH   7   6
ENDBRANCH   8   7
TORSDOF 4
ENDMDL
MODEL 4
REMARK VINA RESULT:     -11.0      1.770      5.435
REMARK  Name = 
REMARK  4 active torsions:
REMARK  status: ('A' for Active; 'I' for Inactive)
REMARK    1  A    between atoms: O_2  and  C_3
REMARK    2  A    between atoms: C_6  and  C_7
REMARK    3  A    between atoms: C_7  and  N_8
REMARK    4  A    between atoms: N_14  and  C_15
REMARK                            x       y       z     vdW  Elec       q    Type
REMARK                         _______ _______ _______ _____ _____    ______ ____
ROOT
ATOM      8  N   UNL     1      -0.812   1.289  25.485  0.00  0.00    -0.266 NA
ATOM      9  C   UNL     1      -0.301   0.948  24.934  0.00  0.00    +0.094 C 
ATOM     10  C   UNL     1      -0.529   0.268  24.527  0.00  0.00    +0.112 C 
ATOM     11  N   UNL     1      -1.267  -0.071  24.669  0.00  0.00    -0.261 N 
ATOM     12  C   UNL     1      -1.778   0.271  25.220  0.00  0.00    +0.113 C 
ATOM     13  C   UNL     1      -2.466  -0.183  25.245  0.00  0.00    +0.116 C 
ATOM     14  N   UNL     1      -2.381  -0.805  24.710  0.00  0.00    -0.264 N 
ATOM     21  C   UNL     1      -1.640  -0.735  24.355  0.00  0.00    +0.307 C 
ATOM     22  O   UNL     1      -1.327  -1.242  23.784  0.00  0.00    -0.252 OA
ATOM     23  C   UNL     1      -1.550   0.951  25.628  0.00  0.00    +0.094 C 
ENDROOT
BRANCH  14  15
ATOM     15  C   UNL     1      -2.939  -1.393  24.557  0.00  0.00    +0.077 C 
ATOM     16  C   UNL     1      -3.590  -1.230  24.075  0.00  0.00    +0.020 C 
ATOM     17  C   UNL     1      -4.148  -1.818  23.922  0.00  0.00    +0.002 C 
ATOM     18  C   UNL     1      -4.055  -2.569  24.252  0.00  0.00    +0.000 C 
ATOM     19  C   UNL     1      -3.406  -2.732  24.733  0.00  0.00    +0.002 C 
ATOM     20  C   UNL     1      -2.848  -2.144  24.886  0.00  0.00    +0.020 C 
ENDBRANCH  14  15
BRANCH   8   7
ATOM      7  C   UNL     1      -0.584   1.970  25.893  0.00  0.00    +0.099 C 
BRANCH   7   6
ATOM      3  C   UNL     1      -1.447   4.180  25.188  0.00  0.00    +0.139 A 
ATOM      4  C   UNL     1      -0.788   3.856  24.812  0.00  0.00    +0.037 A 
ATOM      5  C   UNL     1      -0.500   3.119  25.046  0.00  0.00    +0.000 A 
ATOM      6  C   UNL     1      -0.871   2.707  25.657  0.00  0.00    -0.006 A 
ATOM     24  C   UNL     1      -1.530   3.032  26.034  0.00  0.00    +0.000 A 
ATOM     25  C   UNL     1      -1.818   3.768  25.798  0.00  0.00    +0.037 A 
BRANCH   3   2
ATOM      1  C   UNL     1      -1.238   5.574  24.955  0.00  0.00    +0.252 C 
ATOM      2  O   UNL     1      -1.735   4.917  24.953  0.00  0.00    -0.471 OA
ENDBRANCH   3   2
ENDBRANCH   7   6
ENDBRANCH   8   7
TORSDOF 4
ENDMDL
MODEL 5
REMARK VINA RESULT:     -10.3      1.630      5.177
REMARK  Name = 
REMARK  4 active torsions:
REMARK  status: ('A' for Active; 'I' for Inactive)
REMARK    1  A    between atoms: O_2  and  C_3
REMARK    2  A    between atoms: C_6  and  C_7
REMARK    3  A    between atoms: C_7  and  N_8
REMARK    4  A    between atoms: N_14  and  C_15
REMARK                            x       y       z     vdW  Elec       q    Type
REMARK                         _______ _______ _______ _____ _____    ______ ____
ROOT
ATOM      8  N   UNL     1      -1.950   1.924  24.734  0.00  0.00    -0.266 NA
ATOM      9  C   UNL     1      -1.357   1.732  25.274  0.00  0.00    +0.094 C 
ATOM     10  C   UNL     1      -1.238   0.946  25.492  0.00  0.00    +0.112 C 
ATOM     11  N   UNL     1      -1.712   0.351  25.171  0.00  0.00    -0.261 N 
ATOM     12  C   UNL     1      -2.306   0.544  24.632  0.00  0.00    +0.113 C 
ATOM     13  C   UNL     1      -2.684  -0.154  24.409  0.00  0.00    +0.116 C 
ATOM     14  N   UNL     1      -2.325  -0.778  24.810  0.00  0.00    -0.264 N 
ATOM     21  C   UNL     1      -1.725  -0.465  25.281  0.00  0.00    +0.307 C 
ATOM     22  O   UNL     1      -1.223  -0.895  25.777  0.00  0.00    -0.252 OA
ATOM     23  C   UNL     1      -2.425   1.331  24.413  0.00  0.00    +0.094 C 
ENDROOT
BRANCH  14  15
ATOM     15  C   UNL     1      -2.530  -1.575  24.751  0.00  0.00    +0.077 C 
ATOM     16  C   UNL     1      -2.022  -2.105  24.373  0.00  0.00    +0.020 C 
ATOM     17  C   UNL     1      -2.228  -2.902  24.314  0.00  0.00    +0.002 C 
ATOM     18  C   UNL     1      -2.941  -3.169  24.633  0.00  0.00    +0.000 C 
ATOM     19  C   UNL     1      -3.448  -2.639  25.010  0.00  0.00    +0.002 C 
ATOM     20  C   UNL     1      -3.243  -1.843  25.069  0.00  0.00    +0.020 C 
ENDBRANCH  14  15
BRANCH   8   7
ATOM      7  C   UNL     1      -2.070   2.712  24.515  0.00  0.00    +0.099 C 
BRANCH   7   6
ATOM      3  C   UNL     1      -4.172   3.862  25.135  0.00  0.00    +0.139 A 
ATOM      4  C   UNL     1      -3.568   3.778  25.691  0.00  0.00    +0.037 A 
ATOM      5  C   UNL     1      -2.867   3.394  25.485  0.00  0.00    +0.000 A 
ATOM      6  C   UNL     1      -2.770   3.095  24.722  0.00  0.00    -0.006 A 
ATOM     24  C   UNL     1      -3.374   3.179  24.166  0.00  0.00    +0.000 A 
ATOM     25  C   UNL     1      -4.074   3.562  24.373  0.00  0.00    +0.037 A 
BRANCH   3   2
ATOM      1  C   UNL     1      -5.522   3.808  25.599  0.00  0.00    +0.252 C 
ATOM      2  O   UNL     1      -4.873   4.245  25.341  0.00  0.00    -0.471 OA
ENDBRANCH   3   2
ENDBRANCH   7   6
ENDBRANCH   8   7
TORSDOF 4
ENDMDL
