MODEL 1
REMARK VINA RESULT:      -9.8      0.000      0.000
REMARK  Name = 
REMARK  3 active torsions:
REMARK  status: ('A' for Active; 'I' for Inactive)
REMARK    1  A    between atoms: O_2  and  C_3
REMARK    2  A    between atoms: C_6  and  C_9
REMARK    3  A    between atoms: N_11  and  C_12
REMARK                            x       y       z     vdW  Elec       q    Type
REMARK                         _______ _______ _______ _____ _____    ______ ____
ROOT
ATOM      9  C   UNL     1      -3.858   0.347  24.596  0.00  0.00    +0.265 C 
ATOM     10  O   UNL     1      -3.172   0.785  24.459  0.00  0.00    -0.268 OA
ATOM     11  N   UNL     1      -4.573   0.735  24.735  0.00  0.00    -0.198 NA
ENDROOT
BRANCH  11  12
ATOM     12  C   UNL     1      -4.601   1.560  24.738  0.00  0.00    +0.155 C 
ATOM     13  C   UNL     1      -4.157   2.062  24.257  0.00  0.00    +0.166 C 
ATOM     14  O   UNL     1      -4.361   2.839  24.445  0.00  0.00    -0.349 OA
ATOM     15  C   UNL     1      -4.930   2.818  25.040  0.00  0.00    +0.177 C 
ATOM     16  C   UNL     1      -5.408   3.284  25.525  0.00  0.00    +0.211 C 
ATOM     17  O   UNL     1      -5.436   4.109  25.528  0.00  0.00    -0.218 OA
ATOM     18  C   UNL     1      -5.852   2.782  26.006  0.00  0.00    +0.178 C 
ATOM     19  O   UNL     1      -5.648   2.005  25.819  0.00  0.00    -0.349 OA
ATOM     20  C   UNL     1      -5.079   2.027  25.222  0.00  0.00    +0.167 C 
ENDBRANCH  11  12
BRANCH   9   6
ATOM      3  C   UNL     1      -3.772  -2.126  24.586  0.00  0.00    +0.139 A 
ATOM      4  C   UNL     1      -3.483  -1.705  25.234  0.00  0.00    +0.037 A 
ATOM      5  C   UNL     1      -3.511  -0.881  25.237  0.00  0.00    +0.008 A 
ATOM      6  C   UNL     1      -3.829  -0.477  24.593  0.00  0.00    +0.055 A 
ATOM      7  C   UNL     1      -4.119  -0.897  23.944  0.00  0.00    +0.008 A 
ATOM      8  C   UNL     1      -4.090  -1.722  23.941  0.00  0.00    +0.037 A 
BRANCH   3   2
ATOM      1  C   UNL     1      -3.018  -3.338  24.512  0.00  0.00    +0.252 C 
ATOM      2  O   UNL     1      -3.743  -2.950  24.583  0.00  0.00    -0.471 OA
ENDBRANCH   3   2
ENDBRANCH   9   6
TORSDOF 3
ENDMDL
MODEL 2
REMARK VINA RESULT:      -9.6      1.591      1.988
REMARK  Name = 
REMARK  3 active torsions:
REMARK  status: ('A' for Active; 'I' for Inactive)
REMARK    1  A    between atoms: O_2  and  C_3
REMARK    2  A    between atoms: C_6  and  C_9
REMARK    3  A    between atoms: N_11  and  C_12
REMARK                            x       y       z     vdW  Elec       q    Type
REMARK                         _______ _______ _______ _____ _____    ______ ____
ROOT
ATOM      9  C   UNL     1      -3.883   0.862  24.835  0.00  0.00    +0.265 C 
ATOM     10  O   UNL     1      -4.574   1.257  25.052  0.00  0.00    -0.268 OA
ATOM     11  N   UNL     1      -3.187   1.288  24.711  0.00  0.00    -0.198 NA
ENDROOT
BRANCH  11  12
ATOM     12  C   UNL     1      -3.182   2.108  24.805  0.00  0.00    +0.155 C 
ATOM     13  C   UNL     1      -3.800   2.620  24.619  0.00  0.00    +0.166 C 
ATOM     14  O   UNL     1      -3.558   3.387  24.800  0.00  0.00    -0.349 OA
ATOM     15  C   UNL     1      -2.791   3.349  25.099  0.00  0.00    +0.177 C 
ATOM     16  C   UNL     1      -2.166   3.799  25.396  0.00  0.00    +0.211 C 
ATOM     17  O   UNL     1      -2.161   4.619  25.490  0.00  0.00    -0.218 OA
ATOM     18  C   UNL     1      -1.548   3.286  25.583  0.00  0.00    +0.178 C 
ATOM     19  O   UNL     1      -1.790   2.519  25.401  0.00  0.00    -0.349 OA
ATOM     20  C   UNL     1      -2.558   2.558  25.102  0.00  0.00    +0.167 C 
ENDBRANCH  11  12
BRANCH   9   6
ATOM      3  C   UNL     1      -3.899  -1.596  24.553  0.00  0.00    +0.139 A 
ATOM      4  C   UNL     1      -3.720  -1.266  25.288  0.00  0.00    +0.037 A 
ATOM      5  C   UNL     1      -3.715  -0.447  25.382  0.00  0.00    +0.008 A 
ATOM      6  C   UNL     1      -3.888   0.043  24.741  0.00  0.00    +0.055 A 
ATOM      7  C   UNL     1      -4.067  -0.287  24.006  0.00  0.00    +0.008 A 
ATOM      8  C   UNL     1      -4.073  -1.107  23.912  0.00  0.00    +0.037 A 
BRANCH   3   2
ATOM      1  C   UNL     1      -3.212  -2.849  24.573  0.00  0.00    +0.252 C 
ATOM      2  O   UNL     1      -3.905  -2.416  24.459  0.00  0.00    -0.471 OA
ENDBRANCH   3   2
ENDBRANCH   9   6
TORSDOF 3
ENDMDL
MODEL 3
REMARK VINA RESULT:      -8.8      1.297      4.688
REMARK  Name = 
REMARK  3 active torsions:
REMARK  status: ('A' for Active; 'I' for Inactive)
REMARK    1  A    between atoms: O_2  and  C_3
REMARK    2  A    between atoms: C_6  and  C_9
REMARK    3  A    between atoms: N_11  and  C_12
REMARK                            x       y       z     vdW  Elec       q    Type
REMARK                         _______ _______ _______ _____ _____    ______ ____
ROOT
ATOM      9  C   UNL     1      -4.243   0.198  24.694  0.00  0.00    +0.265 C 
ATOM     10  O   UNL     1      -4.612  -0.324  24.172  0.00  0.00    -0.268 OA
ATOM     11  N   UNL     1      -3.559  -0.034  25.093  0.00  0.00    -0.198 NA
ENDROOT
BRANCH  11  12
ATOM     12  C   UNL     1      -3.244  -0.787  24.971  0.00  0.00    +0.155 C 
ATOM     13  C   UNL     1      -3.677  -1.479  24.850  0.00  0.00    +0.166 C 
ATOM     14  O   UNL     1      -3.142  -2.099  24.752  0.00  0.00    -0.349 OA
ATOM     15  C   UNL     1      -2.380  -1.792  24.813  0.00  0.00    +0.177 C 
ATOM     16  C   UNL     1      -1.578  -1.984  24.791  0.00  0.00    +0.211 C 
ATOM     17  O   UNL     1      -1.264  -2.737  24.668  0.00  0.00    -0.218 OA
ATOM     18  C   UNL     1      -1.146  -1.292  24.912  0.00  0.00    +0.178 C 
ATOM     19  O   UNL     1      -1.680  -0.672  25.009  0.00  0.00    -0.349 OA
ATOM     20  C   UNL     1      -2.443  -0.980  24.948  0.00  0.00    +0.167 C 
ENDBRANCH  11  12
BRANCH   9   6
ATOM      3  C   UNL     1      -5.186   2.456  25.060  0.00  0.00    +0.139 A 
ATOM      4  C   UNL     1      -4.567   2.349  24.525  0.00  0.00    +0.037 A 
ATOM      5  C   UNL     1      -4.253   1.597  24.403  0.00  0.00    +0.008 A 
ATOM      6  C   UNL     1      -4.557   0.950  24.816  0.00  0.00    +0.055 A 
ATOM      7  C   UNL     1      -5.176   1.057  25.350  0.00  0.00    +0.008 A 
ATOM      8  C   UNL     1      -5.491   1.810  25.472  0.00  0.00    +0.037 A 
BRANCH   3   2
ATOM      1  C   UNL     1      -5.056   3.783  25.573  0.00  0.00    +0.252 C 
ATOM      2  O   UNL     1      -5.501   3.209  25.182  0.00  0.00    -0.471 OA
ENDBRANCH   3   2
ENDBRANCH   9   6
TORSDOF 3
ENDMDL
MODEL 4
REMARK VINA RESULT:      -8.6      2.143      4.532
REMARK  Name = 
REMARK  3 active torsions:
REMARK  status: ('A' for Active; 'I' for Inactive)
REMARK    1  A    between atoms: O_2  and  C_3
REMARK    2  A    between atoms: C_6  and  C_9
REMARK    3  A    between atoms: N_11  and  C_12
REMARK                            x       y       z     vdW  Elec       q    Type
REMARK                         _______ _______ _______ _____ _____    ______ ____
ROOT
ATOM      9  C   UNL     1      -3.058   1.403  24.020  0.00  0.00    +0.265 C 
ATOM     10  O   UNL     1      -2.916   1.473  23.209  0.00  0.00    -0.268 OA
ATOM     11  N   UNL     1      -2.466   1.116  24.518  0.00  0.00    -0.198 NA
ENDROOT
BRANCH  11  12
ATOM     12  C   UNL     1      -1.733   0.899  24.206  0.00  0.00    +0.155 C 
ATOM     13  C   UNL     1      -1.300   1.324  23.648  0.00  0.00    +0.166 C 
ATOM     14  O   UNL     1      -0.605   0.907  23.496  0.00  0.00    -0.349 OA
ATOM     15  C   UNL     1      -0.608   0.226  23.960  0.00  0.00    +0.177 C 
ATOM     16  C   UNL     1      -0.181  -0.453  24.154  0.00  0.00    +0.211 C 
ATOM     17  O   UNL     1       0.552  -0.670  23.842  0.00  0.00    -0.218 OA
ATOM     18  C   UNL     1      -0.615  -0.877  24.712  0.00  0.00    +0.178 C 
ATOM     19  O   UNL     1      -1.310  -0.461  24.864  0.00  0.00    -0.349 OA
ATOM     20  C   UNL     1      -1.306   0.221  24.399  0.00  0.00    +0.167 C 
ENDBRANCH  11  12
BRANCH   9   6
ATOM      3  C   UNL     1      -5.256   2.052  24.952  0.00  0.00    +0.139 A 
ATOM      4  C   UNL     1      -5.051   1.255  24.897  0.00  0.00    +0.037 A 
ATOM      5  C   UNL     1      -4.318   1.039  24.587  0.00  0.00    +0.008 A 
ATOM      6  C   UNL     1      -3.791   1.619  24.330  0.00  0.00    +0.055 A 
ATOM      7  C   UNL     1      -3.996   2.416  24.385  0.00  0.00    +0.008 A 
ATOM      8  C   UNL     1      -4.729   2.633  24.696  0.00  0.00    +0.037 A 
BRANCH   3   2
ATOM      1  C   UNL     1      -6.111   2.257  26.079  0.00  0.00    +0.252 C 
ATOM      2  O   UNL     1      -5.989   2.269  25.263  0.00  0.00    -0.471 OA
ENDBRANCH   3   2
ENDBRANCH   9   6
TORSDOF 3
ENDMDL
