REMARK  Name = 
REMARK  9 active torsions:
REMARK  status: ('A' for Active; 'I' for Inactive)
REMARK    1  A    between atoms: C_2  and  C_3
REMARK    2  A    between atoms: N_5  and  C_6
REMARK    3  A    between atoms: C_6  and  C_7
REMARK    4  A    between atoms: C_11  and  O_12
REMARK    5  A    between atoms: C_18  and  C_19
REMARK    6  A    between atoms: C_19  and  C_20
REMARK    7  A    between atoms: N_22  and  C_24
REMARK    8  A    between atoms: C_24  and  C_25
REMARK    9  A    between atoms: C_25  and  C_26
REMARK                            x       y       z     vdW  Elec       q    Type
REMARK                         _______ _______ _______ _____ _____    ______ ____
ROOT
ATOM      3  C   UNL     1       2.143  -2.888   0.000  0.00  0.00    +0.017 C 
ATOM      4  C   UNL     1       1.429  -2.475   0.000  0.00  0.00    +0.072 C 
ATOM      5  N   UNL     1       1.429  -1.650   0.000  0.00  0.00    -0.269 NA
ATOM     16  C   UNL     1       2.143  -1.238   0.000  0.00  0.00    +0.072 C 
ATOM     17  C   UNL     1       2.858  -1.650   0.000  0.00  0.00    +0.018 C 
ATOM     18  C   UNL     1       2.858  -2.475   0.000  0.00  0.00    +0.012 C 
ENDROOT
BRANCH   3   2
ATOM      1  C   UNL     1       2.858  -4.125   0.000  0.00  0.00    +0.000 C 
ATOM      2  C   UNL     1       2.143  -3.712   0.000  0.00  0.00    +0.001 C 
ENDBRANCH   3   2
BRANCH   5   6
ATOM      6  C   UNL     1       0.715  -1.238   0.000  0.00  0.00    +0.102 C 
BRANCH   6   7
ATOM      7  C   UNL     1       0.715  -0.412   0.000  0.00  0.00    +0.033 A 
ATOM      8  C   UNL     1       0.000   0.000   0.000  0.00  0.00    +0.196 A 
ATOM      9  O   UNL     1      -0.715  -0.412   0.000  0.00  0.00    -0.287 OA
ATOM     10  C   UNL     1       0.000   0.825   0.000  0.00  0.00    +0.079 A 
ATOM     11  C   UNL     1       0.715   1.238   0.000  0.00  0.00    +0.142 A 
ATOM     14  C   UNL     1       1.429   0.825   0.000  0.00  0.00    +0.037 A 
ATOM     15  C   UNL     1       1.429   0.000   0.000  0.00  0.00    +0.003 A 
BRANCH  11  12
ATOM     12  O   UNL     1       0.715   2.062   0.000  0.00  0.00    -0.471 OA
ATOM     13  C   UNL     1       1.429   2.475   0.000  0.00  0.00    +0.252 C 
ENDBRANCH  11  12
ENDBRANCH   6   7
ENDBRANCH   5   6
BRANCH  18  19
ATOM     19  C   UNL     1       3.572  -2.888   0.000  0.00  0.00    +0.085 C 
BRANCH  19  20
ATOM     20  C   UNL     1       4.287  -2.475   0.000  0.00  0.00    +0.226 C 
ATOM     21  O   UNL     1       4.287  -1.650   0.000  0.00  0.00    -0.275 OA
ATOM     22  N   UNL     1       5.001  -2.888   0.000  0.00  0.00    -0.277 N 
ATOM     23  C   UNL     1       5.001  -3.712   0.000  0.00  0.00    +0.115 C 
BRANCH  22  24
ATOM     24  C   UNL     1       5.716  -2.475   0.000  0.00  0.00    +0.110 C 
BRANCH  24  25
ATOM     25  C   UNL     1       6.430  -2.888   0.000  0.00  0.00    +0.127 C 
BRANCH  25  26
ATOM     26  C   UNL     1       7.145  -2.475   0.000  0.00  0.00    +0.075 C 
ATOM     27  N   UNL     1       7.859  -2.062   0.000  0.00  0.00    -0.196 NA
ENDBRANCH  25  26
ENDBRANCH  24  25
ENDBRANCH  22  24
ENDBRANCH  19  20
ENDBRANCH  18  19
TORSDOF 9
