MODEL 1
REMARK VINA RESULT:      -9.0      0.000      0.000
REMARK  Name = 
REMARK  5 active torsions:
REMARK  status: ('A' for Active; 'I' for Inactive)
REMARK    1  A    between atoms: O_2  and  C_3
REMARK    2  A    between atoms: C_3  and  C_4
REMARK    3  A    between atoms: C_9  and  C_11
REMARK    4  A    between atoms: C_11  and  C_12
REMARK    5  A    between atoms: C_30  and  N_33
REMARK                            x       y       z     vdW  Elec       q    Type
REMARK                         _______ _______ _______ _____ _____    ______ ____
ROOT
ATOM     12  C   UNL     1       0.788   0.027  23.318  0.00  0.00    +0.016 C 
ATOM     13  C   UNL     1       0.783  -0.765  23.548  0.00  0.00    +0.022 C 
ATOM     14  C   UNL     1       0.123  -1.079  23.931  0.00  0.00    +0.093 C 
ATOM     15  N   UNL     1      -0.532  -0.675  24.105  0.00  0.00    -0.278 N 
ATOM     16  C   UNL     1      -0.527   0.192  23.852  0.00  0.00    +0.098 C 
ATOM     17  C   UNL     1      -0.038   0.742  23.477  0.00  0.00    +0.042 C 
ATOM     18  C   UNL     1      -0.442   1.462  23.448  0.00  0.00    -0.026 C 
ATOM     19  C   UNL     1      -1.178   1.355  23.804  0.00  0.00    +0.016 C 
ATOM     20  C   UNL     1      -1.928   1.817  24.003  0.00  0.00    +0.231 C 
ATOM     21  O   UNL     1      -2.353   1.693  24.227  0.00  0.00    -0.471 OA
ATOM     22  C   UNL     1      -2.544   0.678  24.605  0.00  0.00    +0.136 A 
ATOM     23  C   UNL     1      -3.188   0.332  24.990  0.00  0.00    +0.030 A 
ATOM     24  C   UNL     1      -3.161  -0.463  25.208  0.00  0.00    +0.119 C 
ATOM     25  N   UNL     1      -2.490  -0.914  25.041  0.00  0.00    -0.204 NA
ATOM     26  C   UNL     1      -1.846  -0.568  24.656  0.00  0.00    +0.174 C 
ATOM     27  C   UNL     1      -1.176  -1.019  24.489  0.00  0.00    +0.243 C 
ATOM     28  O   UNL     1      -1.149  -1.814  24.707  0.00  0.00    -0.273 OA
ATOM     29  C   UNL     1      -3.858   0.783  25.156  0.00  0.00    +0.015 A 
ATOM     30  C   UNL     1      -3.886   1.578  24.939  0.00  0.00    +0.048 A 
ATOM     31  C   UNL     1      -3.242   1.924  24.554  0.00  0.00    +0.018 A 
ATOM     32  C   UNL     1      -2.572   1.473  24.388  0.00  0.00    +0.038 A 
ENDROOT
BRANCH  30  33
ATOM     33  N   UNL     1      -4.556   2.029  25.106  0.00  0.00    -0.305 N 
ATOM     34  C   UNL     1      -4.483   2.744  25.510  0.00  0.00    +0.110 C 
ATOM     35  C   UNL     1      -5.153   3.195  25.677  0.00  0.00    +0.110 C 
ATOM     36  N   UNL     1      -5.898   2.930  25.439  0.00  0.00    -0.214 NA
ATOM     37  C   UNL     1      -5.971   2.215  25.035  0.00  0.00    +0.110 C 
ATOM     38  C   UNL     1      -5.301   1.764  24.868  0.00  0.00    +0.110 C 
ENDBRANCH  30  33
BRANCH  12  11
ATOM     11  C   UNL     1       1.465   0.307  22.937  0.00  0.00    +0.086 C 
BRANCH  11   9
ATOM      4  C   UNL     1       3.661   0.128  23.080  0.00  0.00    +0.105 C 
ATOM      5  C   UNL     1       4.181   0.723  22.845  0.00  0.00    +0.024 C 
ATOM      6  C   UNL     1       3.731   1.357  22.565  0.00  0.00    +0.023 C 
ATOM      7  C   UNL     1       2.934   1.151  22.627  0.00  0.00    +0.093 C 
ATOM      8  N   UNL     1       2.891   0.391  22.945  0.00  0.00    -0.279 N 
ATOM      9  C   UNL     1       2.200  -0.031  23.101  0.00  0.00    +0.226 C 
ATOM     10  O   UNL     1       2.243  -0.790  23.422  0.00  0.00    -0.275 OA
BRANCH   4   3
ATOM      3  C   UNL     1       3.875  -0.605  23.394  0.00  0.00    +0.162 C 
BRANCH   3   2
ATOM      1  C   UNL     1       4.870  -1.472  23.941  0.00  0.00    +0.174 C 
ATOM      2  O   UNL     1       4.665  -0.762  23.576  0.00  0.00    -0.349 OA
ENDBRANCH   3   2
ENDBRANCH   4   3
ENDBRANCH  11   9
ENDBRANCH  12  11
TORSDOF 5
ENDMDL
MODEL 2
REMARK VINA RESULT:      -8.5      1.350      6.688
REMARK  Name = 
REMARK  5 active torsions:
REMARK  status: ('A' for Active; 'I' for Inactive)
REMARK    1  A    between atoms: O_2  and  C_3
REMARK    2  A    between atoms: C_3  and  C_4
REMARK    3  A    between atoms: C_9  and  C_11
REMARK    4  A    between atoms: C_11  and  C_12
REMARK    5  A    between atoms: C_30  and  N_33
REMARK                            x       y       z     vdW  Elec       q    Type
REMARK                         _______ _______ _______ _____ _____    ______ ____
ROOT
ATOM     12  C   UNL     1      -3.760   0.943  24.421  0.00  0.00    +0.016 C 
ATOM     13  C   UNL     1      -3.940   0.232  24.799  0.00  0.00    +0.022 C 
ATOM     14  C   UNL     1      -3.360  -0.349  24.881  0.00  0.00    +0.093 C 
ATOM     15  N   UNL     1      -2.618  -0.286  24.621  0.00  0.00    -0.278 N 
ATOM     16  C   UNL     1      -2.421   0.492  24.208  0.00  0.00    +0.098 C 
ATOM     17  C   UNL     1      -2.775   1.207  23.995  0.00  0.00    +0.042 C 
ATOM     18  C   UNL     1      -2.208   1.667  23.610  0.00  0.00    -0.026 C 
ATOM     19  C   UNL     1      -1.505   1.236  23.585  0.00  0.00    +0.016 C 
ATOM     20  C   UNL     1      -0.655   1.308  23.288  0.00  0.00    +0.231 C 
ATOM     21  O   UNL     1      -0.265   1.003  23.304  0.00  0.00    -0.471 OA
ATOM     22  C   UNL     1      -0.312   0.007  23.769  0.00  0.00    +0.136 A 
ATOM     23  C   UNL     1       0.244  -0.595  23.868  0.00  0.00    +0.030 A 
ATOM     24  C   UNL     1       0.031  -1.294  24.251  0.00  0.00    +0.119 C 
ATOM     25  N   UNL     1      -0.738  -1.392  24.535  0.00  0.00    -0.204 NA
ATOM     26  C   UNL     1      -1.294  -0.790  24.436  0.00  0.00    +0.174 C 
ATOM     27  C   UNL     1      -2.062  -0.887  24.720  0.00  0.00    +0.243 C 
ATOM     28  O   UNL     1      -2.274  -1.587  25.102  0.00  0.00    -0.273 OA
ATOM     29  C   UNL     1       1.012  -0.497  23.585  0.00  0.00    +0.015 A 
ATOM     30  C   UNL     1       1.225   0.202  23.202  0.00  0.00    +0.048 A 
ATOM     31  C   UNL     1       0.669   0.804  23.103  0.00  0.00    +0.018 A 
ATOM     32  C   UNL     1      -0.099   0.706  23.387  0.00  0.00    +0.038 A 
ENDROOT
BRANCH  30  33
ATOM     33  N   UNL     1       1.993   0.299  22.918  0.00  0.00    -0.305 N 
ATOM     34  C   UNL     1       2.521   0.792  23.317  0.00  0.00    +0.110 C 
ATOM     35  C   UNL     1       3.289   0.890  23.033  0.00  0.00    +0.110 C 
ATOM     36  N   UNL     1       3.530   0.495  22.350  0.00  0.00    -0.214 NA
ATOM     37  C   UNL     1       3.002   0.002  21.951  0.00  0.00    +0.110 C 
ATOM     38  C   UNL     1       2.234  -0.096  22.235  0.00  0.00    +0.110 C 
ENDBRANCH  30  33
BRANCH  12  11
ATOM     11  C   UNL     1      -4.364   1.502  24.357  0.00  0.00    +0.086 C 
BRANCH  11   9
ATOM      4  C   UNL     1      -5.710   2.489  25.802  0.00  0.00    +0.105 C 
ATOM      5  C   UNL     1      -5.782   3.308  25.868  0.00  0.00    +0.024 C 
ATOM      6  C   UNL     1      -5.276   3.653  25.314  0.00  0.00    +0.023 C 
ATOM      7  C   UNL     1      -4.892   3.047  24.907  0.00  0.00    +0.093 C 
ATOM      8  N   UNL     1      -5.161   2.327  25.208  0.00  0.00    -0.279 N 
ATOM      9  C   UNL     1      -4.922   1.578  24.961  0.00  0.00    +0.226 C 
ATOM     10  O   UNL     1      -5.240   0.905  25.316  0.00  0.00    -0.275 OA
BRANCH   4   3
ATOM      3  C   UNL     1      -6.118   1.930  26.252  0.00  0.00    +0.162 C 
BRANCH   3   2
ATOM      1  C   UNL     1      -6.884   1.595  27.410  0.00  0.00    +0.174 C 
ATOM      2  O   UNL     1      -6.514   2.161  26.938  0.00  0.00    -0.349 OA
ENDBRANCH   3   2
ENDBRANCH   4   3
ENDBRANCH  11   9
ENDBRANCH  12  11
TORSDOF 5
ENDMDL
MODEL 3
REMARK VINA RESULT:      -8.0      1.445      2.284
REMARK  Name = 
REMARK  5 active torsions:
REMARK  status: ('A' for Active; 'I' for Inactive)
REMARK    1  A    between atoms: O_2  and  C_3
REMARK    2  A    between atoms: C_3  and  C_4
REMARK    3  A    between atoms: C_9  and  C_11
REMARK    4  A    between atoms: C_11  and  C_12
REMARK    5  A    between atoms: C_30  and  N_33
REMARK                            x       y       z     vdW  Elec       q    Type
REMARK                         _______ _______ _______ _____ _____    ______ ____
ROOT
ATOM     12  C   UNL     1       0.362   1.094  23.784  0.00  0.00    +0.016 C 
ATOM     13  C   UNL     1       0.732   1.816  23.931  0.00  0.00    +0.022 C 
ATOM     14  C   UNL     1       0.295   2.451  24.224  0.00  0.00    +0.093 C 
ATOM     15  N   UNL     1      -0.477   2.432  24.383  0.00  0.00    -0.278 N 
ATOM     16  C   UNL     1      -0.883   1.642  24.222  0.00  0.00    +0.098 C 
ATOM     17  C   UNL     1      -0.711   0.882  23.947  0.00  0.00    +0.042 C 
ATOM     18  C   UNL     1      -1.409   0.443  23.959  0.00  0.00    -0.026 C 
ATOM     19  C   UNL     1      -2.012   0.931  24.241  0.00  0.00    +0.016 C 
ATOM     20  C   UNL     1      -2.896   0.910  24.424  0.00  0.00    +0.231 C 
ATOM     21  O   UNL     1      -3.214   1.248  24.598  0.00  0.00    -0.471 OA
ATOM     22  C   UNL     1      -2.902   2.273  24.852  0.00  0.00    +0.136 A 
ATOM     23  C   UNL     1      -3.310   2.928  25.145  0.00  0.00    +0.030 A 
ATOM     24  C   UNL     1      -2.910   3.637  25.281  0.00  0.00    +0.119 C 
ATOM     25  N   UNL     1      -2.101   3.690  25.124  0.00  0.00    -0.204 NA
ATOM     26  C   UNL     1      -1.693   3.034  24.832  0.00  0.00    +0.174 C 
ATOM     27  C   UNL     1      -0.885   3.087  24.675  0.00  0.00    +0.243 C 
ATOM     28  O   UNL     1      -0.485   3.795  24.811  0.00  0.00    -0.273 OA
ATOM     29  C   UNL     1      -4.118   2.875  25.301  0.00  0.00    +0.015 A 
ATOM     30  C   UNL     1      -4.519   2.167  25.166  0.00  0.00    +0.048 A 
ATOM     31  C   UNL     1      -4.112   1.511  24.873  0.00  0.00    +0.018 A 
ATOM     32  C   UNL     1      -3.304   1.565  24.717  0.00  0.00    +0.038 A 
ENDROOT
BRANCH  30  33
ATOM     33  N   UNL     1      -5.327   2.114  25.322  0.00  0.00    -0.305 N 
ATOM     34  C   UNL     1      -5.604   2.192  26.095  0.00  0.00    +0.110 C 
ATOM     35  C   UNL     1      -6.412   2.139  26.252  0.00  0.00    +0.110 C 
ATOM     36  N   UNL     1      -6.944   2.008  25.635  0.00  0.00    -0.214 NA
ATOM     37  C   UNL     1      -6.667   1.930  24.861  0.00  0.00    +0.110 C 
ATOM     38  C   UNL     1      -5.859   1.983  24.705  0.00  0.00    +0.110 C 
ENDBRANCH  30  33
BRANCH  12  11
ATOM     11  C   UNL     1       0.829   0.479  23.491  0.00  0.00    +0.086 C 
BRANCH  11   9
ATOM      4  C   UNL     1       2.781   0.334  22.468  0.00  0.00    +0.105 C 
ATOM      5  C   UNL     1       2.900  -0.104  21.780  0.00  0.00    +0.024 C 
ATOM      6  C   UNL     1       2.180  -0.452  21.573  0.00  0.00    +0.023 C 
ATOM      7  C   UNL     1       1.618  -0.228  22.133  0.00  0.00    +0.093 C 
ATOM      8  N   UNL     1       1.989   0.258  22.687  0.00  0.00    -0.279 N 
ATOM      9  C   UNL     1       1.631   0.606  23.343  0.00  0.00    +0.226 C 
ATOM     10  O   UNL     1       2.075   1.082  23.852  0.00  0.00    -0.275 OA
BRANCH   4   3
ATOM      3  C   UNL     1       3.354   0.773  22.869  0.00  0.00    +0.162 C 
BRANCH   3   2
ATOM      1  C   UNL     1       4.750   0.802  23.174  0.00  0.00    +0.174 C 
ATOM      2  O   UNL     1       4.141   0.748  22.621  0.00  0.00    -0.349 OA
ENDBRANCH   3   2
ENDBRANCH   4   3
ENDBRANCH  11   9
ENDBRANCH  12  11
TORSDOF 5
ENDMDL
MODEL 4
REMARK VINA RESULT:      -7.1     15.367     17.320
REMARK  Name = 
REMARK  5 active torsions:
REMARK  status: ('A' for Active; 'I' for Inactive)
REMARK    1  A    between atoms: O_2  and  C_3
REMARK    2  A    between atoms: C_3  and  C_4
REMARK    3  A    between atoms: C_9  and  C_11
REMARK    4  A    between atoms: C_11  and  C_12
REMARK    5  A    between atoms: C_30  and  N_33
REMARK                            x       y       z     vdW  Elec       q    Type
REMARK                         _______ _______ _______ _____ _____    ______ ____
ROOT
ATOM     12  C   UNL     1      -8.797  -9.781  14.153  0.00  0.00    +0.016 C 
ATOM     13  C   UNL     1      -9.301  -9.749  13.501  0.00  0.00    +0.022 C 
ATOM     14  C   UNL     1      -8.988  -9.769  12.738  0.00  0.00    +0.093 C 
ATOM     15  N   UNL     1      -8.220  -9.817  12.566  0.00  0.00    -0.278 N 
ATOM     16  C   UNL     1      -7.668  -9.852  13.280  0.00  0.00    +0.098 C 
ATOM     17  C   UNL     1      -7.696  -9.850  14.106  0.00  0.00    +0.042 C 
ATOM     18  C   UNL     1      -6.920  -9.899  14.386  0.00  0.00    -0.026 C 
ATOM     19  C   UNL     1      -6.416  -9.930  13.734  0.00  0.00    +0.016 C 
ATOM     20  C   UNL     1      -5.536  -9.985  13.537  0.00  0.00    +0.231 C 
ATOM     21  O   UNL     1      -5.286 -10.001  13.109  0.00  0.00    -0.471 OA
ATOM     22  C   UNL     1      -5.788  -9.969  12.131  0.00  0.00    +0.136 A 
ATOM     23  C   UNL     1      -5.508  -9.986  11.354  0.00  0.00    +0.030 A 
ATOM     24  C   UNL     1      -6.039  -9.953  10.723  0.00  0.00    +0.119 C 
ATOM     25  N   UNL     1      -6.850  -9.902  10.869  0.00  0.00    -0.204 NA
ATOM     26  C   UNL     1      -7.129  -9.885  11.645  0.00  0.00    +0.174 C 
ATOM     27  C   UNL     1      -7.940  -9.834  11.790  0.00  0.00    +0.243 C 
ATOM     28  O   UNL     1      -8.470  -9.801  11.160  0.00  0.00    -0.273 OA
ATOM     29  C   UNL     1      -4.698 -10.037  11.209  0.00  0.00    +0.015 A 
ATOM     30  C   UNL     1      -4.167 -10.070  11.839  0.00  0.00    +0.048 A 
ATOM     31  C   UNL     1      -4.446 -10.053  12.616  0.00  0.00    +0.018 A 
ATOM     32  C   UNL     1      -5.257 -10.002  12.761  0.00  0.00    +0.038 A 
ENDROOT
BRANCH  30  33
ATOM     33  N   UNL     1      -3.356 -10.121  11.694  0.00  0.00    -0.305 N 
ATOM     34  C   UNL     1      -2.910 -10.720  12.045  0.00  0.00    +0.110 C 
ATOM     35  C   UNL     1      -2.100 -10.770  11.900  0.00  0.00    +0.110 C 
ATOM     36  N   UNL     1      -1.735 -10.222  11.403  0.00  0.00    -0.214 NA
ATOM     37  C   UNL     1      -2.181  -9.624  11.052  0.00  0.00    +0.110 C 
ATOM     38  C   UNL     1      -2.991  -9.573  11.197  0.00  0.00    +0.110 C 
ENDBRANCH  30  33
BRANCH  12  11
ATOM     11  C   UNL     1      -9.144  -9.760  14.902  0.00  0.00    +0.086 C 
BRANCH  11   9
ATOM      4  C   UNL     1     -10.005  -8.321  16.339  0.00  0.00    +0.105 C 
ATOM      5  C   UNL     1     -10.108  -8.487  17.140  0.00  0.00    +0.024 C 
ATOM      6  C   UNL     1      -9.838  -9.255  17.277  0.00  0.00    +0.023 C 
ATOM      7  C   UNL     1      -9.569  -9.562  16.560  0.00  0.00    +0.093 C 
ATOM      8  N   UNL     1      -9.672  -8.984  15.980  0.00  0.00    -0.279 N 
ATOM      9  C   UNL     1      -9.476  -9.057  15.183  0.00  0.00    +0.226 C 
ATOM     10  O   UNL     1      -9.612  -8.429  14.665  0.00  0.00    -0.275 OA
BRANCH   4   3
ATOM      3  C   UNL     1     -10.201  -7.613  15.963  0.00  0.00    +0.162 C 
BRANCH   3   2
ATOM      1  C   UNL     1     -10.719  -6.283  16.021  0.00  0.00    +0.174 C 
ATOM      2  O   UNL     1     -10.521  -6.989  16.398  0.00  0.00    -0.349 OA
ENDBRANCH   3   2
ENDBRANCH   4   3
ENDBRANCH  11   9
ENDBRANCH  12  11
TORSDOF 5
ENDMDL
MODEL 5
REMARK VINA RESULT:      -7.0     14.436     17.913
REMARK  Name = 
REMARK  5 active torsions:
REMARK  status: ('A' for Active; 'I' for Inactive)
REMARK    1  A    between atoms: O_2  and  C_3
REMARK    2  A    between atoms: C_3  and  C_4
REMARK    3  A    between atoms: C_9  and  C_11
REMARK    4  A    between atoms: C_11  and  C_12
REMARK    5  A    between atoms: C_30  and  N_33
REMARK                            x       y       z     vdW  Elec       q    Type
REMARK                         _______ _______ _______ _____ _____    ______ ____
ROOT
ATOM     12  C   UNL     1      10.638  -7.979  32.492  0.00  0.00    +0.016 C 
ATOM     13  C   UNL     1      10.465  -7.268  32.873  0.00  0.00    +0.022 C 
ATOM     14  C   UNL     1      10.936  -6.604  32.741  0.00  0.00    +0.093 C 
ATOM     15  N   UNL     1      11.562  -6.583  32.262  0.00  0.00    -0.278 N 
ATOM     16  C   UNL     1      11.752  -7.361  31.844  0.00  0.00    +0.098 C 
ATOM     17  C   UNL     1      11.475  -8.137  31.788  0.00  0.00    +0.042 C 
ATOM     18  C   UNL     1      11.966  -8.545  31.265  0.00  0.00    -0.026 C 
ATOM     19  C   UNL     1      12.546  -8.021  30.999  0.00  0.00    +0.016 C 
ATOM     20  C   UNL     1      13.263  -7.997  30.452  0.00  0.00    +0.231 C 
ATOM     21  O   UNL     1      13.583  -7.639  30.329  0.00  0.00    -0.471 OA
ATOM     22  C   UNL     1      13.513  -6.620  30.739  0.00  0.00    +0.136 A 
ATOM     23  C   UNL     1      13.963  -5.936  30.629  0.00  0.00    +0.030 A 
ATOM     24  C   UNL     1      13.763  -5.242  31.026  0.00  0.00    +0.119 C 
ATOM     25  N   UNL     1      13.113  -5.230  31.534  0.00  0.00    -0.204 NA
ATOM     26  C   UNL     1      12.662  -5.913  31.644  0.00  0.00    +0.174 C 
ATOM     27  C   UNL     1      12.013  -5.901  32.152  0.00  0.00    +0.243 C 
ATOM     28  O   UNL     1      11.813  -5.206  32.549  0.00  0.00    -0.273 OA
ATOM     29  C   UNL     1      14.613  -5.949  30.121  0.00  0.00    +0.015 A 
ATOM     30  C   UNL     1      14.814  -6.643  29.724  0.00  0.00    +0.048 A 
ATOM     31  C   UNL     1      14.363  -7.327  29.834  0.00  0.00    +0.018 A 
ATOM     32  C   UNL     1      13.714  -7.314  30.341  0.00  0.00    +0.038 A 
ENDROOT
BRANCH  30  33
ATOM     33  N   UNL     1      15.463  -6.655  29.216  0.00  0.00    -0.305 N 
ATOM     34  C   UNL     1      16.229  -6.666  29.525  0.00  0.00    +0.110 C 
ATOM     35  C   UNL     1      16.878  -6.678  29.017  0.00  0.00    +0.110 C 
ATOM     36  N   UNL     1      16.764  -6.680  28.200  0.00  0.00    -0.214 NA
ATOM     37  C   UNL     1      15.999  -6.669  27.891  0.00  0.00    +0.110 C 
ATOM     38  C   UNL     1      15.349  -6.657  28.399  0.00  0.00    +0.110 C 
ENDBRANCH  30  33
BRANCH  12  11
ATOM     11  C   UNL     1      10.146  -8.623  32.648  0.00  0.00    +0.086 C 
BRANCH  11   9
ATOM      4  C   UNL     1       8.138  -9.410  32.172  0.00  0.00    +0.105 C 
ATOM      5  C   UNL     1       7.873 -10.152  32.414  0.00  0.00    +0.024 C 
ATOM      6  C   UNL     1       8.481 -10.511  32.844  0.00  0.00    +0.023 C 
ATOM      7  C   UNL     1       9.120  -9.990  32.866  0.00  0.00    +0.093 C 
ATOM      8  N   UNL     1       8.908  -9.309  32.450  0.00  0.00    -0.279 N 
ATOM      9  C   UNL     1       9.382  -8.645  32.334  0.00  0.00    +0.226 C 
ATOM     10  O   UNL     1       9.095  -8.002  31.904  0.00  0.00    -0.275 OA
BRANCH   4   3
ATOM      3  C   UNL     1       7.707  -8.863  31.728  0.00  0.00    +0.162 C 
BRANCH   3   2
ATOM      1  C   UNL     1       6.532  -8.520  30.992  0.00  0.00    +0.174 C 
ATOM      2  O   UNL     1       6.946  -9.049  31.470  0.00  0.00    -0.349 OA
ENDBRANCH   3   2
ENDBRANCH   4   3
ENDBRANCH  11   9
ENDBRANCH  12  11
TORSDOF 5
ENDMDL
MODEL 6
REMARK VINA RESULT:      -5.6     14.319     18.771
REMARK  Name = 
REMARK  5 active torsions:
REMARK  status: ('A' for Active; 'I' for Inactive)
REMARK    1  A    between atoms: O_2  and  C_3
REMARK    2  A    between atoms: C_3  and  C_4
REMARK    3  A    between atoms: C_9  and  C_11
REMARK    4  A    between atoms: C_11  and  C_12
REMARK    5  A    between atoms: C_30  and  N_33
REMARK                            x       y       z     vdW  Elec       q    Type
REMARK                         _______ _______ _______ _____ _____    ______ ____
ROOT
ATOM     12  C   UNL     1      10.872  -8.723  32.089  0.00  0.00    +0.016 C 
ATOM     13  C   UNL     1      10.900  -7.915  32.251  0.00  0.00    +0.022 C 
ATOM     14  C   UNL     1      11.527  -7.459  31.966  0.00  0.00    +0.093 C 
ATOM     15  N   UNL     1      12.126  -7.736  31.534  0.00  0.00    -0.278 N 
ATOM     16  C   UNL     1      12.095  -8.621  31.357  0.00  0.00    +0.098 C 
ATOM     17  C   UNL     1      11.622  -9.283  31.502  0.00  0.00    +0.042 C 
ATOM     18  C   UNL     1      11.977  -9.933  31.139  0.00  0.00    -0.026 C 
ATOM     19  C   UNL     1      12.668  -9.673  30.770  0.00  0.00    +0.016 C 
ATOM     20  C   UNL     1      13.354  -9.990  30.276  0.00  0.00    +0.231 C 
ATOM     21  O   UNL     1      13.754  -9.776  30.076  0.00  0.00    -0.471 OA
ATOM     22  C   UNL     1      13.964  -8.701  30.186  0.00  0.00    +0.136 A 
ATOM     23  C   UNL     1      14.575  -8.216  29.916  0.00  0.00    +0.030 A 
ATOM     24  C   UNL     1      14.575  -7.411  30.095  0.00  0.00    +0.119 C 
ATOM     25  N   UNL     1      13.961  -7.090  30.545  0.00  0.00    -0.204 NA
ATOM     26  C   UNL     1      13.350  -7.574  30.815  0.00  0.00    +0.174 C 
ATOM     27  C   UNL     1      12.737  -7.253  31.264  0.00  0.00    +0.243 C 
ATOM     28  O   UNL     1      12.736  -6.448  31.443  0.00  0.00    -0.273 OA
ATOM     29  C   UNL     1      15.188  -8.538  29.466  0.00  0.00    +0.015 A 
ATOM     30  C   UNL     1      15.190  -9.343  29.287  0.00  0.00    +0.048 A 
ATOM     31  C   UNL     1      14.578  -9.828  29.557  0.00  0.00    +0.018 A 
ATOM     32  C   UNL     1      13.966  -9.506  30.006  0.00  0.00    +0.038 A 
ENDROOT
BRANCH  30  33
ATOM     33  N   UNL     1      15.802  -9.664  28.837  0.00  0.00    -0.305 N 
ATOM     34  C   UNL     1      15.749  -9.675  28.014  0.00  0.00    +0.110 C 
ATOM     35  C   UNL     1      16.361  -9.996  27.565  0.00  0.00    +0.110 C 
ATOM     36  N   UNL     1      17.027 -10.308  27.938  0.00  0.00    -0.214 NA
ATOM     37  C   UNL     1      17.081 -10.297  28.762  0.00  0.00    +0.110 C 
ATOM     38  C   UNL     1      16.468  -9.976  29.211  0.00  0.00    +0.110 C 
ENDBRANCH  30  33
BRANCH  12  11
ATOM     11  C   UNL     1      10.231  -9.148  32.390  0.00  0.00    +0.086 C 
BRANCH  11   9
ATOM      4  C   UNL     1       8.066  -9.436  32.070  0.00  0.00    +0.105 C 
ATOM      5  C   UNL     1       7.635 -10.053  32.409  0.00  0.00    +0.024 C 
ATOM      6  C   UNL     1       8.156 -10.506  32.862  0.00  0.00    +0.023 C 
ATOM      7  C   UNL     1       8.906 -10.169  32.803  0.00  0.00    +0.093 C 
ATOM      8  N   UNL     1       8.851  -9.507  32.313  0.00  0.00    -0.279 N 
ATOM      9  C   UNL     1       9.470  -9.006  32.103  0.00  0.00    +0.226 C 
ATOM     10  O   UNL     1       9.331  -8.362  31.605  0.00  0.00    -0.275 OA
BRANCH   4   3
ATOM      3  C   UNL     1       7.762  -8.850  31.574  0.00  0.00    +0.162 C 
BRANCH   3   2
ATOM      1  C   UNL     1       6.654  -8.266  30.888  0.00  0.00    +0.174 C 
ATOM      2  O   UNL     1       6.979  -8.890  31.318  0.00  0.00    -0.349 OA
ENDBRANCH   3   2
ENDBRANCH   4   3
ENDBRANCH  11   9
ENDBRANCH  12  11
TORSDOF 5
ENDMDL
MODEL 7
REMARK VINA RESULT:      -5.5      1.996      7.031
REMARK  Name = 
REMARK  5 active torsions:
REMARK  status: ('A' for Active; 'I' for Inactive)
REMARK    1  A    between atoms: O_2  and  C_3
REMARK    2  A    between atoms: C_3  and  C_4
REMARK    3  A    between atoms: C_9  and  C_11
REMARK    4  A    between atoms: C_11  and  C_12
REMARK    5  A    between atoms: C_30  and  N_33
REMARK                            x       y       z     vdW  Elec       q    Type
REMARK                         _______ _______ _______ _____ _____    ______ ____
ROOT
ATOM     12  C   UNL     1      -3.812   3.200  25.069  0.00  0.00    +0.016 C 
ATOM     13  C   UNL     1      -3.552   3.727  25.647  0.00  0.00    +0.022 C 
ATOM     14  C   UNL     1      -2.748   3.779  25.826  0.00  0.00    +0.093 C 
ATOM     15  N   UNL     1      -2.181   3.354  25.480  0.00  0.00    -0.278 N 
ATOM     16  C   UNL     1      -2.466   2.777  24.847  0.00  0.00    +0.098 C 
ATOM     17  C   UNL     1      -3.163   2.526  24.482  0.00  0.00    +0.042 C 
ATOM     18  C   UNL     1      -2.965   1.950  23.924  0.00  0.00    -0.026 C 
ATOM     19  C   UNL     1      -2.147   1.846  23.946  0.00  0.00    +0.016 C 
ATOM     20  C   UNL     1      -1.497   1.360  23.550  0.00  0.00    +0.231 C 
ATOM     21  O   UNL     1      -1.005   1.342  23.608  0.00  0.00    -0.471 OA
ATOM     22  C   UNL     1      -0.474   1.974  24.336  0.00  0.00    +0.136 A 
ATOM     23  C   UNL     1       0.323   2.051  24.539  0.00  0.00    +0.030 A 
ATOM     24  C   UNL     1       0.550   2.588  25.122  0.00  0.00    +0.119 C 
ATOM     25  N   UNL     1      -0.019   3.048  25.504  0.00  0.00    -0.204 NA
ATOM     26  C   UNL     1      -0.816   2.971  25.301  0.00  0.00    +0.174 C 
ATOM     27  C   UNL     1      -1.385   3.431  25.682  0.00  0.00    +0.243 C 
ATOM     28  O   UNL     1      -1.157   3.967  26.265  0.00  0.00    -0.273 OA
ATOM     29  C   UNL     1       0.891   1.591  24.158  0.00  0.00    +0.015 A 
ATOM     30  C   UNL     1       0.665   1.054  23.574  0.00  0.00    +0.048 A 
ATOM     31  C   UNL     1      -0.132   0.976  23.371  0.00  0.00    +0.018 A 
ATOM     32  C   UNL     1      -0.701   1.436  23.752  0.00  0.00    +0.038 A 
ENDROOT
BRANCH  30  33
ATOM     33  N   UNL     1       1.233   0.594  23.193  0.00  0.00    -0.305 N 
ATOM     34  C   UNL     1       2.021   0.839  23.179  0.00  0.00    +0.110 C 
ATOM     35  C   UNL     1       2.590   0.379  22.798  0.00  0.00    +0.110 C 
ATOM     36  N   UNL     1       2.371  -0.327  22.430  0.00  0.00    -0.214 NA
ATOM     37  C   UNL     1       1.583  -0.572  22.444  0.00  0.00    +0.110 C 
ATOM     38  C   UNL     1       1.015  -0.112  22.826  0.00  0.00    +0.110 C 
ENDBRANCH  30  33
BRANCH  12  11
ATOM     11  C   UNL     1      -4.623   3.174  24.916  0.00  0.00    +0.086 C 
BRANCH  11   9
ATOM      4  C   UNL     1      -6.296   1.942  25.665  0.00  0.00    +0.105 C 
ATOM      5  C   UNL     1      -6.806   1.522  25.172  0.00  0.00    +0.024 C 
ATOM      6  C   UNL     1      -6.569   1.654  24.392  0.00  0.00    +0.023 C 
ATOM      7  C   UNL     1      -5.915   2.155  24.404  0.00  0.00    +0.093 C 
ATOM      8  N   UNL     1      -5.745   2.334  25.192  0.00  0.00    -0.279 N 
ATOM      9  C   UNL     1      -5.134   2.818  25.459  0.00  0.00    +0.226 C 
ATOM     10  O   UNL     1      -5.032   2.947  26.267  0.00  0.00    -0.275 OA
BRANCH   4   3
ATOM      3  C   UNL     1      -6.331   1.967  26.490  0.00  0.00    +0.162 C 
BRANCH   3   2
ATOM      1  C   UNL     1      -6.842   1.331  27.662  0.00  0.00    +0.174 C 
ATOM      2  O   UNL     1      -6.949   1.593  26.888  0.00  0.00    -0.349 OA
ENDBRANCH   3   2
ENDBRANCH   4   3
ENDBRANCH  11   9
ENDBRANCH  12  11
TORSDOF 5
ENDMDL
