MODEL 1
REMARK VINA RESULT:     -12.8      0.000      0.000
REMARK  Name = 
REMARK  3 active torsions:
REMARK  status: ('A' for Active; 'I' for Inactive)
REMARK    1  A    between atoms: C_2  and  C_5
REMARK    2  A    between atoms: C_12  and  C_14
REMARK    3  A    between atoms: N_17  and  C_19
REMARK                            x       y       z     vdW  Elec       q    Type
REMARK                         _______ _______ _______ _____ _____    ______ ____
ROOT
ATOM      5  C   UNL     1      -1.509   4.191  25.176  0.00  0.00    +0.073 A 
ATOM      6  C   UNL     1      -2.256   3.882  25.017  0.00  0.00    +0.025 A 
ATOM      7  C   UNL     1      -2.375   3.065  25.019  0.00  0.00    +0.100 A 
ATOM      8  C   UNL     1      -1.745   2.558  25.179  0.00  0.00    +0.100 A 
ATOM      9  C   UNL     1      -0.996   2.867  25.339  0.00  0.00    +0.021 A 
ATOM     10  C   UNL     1      -0.878   3.684  25.337  0.00  0.00    +0.005 A 
ATOM     11  N   UNL     1      -2.025   1.784  25.143  0.00  0.00    -0.229 NA
ATOM     12  C   UNL     1      -2.828   1.812  24.959  0.00  0.00    +0.140 A 
ATOM     13  N   UNL     1      -3.044   2.604  24.883  0.00  0.00    -0.229 NA
ENDROOT
BRANCH  12  14
ATOM     14  C   UNL     1      -3.328   1.162  24.868  0.00  0.00    +0.076 C 
ATOM     15  C   UNL     1      -4.152   1.185  24.833  0.00  0.00    +0.026 C 
ATOM     16  C   UNL     1      -4.426   0.412  24.740  0.00  0.00    +0.073 C 
ATOM     17  N   UNL     1      -3.771  -0.089  24.717  0.00  0.00    -0.273 NA
ATOM     18  C   UNL     1      -3.093   0.375  24.797  0.00  0.00    +0.080 C 
BRANCH  17  19
ATOM     19  C   UNL     1      -3.790  -0.909  24.631  0.00  0.00    +0.063 C 
ATOM     20  C   UNL     1      -4.126  -1.245  23.956  0.00  0.00    +0.048 C 
ATOM     21  C   UNL     1      -4.145  -2.065  23.870  0.00  0.00    +0.144 C 
ATOM     22  O   UNL     1      -3.828  -2.549  24.457  0.00  0.00    -0.354 OA
ATOM     23  C   UNL     1      -3.493  -2.214  25.132  0.00  0.00    +0.144 C 
ATOM     24  C   UNL     1      -3.473  -1.394  25.219  0.00  0.00    +0.048 C 
ENDBRANCH  17  19
ENDBRANCH  12  14
BRANCH   5   2
ATOM      1  F   UNL     1      -1.273   5.824  25.173  0.00  0.00    -0.166 F 
ATOM      2  C   UNL     1      -1.391   5.007  25.174  0.00  0.00    +0.419 C 
ATOM      3  F   UNL     1      -0.805   4.922  24.600  0.00  0.00    -0.166 F 
ATOM      4  F   UNL     1      -1.977   5.093  25.749  0.00  0.00    -0.166 F 
ENDBRANCH   5   2
TORSDOF 3
ENDMDL
MODEL 2
REMARK VINA RESULT:     -12.6      3.406      5.482
REMARK  Name = 
REMARK  3 active torsions:
REMARK  status: ('A' for Active; 'I' for Inactive)
REMARK    1  A    between atoms: C_2  and  C_5
REMARK    2  A    between atoms: C_12  and  C_14
REMARK    3  A    between atoms: N_17  and  C_19
REMARK                            x       y       z     vdW  Elec       q    Type
REMARK                         _______ _______ _______ _____ _____    ______ ____
ROOT
ATOM      5  C   UNL     1      -3.887  -1.681  24.376  0.00  0.00    +0.073 A 
ATOM      6  C   UNL     1      -3.853  -0.989  23.928  0.00  0.00    +0.025 A 
ATOM      7  C   UNL     1      -3.642  -0.276  24.285  0.00  0.00    +0.100 A 
ATOM      8  C   UNL     1      -3.465  -0.255  25.091  0.00  0.00    +0.100 A 
ATOM      9  C   UNL     1      -3.499  -0.947  25.539  0.00  0.00    +0.021 A 
ATOM     10  C   UNL     1      -3.710  -1.659  25.181  0.00  0.00    +0.005 A 
ATOM     11  N   UNL     1      -3.276   0.523  25.290  0.00  0.00    -0.229 NA
ATOM     12  C   UNL     1      -3.336   0.982  24.608  0.00  0.00    +0.140 A 
ATOM     13  N   UNL     1      -3.562   0.488  23.987  0.00  0.00    -0.229 NA
ENDROOT
BRANCH  12  14
ATOM     14  C   UNL     1      -3.194   1.793  24.555  0.00  0.00    +0.076 C 
ATOM     15  C   UNL     1      -3.701   2.354  24.224  0.00  0.00    +0.026 C 
ATOM     16  C   UNL     1      -3.342   3.094  24.289  0.00  0.00    +0.073 C 
ATOM     17  N   UNL     1      -2.612   2.990  24.660  0.00  0.00    -0.273 NA
ATOM     18  C   UNL     1      -2.521   2.187  24.824  0.00  0.00    +0.080 C 
BRANCH  17  19
ATOM     19  C   UNL     1      -2.069   3.585  24.835  0.00  0.00    +0.063 C 
ATOM     20  C   UNL     1      -2.325   4.291  25.178  0.00  0.00    +0.048 C 
ATOM     21  C   UNL     1      -1.782   4.886  25.353  0.00  0.00    +0.144 C 
ATOM     22  O   UNL     1      -0.982   4.776  25.187  0.00  0.00    -0.354 OA
ATOM     23  C   UNL     1      -0.724   4.072  24.845  0.00  0.00    +0.144 C 
ATOM     24  C   UNL     1      -1.267   3.476  24.669  0.00  0.00    +0.048 C 
ENDBRANCH  17  19
ENDBRANCH  12  14
BRANCH   5   2
ATOM      1  F   UNL     1      -4.309  -3.107  23.661  0.00  0.00    -0.166 F 
ATOM      2  C   UNL     1      -4.098  -2.393  24.019  0.00  0.00    +0.419 C 
ATOM      3  F   UNL     1      -3.371  -2.717  24.235  0.00  0.00    -0.166 F 
ATOM      4  F   UNL     1      -4.826  -2.070  23.802  0.00  0.00    -0.166 F 
ENDBRANCH   5   2
TORSDOF 3
ENDMDL
MODEL 3
REMARK VINA RESULT:     -11.0      3.554      5.378
REMARK  Name = 
REMARK  3 active torsions:
REMARK  status: ('A' for Active; 'I' for Inactive)
REMARK    1  A    between atoms: C_2  and  C_5
REMARK    2  A    between atoms: C_12  and  C_14
REMARK    3  A    between atoms: N_17  and  C_19
REMARK                            x       y       z     vdW  Elec       q    Type
REMARK                         _______ _______ _______ _____ _____    ______ ____
ROOT
ATOM      5  C   UNL     1      -2.653  -2.267  24.534  0.00  0.00    +0.073 A 
ATOM      6  C   UNL     1      -2.617  -1.487  24.798  0.00  0.00    +0.025 A 
ATOM      7  C   UNL     1      -3.271  -0.991  24.714  0.00  0.00    +0.100 A 
ATOM      8  C   UNL     1      -3.962  -1.278  24.366  0.00  0.00    +0.100 A 
ATOM      9  C   UNL     1      -3.999  -2.059  24.102  0.00  0.00    +0.021 A 
ATOM     10  C   UNL     1      -3.344  -2.553  24.186  0.00  0.00    +0.005 A 
ATOM     11  N   UNL     1      -4.515  -0.666  24.357  0.00  0.00    -0.229 NA
ATOM     12  C   UNL     1      -4.166  -0.002  24.699  0.00  0.00    +0.140 A 
ATOM     13  N   UNL     1      -3.398  -0.204  24.919  0.00  0.00    -0.229 NA
ENDROOT
BRANCH  12  14
ATOM     14  C   UNL     1      -4.524   0.735  24.803  0.00  0.00    +0.076 C 
ATOM     15  C   UNL     1      -5.323   0.869  24.952  0.00  0.00    +0.026 C 
ATOM     16  C   UNL     1      -5.439   1.683  25.017  0.00  0.00    +0.073 C 
ATOM     17  N   UNL     1      -4.709   2.053  24.908  0.00  0.00    -0.273 NA
ATOM     18  C   UNL     1      -4.144   1.466  24.776  0.00  0.00    +0.080 C 
BRANCH  17  19
ATOM     19  C   UNL     1      -4.569   2.865  24.928  0.00  0.00    +0.063 C 
ATOM     20  C   UNL     1      -4.930   3.332  25.503  0.00  0.00    +0.048 C 
ATOM     21  C   UNL     1      -4.790   4.145  25.523  0.00  0.00    +0.144 C 
ATOM     22  O   UNL     1      -4.288   4.491  24.968  0.00  0.00    -0.354 OA
ATOM     23  C   UNL     1      -3.926   4.025  24.392  0.00  0.00    +0.144 C 
ATOM     24  C   UNL     1      -4.066   3.211  24.372  0.00  0.00    +0.048 C 
ENDBRANCH  17  19
ENDBRANCH  12  14
BRANCH   5   2
ATOM      1  F   UNL     1      -1.343  -3.257  24.702  0.00  0.00    -0.166 F 
ATOM      2  C   UNL     1      -1.998  -2.762  24.618  0.00  0.00    +0.419 C 
ATOM      3  F   UNL     1      -2.277  -3.006  25.355  0.00  0.00    -0.166 F 
ATOM      4  F   UNL     1      -1.719  -2.518  23.881  0.00  0.00    -0.166 F 
ENDBRANCH   5   2
TORSDOF 3
ENDMDL
