MODEL 1
REMARK VINA RESULT:     -10.5      0.000      0.000
REMARK  Name = 
REMARK  3 active torsions:
REMARK  status: ('A' for Active; 'I' for Inactive)
REMARK    1  A    between atoms: C_4  and  C_7
REMARK    2  A    between atoms: N_9  and  C_10
REMARK    3  A    between atoms: C_16  and  C_17
REMARK                            x       y       z     vdW  Elec       q    Type
REMARK                         _______ _______ _______ _____ _____    ______ ____
ROOT
ATOM     10  C   UNL     1      -4.364   1.472  24.518  0.00  0.00    +0.133 C 
ATOM     11  C   UNL     1      -5.051   1.751  24.879  0.00  0.00    +0.202 C 
ATOM     12  O   UNL     1      -5.712   1.299  25.077  0.00  0.00    -0.219 OA
ATOM     13  C   UNL     1      -4.961   2.561  25.006  0.00  0.00    +0.184 C 
ATOM     14  O   UNL     1      -5.517   3.061  25.355  0.00  0.00    -0.220 OA
ATOM     15  C   UNL     1      -4.218   2.783  24.725  0.00  0.00    +0.042 C 
ATOM     16  C   UNL     1      -3.849   2.110  24.423  0.00  0.00    +0.049 C 
ENDROOT
BRANCH  16  17
ATOM     17  C   UNL     1      -3.097   2.080  24.085  0.00  0.00    -0.002 A 
ATOM     18  C   UNL     1      -3.014   2.047  23.265  0.00  0.00    -0.001 A 
ATOM     19  C   UNL     1      -2.262   2.017  22.927  0.00  0.00    +0.020 A 
ATOM     20  C   UNL     1      -1.593   2.020  23.410  0.00  0.00    +0.099 A 
ATOM     21  N   UNL     1      -1.675   2.054  24.229  0.00  0.00    -0.243 NA
ATOM     22  C   UNL     1      -2.427   2.084  24.567  0.00  0.00    +0.095 A 
ENDBRANCH  16  17
BRANCH  10   9
ATOM      7  C   UNL     1      -4.281   0.084  24.845  0.00  0.00    +0.286 C 
ATOM      8  O   UNL     1      -4.493   0.255  25.624  0.00  0.00    -0.267 OA
ATOM      9  N   UNL     1      -4.216   0.693  24.292  0.00  0.00    -0.199 NA
BRANCH   7   4
ATOM      1  C   UNL     1      -3.302  -2.651  24.834  0.00  0.00    +0.075 C 
ATOM      2  C   UNL     1      -3.683  -1.953  24.614  0.00  0.00    +0.155 A 
ATOM      3  C   UNL     1      -3.686  -1.247  25.040  0.00  0.00    +0.063 A 
ATOM      4  C   UNL     1      -4.133  -0.697  24.619  0.00  0.00    +0.177 A 
ATOM      5  N   UNL     1      -4.408  -1.063  23.933  0.00  0.00    -0.073 NA
ATOM      6  O   UNL     1      -4.130  -1.839  23.929  0.00  0.00    -0.358 OA
ENDBRANCH   7   4
ENDBRANCH  10   9
TORSDOF 3
ENDMDL
MODEL 2
REMARK VINA RESULT:     -10.3      1.663      3.328
REMARK  Name = 
REMARK  3 active torsions:
REMARK  status: ('A' for Active; 'I' for Inactive)
REMARK    1  A    between atoms: C_4  and  C_7
REMARK    2  A    between atoms: N_9  and  C_10
REMARK    3  A    between atoms: C_16  and  C_17
REMARK                            x       y       z     vdW  Elec       q    Type
REMARK                         _______ _______ _______ _____ _____    ______ ____
ROOT
ATOM     10  C   UNL     1      -3.558   0.767  24.862  0.00  0.00    +0.133 C 
ATOM     11  C   UNL     1      -3.968   1.483  24.870  0.00  0.00    +0.202 C 
ATOM     12  O   UNL     1      -3.630   2.234  24.891  0.00  0.00    -0.219 OA
ATOM     13  C   UNL     1      -4.775   1.314  24.853  0.00  0.00    +0.184 C 
ATOM     14  O   UNL     1      -5.387   1.869  24.855  0.00  0.00    -0.220 OA
ATOM     15  C   UNL     1      -4.865   0.494  24.835  0.00  0.00    +0.042 C 
ATOM     16  C   UNL     1      -4.113   0.156  24.840  0.00  0.00    +0.049 C 
ENDROOT
BRANCH  16  17
ATOM     17  C   UNL     1      -3.944  -0.652  24.826  0.00  0.00    -0.002 A 
ATOM     18  C   UNL     1      -4.051  -1.084  24.131  0.00  0.00    -0.001 A 
ATOM     19  C   UNL     1      -3.882  -1.891  24.117  0.00  0.00    +0.020 A 
ATOM     20  C   UNL     1      -3.607  -2.266  24.799  0.00  0.00    +0.099 A 
ATOM     21  N   UNL     1      -3.501  -1.836  25.493  0.00  0.00    -0.243 NA
ATOM     22  C   UNL     1      -3.669  -1.028  25.507  0.00  0.00    +0.095 A 
ENDBRANCH  16  17
BRANCH  10   9
ATOM      7  C   UNL     1      -2.273   1.065  24.314  0.00  0.00    +0.286 C 
ATOM      8  O   UNL     1      -2.628   1.543  23.742  0.00  0.00    -0.267 OA
ATOM      9  N   UNL     1      -2.739   0.677  24.874  0.00  0.00    -0.199 NA
BRANCH   7   4
ATOM      1  C   UNL     1       0.453   0.480  23.502  0.00  0.00    +0.075 C 
ATOM      2  C   UNL     1      -0.200   0.706  23.952  0.00  0.00    +0.155 A 
ATOM      3  C   UNL     1      -0.985   0.710  23.700  0.00  0.00    +0.063 A 
ATOM      4  C   UNL     1      -1.452   0.975  24.325  0.00  0.00    +0.177 A 
ATOM      5  N   UNL     1      -0.956   1.135  24.965  0.00  0.00    -0.073 NA
ATOM      6  O   UNL     1      -0.182   0.969  24.734  0.00  0.00    -0.358 OA
ENDBRANCH   7   4
ENDBRANCH  10   9
TORSDOF 3
ENDMDL
MODEL 3
REMARK VINA RESULT:     -10.1      1.871      3.780
REMARK  Name = 
REMARK  3 active torsions:
REMARK  status: ('A' for Active; 'I' for Inactive)
REMARK    1  A    between atoms: C_4  and  C_7
REMARK    2  A    between atoms: N_9  and  C_10
REMARK    3  A    between atoms: C_16  and  C_17
REMARK                            x       y       z     vdW  Elec       q    Type
REMARK                         _______ _______ _______ _____ _____    ______ ____
ROOT
ATOM     10  C   UNL     1      -4.497   2.234  25.196  0.00  0.00    +0.133 C 
ATOM     11  C   UNL     1      -5.270   2.510  25.281  0.00  0.00    +0.202 C 
ATOM     12  O   UNL     1      -5.492   3.238  25.599  0.00  0.00    -0.219 OA
ATOM     13  C   UNL     1      -5.780   1.930  24.992  0.00  0.00    +0.184 C 
ATOM     14  O   UNL     1      -6.604   1.976  24.971  0.00  0.00    -0.220 OA
ATOM     15  C   UNL     1      -5.324   1.296  24.729  0.00  0.00    +0.042 C 
ATOM     16  C   UNL     1      -4.530   1.484  24.855  0.00  0.00    +0.049 C 
ENDROOT
BRANCH  16  17
ATOM     17  C   UNL     1      -3.884   1.005  24.671  0.00  0.00    -0.002 A 
ATOM     18  C   UNL     1      -3.546   0.527  25.253  0.00  0.00    -0.001 A 
ATOM     19  C   UNL     1      -2.900   0.049  25.070  0.00  0.00    +0.020 A 
ATOM     20  C   UNL     1      -2.591   0.049  24.304  0.00  0.00    +0.099 A 
ATOM     21  N   UNL     1      -2.928   0.526  23.723  0.00  0.00    -0.243 NA
ATOM     22  C   UNL     1      -3.575   1.004  23.906  0.00  0.00    +0.095 A 
ENDBRANCH  16  17
BRANCH  10   9
ATOM      7  C   UNL     1      -3.675   3.401  25.132  0.00  0.00    +0.286 C 
ATOM      8  O   UNL     1      -4.225   3.761  24.633  0.00  0.00    -0.267 OA
ATOM      9  N   UNL     1      -3.811   2.638  25.413  0.00  0.00    -0.199 NA
BRANCH   7   4
ATOM      1  C   UNL     1      -1.201   4.917  24.996  0.00  0.00    +0.075 C 
ATOM      2  C   UNL     1      -1.852   4.502  25.287  0.00  0.00    +0.155 A 
ATOM      3  C   UNL     1      -2.454   4.164  24.835  0.00  0.00    +0.063 A 
ATOM      4  C   UNL     1      -2.988   3.805  25.350  0.00  0.00    +0.177 A 
ATOM      5  N   UNL     1      -2.717   3.921  26.121  0.00  0.00    -0.073 NA
ATOM      6  O   UNL     1      -2.015   4.351  26.082  0.00  0.00    -0.358 OA
ENDBRANCH   7   4
ENDBRANCH  10   9
TORSDOF 3
ENDMDL
MODEL 4
REMARK VINA RESULT:      -9.9      1.567      2.494
REMARK  Name = 
REMARK  3 active torsions:
REMARK  status: ('A' for Active; 'I' for Inactive)
REMARK    1  A    between atoms: C_4  and  C_7
REMARK    2  A    between atoms: N_9  and  C_10
REMARK    3  A    between atoms: C_16  and  C_17
REMARK                            x       y       z     vdW  Elec       q    Type
REMARK                         _______ _______ _______ _____ _____    ______ ____
ROOT
ATOM     10  C   UNL     1      -3.714   1.424  24.090  0.00  0.00    +0.133 C 
ATOM     11  C   UNL     1      -3.128   1.645  23.553  0.00  0.00    +0.202 C 
ATOM     12  O   UNL     1      -2.569   1.145  23.214  0.00  0.00    -0.219 OA
ATOM     13  C   UNL     1      -3.202   2.456  23.417  0.00  0.00    +0.184 C 
ATOM     14  O   UNL     1      -2.727   2.907  22.915  0.00  0.00    -0.220 OA
ATOM     15  C   UNL     1      -3.833   2.735  23.868  0.00  0.00    +0.042 C 
ATOM     16  C   UNL     1      -4.150   2.098  24.285  0.00  0.00    +0.049 C 
ENDROOT
BRANCH  16  17
ATOM     17  C   UNL     1      -4.790   2.128  24.805  0.00  0.00    -0.002 A 
ATOM     18  C   UNL     1      -5.510   1.786  24.593  0.00  0.00    -0.001 A 
ATOM     19  C   UNL     1      -6.150   1.817  25.113  0.00  0.00    +0.020 A 
ATOM     20  C   UNL     1      -6.069   2.190  25.845  0.00  0.00    +0.099 A 
ATOM     21  N   UNL     1      -5.350   2.532  26.056  0.00  0.00    -0.243 NA
ATOM     22  C   UNL     1      -4.710   2.501  25.536  0.00  0.00    +0.095 A 
ENDBRANCH  16  17
BRANCH  10   9
ATOM      7  C   UNL     1      -3.217   0.233  24.704  0.00  0.00    +0.286 C 
ATOM      8  O   UNL     1      -2.462   0.565  24.735  0.00  0.00    -0.267 OA
ATOM      9  N   UNL     1      -3.843   0.663  24.382  0.00  0.00    -0.199 NA
BRANCH   7   4
ATOM      1  C   UNL     1      -3.594  -2.642  24.847  0.00  0.00    +0.075 C 
ATOM      2  C   UNL     1      -3.519  -1.849  25.061  0.00  0.00    +0.155 A 
ATOM      3  C   UNL     1      -3.382  -1.219  24.547  0.00  0.00    +0.063 A 
ATOM      4  C   UNL     1      -3.345  -0.528  24.996  0.00  0.00    +0.177 A 
ATOM      5  N   UNL     1      -3.459  -0.731  25.787  0.00  0.00    -0.073 NA
ATOM      6  O   UNL     1      -3.567  -1.548  25.828  0.00  0.00    -0.358 OA
ENDBRANCH   7   4
ENDBRANCH  10   9
TORSDOF 3
ENDMDL
MODEL 5
REMARK VINA RESULT:      -9.8      2.115      3.969
REMARK  Name = 
REMARK  3 active torsions:
REMARK  status: ('A' for Active; 'I' for Inactive)
REMARK    1  A    between atoms: C_4  and  C_7
REMARK    2  A    between atoms: N_9  and  C_10
REMARK    3  A    between atoms: C_16  and  C_17
REMARK                            x       y       z     vdW  Elec       q    Type
REMARK                         _______ _______ _______ _____ _____    ______ ____
ROOT
ATOM     10  C   UNL     1      -2.612  -0.550  24.669  0.00  0.00    +0.133 C 
ATOM     11  C   UNL     1      -2.427  -1.354  24.693  0.00  0.00    +0.202 C 
ATOM     12  O   UNL     1      -1.669  -1.676  24.709  0.00  0.00    -0.219 OA
ATOM     13  C   UNL     1      -3.136  -1.777  24.699  0.00  0.00    +0.184 C 
ATOM     14  O   UNL     1      -3.208  -2.599  24.722  0.00  0.00    -0.220 OA
ATOM     15  C   UNL     1      -3.758  -1.236  24.679  0.00  0.00    +0.042 C 
ATOM     16  C   UNL     1      -3.434  -0.477  24.660  0.00  0.00    +0.049 C 
ENDROOT
BRANCH  16  17
ATOM     17  C   UNL     1      -3.859   0.230  24.637  0.00  0.00    -0.002 A 
ATOM     18  C   UNL     1      -4.335   0.447  25.274  0.00  0.00    -0.001 A 
ATOM     19  C   UNL     1      -4.759   1.154  25.251  0.00  0.00    +0.020 A 
ATOM     20  C   UNL     1      -4.706   1.644  24.589  0.00  0.00    +0.099 A 
ATOM     21  N   UNL     1      -4.231   1.428  23.952  0.00  0.00    -0.243 NA
ATOM     22  C   UNL     1      -3.806   0.721  23.975  0.00  0.00    +0.095 A 
ENDBRANCH  16  17
BRANCH  10   9
ATOM      7  C   UNL     1      -1.488   0.125  25.238  0.00  0.00    +0.286 C 
ATOM      8  O   UNL     1      -1.448  -0.446  25.833  0.00  0.00    -0.267 OA
ATOM      9  N   UNL     1      -2.071   0.072  24.656  0.00  0.00    -0.199 NA
BRANCH   7   4
ATOM      1  C   UNL     1      -0.002   2.508  25.974  0.00  0.00    +0.075 C 
ATOM      2  C   UNL     1      -0.263   1.842  25.564  0.00  0.00    +0.155 A 
ATOM      3  C   UNL     1      -0.872   1.336  25.797  0.00  0.00    +0.063 A 
ATOM      4  C   UNL     1      -0.946   0.747  25.225  0.00  0.00    +0.177 A 
ATOM      5  N   UNL     1      -0.384   0.888  24.639  0.00  0.00    -0.073 NA
ATOM      6  O   UNL     1       0.038   1.565  24.847  0.00  0.00    -0.358 OA
ENDBRANCH   7   4
ENDBRANCH  10   9
TORSDOF 3
ENDMDL
MODEL 6
REMARK VINA RESULT:      -9.7      2.668      3.433
REMARK  Name = 
REMARK  3 active torsions:
REMARK  status: ('A' for Active; 'I' for Inactive)
REMARK    1  A    between atoms: C_4  and  C_7
REMARK    2  A    between atoms: N_9  and  C_10
REMARK    3  A    between atoms: C_16  and  C_17
REMARK                            x       y       z     vdW  Elec       q    Type
REMARK                         _______ _______ _______ _____ _____    ______ ____
ROOT
ATOM     10  C   UNL     1      -1.838   3.243  24.888  0.00  0.00    +0.133 C 
ATOM     11  C   UNL     1      -1.268   3.822  25.030  0.00  0.00    +0.202 C 
ATOM     12  O   UNL     1      -0.452   3.706  25.038  0.00  0.00    -0.219 OA
ATOM     13  C   UNL     1      -1.659   4.536  25.164  0.00  0.00    +0.184 C 
ATOM     14  O   UNL     1      -1.301   5.261  25.328  0.00  0.00    -0.220 OA
ATOM     15  C   UNL     1      -2.470   4.399  25.104  0.00  0.00    +0.042 C 
ATOM     16  C   UNL     1      -2.581   3.600  24.934  0.00  0.00    +0.049 C 
ENDROOT
BRANCH  16  17
ATOM     17  C   UNL     1      -3.308   3.223  24.827  0.00  0.00    -0.002 A 
ATOM     18  C   UNL     1      -3.567   3.033  24.067  0.00  0.00    -0.001 A 
ATOM     19  C   UNL     1      -4.293   2.657  23.961  0.00  0.00    +0.020 A 
ATOM     20  C   UNL     1      -4.760   2.469  24.615  0.00  0.00    +0.099 A 
ATOM     21  N   UNL     1      -4.501   2.658  25.375  0.00  0.00    -0.243 NA
ATOM     22  C   UNL     1      -3.774   3.035  25.481  0.00  0.00    +0.095 A 
ENDBRANCH  16  17
BRANCH  10   9
ATOM      7  C   UNL     1      -1.221   2.003  25.240  0.00  0.00    +0.286 C 
ATOM      8  O   UNL     1      -0.897   2.356  25.912  0.00  0.00    -0.267 OA
ATOM      9  N   UNL     1      -1.692   2.447  24.728  0.00  0.00    -0.199 NA
BRANCH   7   4
ATOM      1  C   UNL     1      -1.061  -0.884  25.510  0.00  0.00    +0.075 C 
ATOM      2  C   UNL     1      -1.001  -0.120  25.204  0.00  0.00    +0.155 A 
ATOM      3  C   UNL     1      -1.235   0.574  25.584  0.00  0.00    +0.063 A 
ATOM      4  C   UNL     1      -1.075   1.206  25.080  0.00  0.00    +0.177 A 
ATOM      5  N   UNL     1      -0.742   0.904  24.389  0.00  0.00    -0.073 NA
ATOM      6  O   UNL     1      -0.696   0.084  24.465  0.00  0.00    -0.358 OA
ENDBRANCH   7   4
ENDBRANCH  10   9
TORSDOF 3
ENDMDL
MODEL 7
REMARK VINA RESULT:      -9.5      2.018      2.887
REMARK  Name = 
REMARK  3 active torsions:
REMARK  status: ('A' for Active; 'I' for Inactive)
REMARK    1  A    between atoms: C_4  and  C_7
REMARK    2  A    between atoms: N_9  and  C_10
REMARK    3  A    between atoms: C_16  and  C_17
REMARK                            x       y       z     vdW  Elec       q    Type
REMARK                         _______ _______ _______ _____ _____    ______ ____
ROOT
ATOM     10  C   UNL     1      -1.526   0.842  24.362  0.00  0.00    +0.133 C 
ATOM     11  C   UNL     1      -0.707   0.739  24.365  0.00  0.00    +0.202 C 
ATOM     12  O   UNL     1      -0.310   0.022  24.445  0.00  0.00    -0.219 OA
ATOM     13  C   UNL     1      -0.358   1.481  24.274  0.00  0.00    +0.184 C 
ATOM     14  O   UNL     1       0.453   1.634  24.247  0.00  0.00    -0.220 OA
ATOM     15  C   UNL     1      -0.959   2.042  24.215  0.00  0.00    +0.042 C 
ATOM     16  C   UNL     1      -1.681   1.647  24.269  0.00  0.00    +0.049 C 
ENDROOT
BRANCH  16  17
ATOM     17  C   UNL     1      -2.429   1.996  24.237  0.00  0.00    -0.002 A 
ATOM     18  C   UNL     1      -2.864   1.974  23.537  0.00  0.00    -0.001 A 
ATOM     19  C   UNL     1      -3.611   2.323  23.504  0.00  0.00    +0.020 A 
ATOM     20  C   UNL     1      -3.922   2.694  24.173  0.00  0.00    +0.099 A 
ATOM     21  N   UNL     1      -3.487   2.716  24.872  0.00  0.00    -0.243 NA
ATOM     22  C   UNL     1      -2.740   2.367  24.905  0.00  0.00    +0.095 A 
ENDBRANCH  16  17
BRANCH  10   9
ATOM      7  C   UNL     1      -2.048  -0.284  25.071  0.00  0.00    +0.286 C 
ATOM      8  O   UNL     1      -1.441  -0.215  25.626  0.00  0.00    -0.267 OA
ATOM      9  N   UNL     1      -2.090   0.245  24.439  0.00  0.00    -0.199 NA
BRANCH   7   4
ATOM      1  C   UNL     1      -3.628  -2.671  24.581  0.00  0.00    +0.075 C 
ATOM      2  C   UNL     1      -3.338  -1.978  24.923  0.00  0.00    +0.155 A 
ATOM      3  C   UNL     1      -2.714  -1.520  24.637  0.00  0.00    +0.063 A 
ATOM      4  C   UNL     1      -2.612  -0.881  25.148  0.00  0.00    +0.177 A 
ATOM      5  N   UNL     1      -3.173  -0.944  25.750  0.00  0.00    -0.073 NA
ATOM      6  O   UNL     1      -3.622  -1.621  25.611  0.00  0.00    -0.358 OA
ENDBRANCH   7   4
ENDBRANCH  10   9
TORSDOF 3
ENDMDL
