MODEL 1
REMARK VINA RESULT:      -9.2      0.000      0.000
REMARK  Name = 
REMARK  7 active torsions:
REMARK  status: ('A' for Active; 'I' for Inactive)
REMARK    1  A    between atoms: O_2  and  C_3
REMARK    2  A    between atoms: C_3  and  C_4
REMARK    3  A    between atoms: C_6  and  C_7
REMARK    4  A    between atoms: C_7  and  C_8
REMARK    5  A    between atoms: C_8  and  N_12
REMARK    6  A    between atoms: N_12  and  C_13
REMARK    7  A    between atoms: C_13  and  C_14
REMARK                            x       y       z     vdW  Elec       q    Type
REMARK                         _______ _______ _______ _____ _____    ______ ____
ROOT
ATOM      8  C   UNL     1      -4.529   1.576  24.681  0.00  0.00    +0.120 C 
ATOM      9  C   UNL     1      -5.244   1.307  24.994  0.00  0.00    +0.161 C 
ATOM     10  O   UNL     1      -5.612   2.006  24.753  0.00  0.00    -0.351 OA
ATOM     11  C   UNL     1      -4.898   2.274  24.440  0.00  0.00    +0.161 C 
ENDROOT
BRANCH   8   7
ATOM      7  C   UNL     1      -3.815   1.844  24.367  0.00  0.00    +0.070 C 
BRANCH   7   6
ATOM      4  C   UNL     1      -2.449   3.332  25.058  0.00  0.00    +0.184 A 
ATOM      5  C   UNL     1      -2.668   2.752  24.514  0.00  0.00    +0.056 A 
ATOM      6  C   UNL     1      -3.393   2.439  24.753  0.00  0.00    +0.102 A 
ATOM     21  N   UNL     1      -3.623   2.826  25.444  0.00  0.00    -0.082 NA
ATOM     22  O   UNL     1      -3.039   3.377  25.633  0.00  0.00    -0.356 OA
BRANCH   4   3
ATOM      3  C   UNL     1      -1.761   3.787  25.033  0.00  0.00    +0.209 C 
BRANCH   3   2
ATOM      1  C   UNL     1      -1.124   5.065  25.024  0.00  0.00    +0.175 C 
ATOM      2  O   UNL     1      -1.806   4.607  25.101  0.00  0.00    -0.343 OA
ENDBRANCH   3   2
ENDBRANCH   4   3
ENDBRANCH   7   6
ENDBRANCH   8   7
BRANCH   8  12
ATOM     12  N   UNL     1      -4.162   0.878  24.922  0.00  0.00    -0.211 NA
BRANCH  12  13
ATOM     13  C   UNL     1      -4.395   0.156  24.597  0.00  0.00    +0.118 C 
BRANCH  13  14
ATOM     14  C   UNL     1      -4.032  -0.543  24.843  0.00  0.00    +0.034 A 
ATOM     15  C   UNL     1      -3.977  -1.183  24.325  0.00  0.00    +0.193 A 
ATOM     16  O   UNL     1      -4.284  -1.124  23.561  0.00  0.00    -0.287 OA
ATOM     17  C   UNL     1      -3.614  -1.882  24.569  0.00  0.00    +0.042 A 
ATOM     18  C   UNL     1      -3.306  -1.941  25.333  0.00  0.00    +0.003 A 
ATOM     19  C   UNL     1      -3.362  -1.301  25.851  0.00  0.00    -0.000 A 
ATOM     20  C   UNL     1      -3.725  -0.603  25.605  0.00  0.00    +0.000 A 
ENDBRANCH  13  14
ENDBRANCH  12  13
ENDBRANCH   8  12
TORSDOF 7
ENDMDL
MODEL 2
REMARK VINA RESULT:      -8.5      0.812      4.458
REMARK  Name = 
REMARK  7 active torsions:
REMARK  status: ('A' for Active; 'I' for Inactive)
REMARK    1  A    between atoms: O_2  and  C_3
REMARK    2  A    between atoms: C_3  and  C_4
REMARK    3  A    between atoms: C_6  and  C_7
REMARK    4  A    between atoms: C_7  and  C_8
REMARK    5  A    between atoms: C_8  and  N_12
REMARK    6  A    between atoms: N_12  and  C_13
REMARK    7  A    between atoms: C_13  and  C_14
REMARK                            x       y       z     vdW  Elec       q    Type
REMARK                         _______ _______ _______ _____ _____    ______ ____
ROOT
ATOM      8  C   UNL     1      -4.478   1.929  24.872  0.00  0.00    +0.120 C 
ATOM      9  C   UNL     1      -4.810   2.570  24.472  0.00  0.00    +0.161 C 
ATOM     10  O   UNL     1      -5.550   2.206  24.504  0.00  0.00    -0.351 OA
ATOM     11  C   UNL     1      -5.218   1.566  24.904  0.00  0.00    +0.161 C 
ENDROOT
BRANCH   8   7
ATOM      7  C   UNL     1      -4.146   1.288  25.272  0.00  0.00    +0.070 C 
BRANCH   7   6
ATOM      4  C   UNL     1      -3.836  -0.726  24.637  0.00  0.00    +0.184 A 
ATOM      5  C   UNL     1      -3.942  -0.167  25.234  0.00  0.00    +0.056 A 
ATOM      6  C   UNL     1      -4.028   0.572  24.879  0.00  0.00    +0.102 A 
ATOM     21  N   UNL     1      -3.975   0.472  24.063  0.00  0.00    -0.082 NA
ATOM     22  O   UNL     1      -3.857  -0.331  23.912  0.00  0.00    -0.356 OA
BRANCH   4   3
ATOM      3  C   UNL     1      -3.729  -1.537  24.744  0.00  0.00    +0.209 C 
BRANCH   3   2
ATOM      1  C   UNL     1      -3.761  -2.867  24.224  0.00  0.00    +0.175 C 
ATOM      2  O   UNL     1      -3.921  -2.062  24.138  0.00  0.00    -0.343 OA
ENDBRANCH   3   2
ENDBRANCH   4   3
ENDBRANCH   7   6
ENDBRANCH   8   7
BRANCH   8  12
ATOM     12  N   UNL     1      -3.738   2.293  24.840  0.00  0.00    -0.211 NA
BRANCH  12  13
ATOM     13  C   UNL     1      -3.624   3.026  25.201  0.00  0.00    +0.118 C 
BRANCH  13  14
ATOM     14  C   UNL     1      -2.876   3.375  25.196  0.00  0.00    +0.034 A 
ATOM     15  C   UNL     1      -2.683   3.941  25.765  0.00  0.00    +0.193 A 
ATOM     16  O   UNL     1      -3.236   4.158  26.337  0.00  0.00    -0.287 OA
ATOM     17  C   UNL     1      -1.935   4.291  25.761  0.00  0.00    +0.042 A 
ATOM     18  C   UNL     1      -1.382   4.075  25.188  0.00  0.00    +0.003 A 
ATOM     19  C   UNL     1      -1.576   3.509  24.620  0.00  0.00    -0.000 A 
ATOM     20  C   UNL     1      -2.323   3.159  24.624  0.00  0.00    +0.000 A 
ENDBRANCH  13  14
ENDBRANCH  12  13
ENDBRANCH   8  12
TORSDOF 7
ENDMDL
MODEL 3
REMARK VINA RESULT:      -8.2      2.033      3.915
REMARK  Name = 
REMARK  7 active torsions:
REMARK  status: ('A' for Active; 'I' for Inactive)
REMARK    1  A    between atoms: O_2  and  C_3
REMARK    2  A    between atoms: C_3  and  C_4
REMARK    3  A    between atoms: C_6  and  C_7
REMARK    4  A    between atoms: C_7  and  C_8
REMARK    5  A    between atoms: C_8  and  N_12
REMARK    6  A    between atoms: N_12  and  C_13
REMARK    7  A    between atoms: C_13  and  C_14
REMARK                            x       y       z     vdW  Elec       q    Type
REMARK                         _______ _______ _______ _____ _____    ______ ____
ROOT
ATOM      8  C   UNL     1      -3.734  -0.793  24.639  0.00  0.00    +0.120 C 
ATOM      9  C   UNL     1      -4.335  -0.846  24.075  0.00  0.00    +0.161 C 
ATOM     10  O   UNL     1      -4.329  -1.668  24.146  0.00  0.00    -0.351 OA
ATOM     11  C   UNL     1      -3.729  -1.616  24.709  0.00  0.00    +0.161 C 
ENDROOT
BRANCH   8   7
ATOM      7  C   UNL     1      -3.134  -0.741  25.202  0.00  0.00    +0.070 C 
BRANCH   7   6
ATOM      4  C   UNL     1      -1.073  -0.929  24.678  0.00  0.00    +0.184 A 
ATOM      5  C   UNL     1      -1.736  -0.465  24.841  0.00  0.00    +0.056 A 
ATOM      6  C   UNL     1      -2.366  -0.971  25.009  0.00  0.00    +0.102 A 
ATOM     21  N   UNL     1      -2.093  -1.747  24.951  0.00  0.00    -0.082 NA
ATOM     22  O   UNL     1      -1.294  -1.721  24.746  0.00  0.00    -0.356 OA
BRANCH   4   3
ATOM      3  C   UNL     1      -0.322  -0.650  24.483  0.00  0.00    +0.209 C 
BRANCH   3   2
ATOM      1  C   UNL     1       0.621  -0.256  23.485  0.00  0.00    +0.175 C 
ATOM      2  O   UNL     1      -0.078  -0.641  23.695  0.00  0.00    -0.343 OA
ENDBRANCH   3   2
ENDBRANCH   4   3
ENDBRANCH   7   6
ENDBRANCH   8   7
BRANCH   8  12
ATOM     12  N   UNL     1      -3.740   0.029  24.568  0.00  0.00    -0.211 NA
BRANCH  12  13
ATOM     13  C   UNL     1      -4.429   0.451  24.736  0.00  0.00    +0.118 C 
BRANCH  13  14
ATOM     14  C   UNL     1      -4.434   1.274  24.668  0.00  0.00    +0.034 A 
ATOM     15  C   UNL     1      -4.941   1.722  25.140  0.00  0.00    +0.193 A 
ATOM     16  O   UNL     1      -5.443   1.349  25.679  0.00  0.00    -0.287 OA
ATOM     17  C   UNL     1      -4.948   2.545  25.073  0.00  0.00    +0.042 A 
ATOM     18  C   UNL     1      -4.446   2.918  24.534  0.00  0.00    +0.003 A 
ATOM     19  C   UNL     1      -3.939   2.469  24.062  0.00  0.00    -0.000 A 
ATOM     20  C   UNL     1      -3.934   1.647  24.130  0.00  0.00    +0.000 A 
ENDBRANCH  13  14
ENDBRANCH  12  13
ENDBRANCH   8  12
TORSDOF 7
ENDMDL
MODEL 4
REMARK VINA RESULT:      -8.2      1.726      2.633
REMARK  Name = 
REMARK  7 active torsions:
REMARK  status: ('A' for Active; 'I' for Inactive)
REMARK    1  A    between atoms: O_2  and  C_3
REMARK    2  A    between atoms: C_3  and  C_4
REMARK    3  A    between atoms: C_6  and  C_7
REMARK    4  A    between atoms: C_7  and  C_8
REMARK    5  A    between atoms: C_8  and  N_12
REMARK    6  A    between atoms: N_12  and  C_13
REMARK    7  A    between atoms: C_13  and  C_14
REMARK                            x       y       z     vdW  Elec       q    Type
REMARK                         _______ _______ _______ _____ _____    ______ ____
ROOT
ATOM      8  C   UNL     1      -1.545   0.799  25.002  0.00  0.00    +0.120 C 
ATOM      9  C   UNL     1      -1.030   0.426  25.529  0.00  0.00    +0.161 C 
ATOM     10  O   UNL     1      -0.496   1.050  25.447  0.00  0.00    -0.351 OA
ATOM     11  C   UNL     1      -1.010   1.422  24.920  0.00  0.00    +0.161 C 
ENDROOT
BRANCH   8   7
ATOM      7  C   UNL     1      -2.060   1.170  24.475  0.00  0.00    +0.070 C 
BRANCH   7   6
ATOM      4  C   UNL     1      -3.549   2.635  24.917  0.00  0.00    +0.184 A 
ATOM      5  C   UNL     1      -3.315   1.932  24.555  0.00  0.00    +0.056 A 
ATOM      6  C   UNL     1      -2.518   1.809  24.727  0.00  0.00    +0.102 A 
ATOM     21  N   UNL     1      -2.258   2.436  25.195  0.00  0.00    -0.082 NA
ATOM     22  O   UNL     1      -2.895   2.947  25.312  0.00  0.00    -0.356 OA
BRANCH   4   3
ATOM      3  C   UNL     1      -4.302   2.969  24.888  0.00  0.00    +0.209 C 
BRANCH   3   2
ATOM      1  C   UNL     1      -5.495   3.388  25.553  0.00  0.00    +0.175 C 
ATOM      2  O   UNL     1      -4.724   3.097  25.585  0.00  0.00    -0.343 OA
ENDBRANCH   3   2
ENDBRANCH   4   3
ENDBRANCH   7   6
ENDBRANCH   8   7
BRANCH   8  12
ATOM     12  N   UNL     1      -2.079   0.175  25.084  0.00  0.00    -0.211 NA
BRANCH  12  13
ATOM     13  C   UNL     1      -1.828  -0.601  24.962  0.00  0.00    +0.118 C 
BRANCH  13  14
ATOM     14  C   UNL     1      -2.371  -1.221  24.999  0.00  0.00    +0.034 A 
ATOM     15  C   UNL     1      -2.233  -1.915  24.575  0.00  0.00    +0.193 A 
ATOM     16  O   UNL     1      -1.552  -1.990  24.115  0.00  0.00    -0.287 OA
ATOM     17  C   UNL     1      -2.776  -2.536  24.611  0.00  0.00    +0.042 A 
ATOM     18  C   UNL     1      -3.457  -2.461  25.070  0.00  0.00    +0.003 A 
ATOM     19  C   UNL     1      -3.596  -1.766  25.494  0.00  0.00    -0.000 A 
ATOM     20  C   UNL     1      -3.052  -1.147  25.458  0.00  0.00    +0.000 A 
ENDBRANCH  13  14
ENDBRANCH  12  13
ENDBRANCH   8  12
TORSDOF 7
ENDMDL
MODEL 5
REMARK VINA RESULT:      -8.1      2.288      2.619
REMARK  Name = 
REMARK  7 active torsions:
REMARK  status: ('A' for Active; 'I' for Inactive)
REMARK    1  A    between atoms: O_2  and  C_3
REMARK    2  A    between atoms: C_3  and  C_4
REMARK    3  A    between atoms: C_6  and  C_7
REMARK    4  A    between atoms: C_7  and  C_8
REMARK    5  A    between atoms: C_8  and  N_12
REMARK    6  A    between atoms: N_12  and  C_13
REMARK    7  A    between atoms: C_13  and  C_14
REMARK                            x       y       z     vdW  Elec       q    Type
REMARK                         _______ _______ _______ _____ _____    ______ ____
ROOT
ATOM      8  C   UNL     1      -3.243   0.985  24.679  0.00  0.00    +0.120 C 
ATOM      9  C   UNL     1      -4.024   1.047  24.416  0.00  0.00    +0.161 C 
ATOM     10  O   UNL     1      -4.016   1.855  24.585  0.00  0.00    -0.351 OA
ATOM     11  C   UNL     1      -3.237   1.792  24.849  0.00  0.00    +0.161 C 
ENDROOT
BRANCH   8   7
ATOM      7  C   UNL     1      -2.465   0.923  24.942  0.00  0.00    +0.070 C 
BRANCH   7   6
ATOM      4  C   UNL     1      -0.638   1.054  23.845  0.00  0.00    +0.184 A 
ATOM      5  C   UNL     1      -1.082   0.754  24.473  0.00  0.00    +0.056 A 
ATOM      6  C   UNL     1      -1.840   1.074  24.425  0.00  0.00    +0.102 A 
ATOM     21  N   UNL     1      -1.866   1.572  23.768  0.00  0.00    -0.082 NA
ATOM     22  O   UNL     1      -1.123   1.560  23.410  0.00  0.00    -0.356 OA
BRANCH   4   3
ATOM      3  C   UNL     1       0.151   0.880  23.682  0.00  0.00    +0.209 C 
BRANCH   3   2
ATOM      1  C   UNL     1       1.129   0.064  23.035  0.00  0.00    +0.175 C 
ATOM      2  O   UNL     1       0.343   0.212  23.238  0.00  0.00    -0.343 OA
ENDBRANCH   3   2
ENDBRANCH   4   3
ENDBRANCH   7   6
ENDBRANCH   8   7
BRANCH   8  12
ATOM     12  N   UNL     1      -3.251   0.177  24.509  0.00  0.00    -0.211 NA
BRANCH  12  13
ATOM     13  C   UNL     1      -3.731  -0.331  24.948  0.00  0.00    +0.118 C 
BRANCH  13  14
ATOM     14  C   UNL     1      -3.765  -1.133  24.756  0.00  0.00    +0.034 A 
ATOM     15  C   UNL     1      -3.602  -1.701  25.331  0.00  0.00    +0.193 A 
ATOM     16  O   UNL     1      -3.403  -1.469  26.098  0.00  0.00    -0.287 OA
ATOM     17  C   UNL     1      -3.636  -2.503  25.140  0.00  0.00    +0.042 A 
ATOM     18  C   UNL     1      -3.834  -2.736  24.373  0.00  0.00    +0.003 A 
ATOM     19  C   UNL     1      -3.998  -2.167  23.798  0.00  0.00    -0.000 A 
ATOM     20  C   UNL     1      -3.963  -1.365  23.991  0.00  0.00    +0.000 A 
ENDBRANCH  13  14
ENDBRANCH  12  13
ENDBRANCH   8  12
TORSDOF 7
ENDMDL
MODEL 6
REMARK VINA RESULT:      -8.0      1.966      4.043
REMARK  Name = 
REMARK  7 active torsions:
REMARK  status: ('A' for Active; 'I' for Inactive)
REMARK    1  A    between atoms: O_2  and  C_3
REMARK    2  A    between atoms: C_3  and  C_4
REMARK    3  A    between atoms: C_6  and  C_7
REMARK    4  A    between atoms: C_7  and  C_8
REMARK    5  A    between atoms: C_8  and  N_12
REMARK    6  A    between atoms: N_12  and  C_13
REMARK    7  A    between atoms: C_13  and  C_14
REMARK                            x       y       z     vdW  Elec       q    Type
REMARK                         _______ _______ _______ _____ _____    ______ ____
ROOT
ATOM      8  C   UNL     1      -2.524   1.860  23.851  0.00  0.00    +0.120 C 
ATOM      9  C   UNL     1      -2.936   2.039  23.159  0.00  0.00    +0.161 C 
ATOM     10  O   UNL     1      -2.223   2.082  22.746  0.00  0.00    -0.351 OA
ATOM     11  C   UNL     1      -1.811   1.904  23.437  0.00  0.00    +0.161 C 
ENDROOT
BRANCH   8   7
ATOM      7  C   UNL     1      -2.111   1.682  24.543  0.00  0.00    +0.070 C 
BRANCH   7   6
ATOM      4  C   UNL     1      -1.380  -0.305  24.815  0.00  0.00    +0.184 A 
ATOM      5  C   UNL     1      -1.993   0.246  24.836  0.00  0.00    +0.056 A 
ATOM      6  C   UNL     1      -1.689   0.976  24.601  0.00  0.00    +0.102 A 
ATOM     21  N   UNL     1      -0.887   0.876  24.435  0.00  0.00    -0.082 NA
ATOM     22  O   UNL     1      -0.696   0.085  24.567  0.00  0.00    -0.356 OA
BRANCH   4   3
ATOM      3  C   UNL     1      -1.439  -1.105  25.008  0.00  0.00    +0.209 C 
BRANCH   3   2
ATOM      1  C   UNL     1      -1.749  -2.446  24.626  0.00  0.00    +0.175 C 
ATOM      2  O   UNL     1      -1.604  -1.660  24.421  0.00  0.00    -0.343 OA
ENDBRANCH   3   2
ENDBRANCH   4   3
ENDBRANCH   7   6
ENDBRANCH   8   7
BRANCH   8  12
ATOM     12  N   UNL     1      -3.237   1.817  24.264  0.00  0.00    -0.211 NA
BRANCH  12  13
ATOM     13  C   UNL     1      -3.706   2.490  24.347  0.00  0.00    +0.118 C 
BRANCH  13  14
ATOM     14  C   UNL     1      -4.419   2.447  24.761  0.00  0.00    +0.034 A 
ATOM     15  C   UNL     1      -4.674   3.092  25.209  0.00  0.00    +0.193 A 
ATOM     16  O   UNL     1      -4.218   3.779  25.242  0.00  0.00    -0.287 OA
ATOM     17  C   UNL     1      -5.386   3.050  25.624  0.00  0.00    +0.042 A 
ATOM     18  C   UNL     1      -5.842   2.363  25.591  0.00  0.00    +0.003 A 
ATOM     19  C   UNL     1      -5.586   1.718  25.144  0.00  0.00    -0.000 A 
ATOM     20  C   UNL     1      -4.874   1.761  24.729  0.00  0.00    +0.000 A 
ENDBRANCH  13  14
ENDBRANCH  12  13
ENDBRANCH   8  12
TORSDOF 7
ENDMDL
