MODEL 1
REMARK VINA RESULT:     -11.0      0.000      0.000
REMARK  Name = 
REMARK  5 active torsions:
REMARK  status: ('A' for Active; 'I' for Inactive)
REMARK    1  A    between atoms: C_2  and  C_4
REMARK    2  A    between atoms: C_4  and  C_5
REMARK    3  A    between atoms: CA_7  and  C_21
REMARK    4  A    between atoms: N_11  and  C_12
REMARK    5  A    between atoms: C_12  and  C_13
REMARK                            x       y       z     vdW  Elec       q    Type
REMARK                         _______ _______ _______ _____ _____    ______ ____
ROOT
ATOM      5  C   UNL     1      -3.285  -0.466  24.921  0.00  0.00    +0.096 C 
ATOM      6  N   UNL     1      -2.525  -0.786  24.924  0.00  0.00    -0.205 NA
ATOM      7  CA  UNL     1      -1.800  -0.391  24.927  0.00  0.00    +0.180 C 
ATOM      8  C   UNL     1      -1.658   0.421  24.928  0.00  0.00    +0.057 C 
ATOM      9  C   UNL     1      -2.204   1.040  24.926  0.00  0.00    -0.002 A 
ATOM     10  C   UNL     1      -1.990   1.836  24.928  0.00  0.00    +0.072 A 
ATOM     11  N   UNL     1      -2.681   2.287  24.925  0.00  0.00    -0.322 N 
ATOM     15  C   UNL     1      -3.323   1.769  24.922  0.00  0.00    +0.060 A 
ATOM     16  C   UNL     1      -3.028   0.998  24.923  0.00  0.00    +0.011 A 
ATOM     17  C   UNL     1      -3.509   0.327  24.920  0.00  0.00    -0.005 A 
ATOM     18  C   UNL     1      -4.362   0.488  24.916  0.00  0.00    -0.003 A 
ATOM     19  C   UNL     1      -4.658   1.258  24.916  0.00  0.00    +0.001 A 
ATOM     20  C   UNL     1      -4.137   1.899  24.918  0.00  0.00    +0.017 A 
ENDROOT
BRANCH   7  21
ATOM     21  C   UNL     1      -1.130  -0.873  24.930  0.00  0.00    +0.381 C 
ATOM     22  O   UNL     1      -0.738  -1.037  24.222  0.00  0.00    -0.244 OA
ATOM     23  OXT UNL     1      -0.853  -1.189  25.639  0.00  0.00    -0.244 OA
ENDBRANCH   7  21
BRANCH   5   4
ATOM      4  C   UNL     1      -3.903  -1.013  24.918  0.00  0.00    +0.022 C 
BRANCH   4   2
ATOM      1  C   UNL     1      -3.959  -1.749  23.694  0.00  0.00    +0.000 C 
ATOM      2  C   UNL     1      -3.823  -1.725  24.507  0.00  0.00    +0.002 C 
ATOM      3  C   UNL     1      -3.606  -2.411  24.911  0.00  0.00    +0.000 C 
ENDBRANCH   4   2
ENDBRANCH   5   4
BRANCH  11  12
ATOM     12  C   UNL     1      -2.723   3.110  24.925  0.00  0.00    +0.132 C 
BRANCH  12  13
ATOM     13  C   UNL     1      -2.065   3.558  25.141  0.00  0.00    -0.002 C 
ATOM     14  C   UNL     1      -2.126   4.378  25.202  0.00  0.00    -0.003 C 
ENDBRANCH  12  13
ENDBRANCH  11  12
TORSDOF 5
ENDMDL
MODEL 2
REMARK VINA RESULT:     -10.7      1.243      3.710
REMARK  Name = 
REMARK  5 active torsions:
REMARK  status: ('A' for Active; 'I' for Inactive)
REMARK    1  A    between atoms: C_2  and  C_4
REMARK    2  A    between atoms: C_4  and  C_5
REMARK    3  A    between atoms: CA_7  and  C_21
REMARK    4  A    between atoms: N_11  and  C_12
REMARK    5  A    between atoms: C_12  and  C_13
REMARK                            x       y       z     vdW  Elec       q    Type
REMARK                         _______ _______ _______ _____ _____    ______ ____
ROOT
ATOM      5  C   UNL     1      -2.782   2.767  24.950  0.00  0.00    +0.096 C 
ATOM      6  N   UNL     1      -1.973   2.629  25.031  0.00  0.00    -0.205 NA
ATOM      7  CA  UNL     1      -1.567   1.912  24.987  0.00  0.00    +0.180 C 
ATOM      8  C   UNL     1      -1.870   1.157  24.852  0.00  0.00    +0.057 C 
ATOM      9  C   UNL     1      -2.654   0.931  24.728  0.00  0.00    -0.002 A 
ATOM     10  C   UNL     1      -2.888   0.151  24.598  0.00  0.00    +0.072 A 
ATOM     11  N   UNL     1      -3.707   0.143  24.497  0.00  0.00    -0.322 N 
ATOM     15  C   UNL     1      -3.979   0.919  24.565  0.00  0.00    +0.060 A 
ATOM     16  C   UNL     1      -3.328   1.406  24.707  0.00  0.00    +0.011 A 
ATOM     17  C   UNL     1      -3.385   2.224  24.806  0.00  0.00    -0.005 A 
ATOM     18  C   UNL     1      -4.190   2.545  24.750  0.00  0.00    -0.003 A 
ATOM     19  C   UNL     1      -4.841   2.058  24.607  0.00  0.00    +0.001 A 
ATOM     20  C   UNL     1      -4.735   1.245  24.515  0.00  0.00    +0.017 A 
ENDROOT
BRANCH   7  21
ATOM     21  C   UNL     1      -0.750   1.956  25.093  0.00  0.00    +0.381 C 
ATOM     22  O   UNL     1      -0.263   2.160  24.458  0.00  0.00    -0.244 OA
ATOM     23  OXT UNL     1      -0.420   1.798  25.832  0.00  0.00    -0.244 OA
ENDBRANCH   7  21
BRANCH   5   4
ATOM      4  C   UNL     1      -3.019   3.554  25.023  0.00  0.00    +0.022 C 
BRANCH   4   2
ATOM      1  C   UNL     1      -2.792   4.028  26.353  0.00  0.00    +0.000 C 
ATOM      2  C   UNL     1      -2.625   4.058  25.545  0.00  0.00    +0.002 C 
ATOM      3  C   UNL     1      -2.064   4.590  25.259  0.00  0.00    +0.000 C 
ENDBRANCH   4   2
ENDBRANCH   5   4
BRANCH  11  12
ATOM     12  C   UNL     1      -4.172  -0.523  24.354  0.00  0.00    +0.132 C 
BRANCH  12  13
ATOM     13  C   UNL     1      -3.817  -1.260  24.249  0.00  0.00    -0.002 C 
ATOM     14  C   UNL     1      -4.262  -1.895  23.968  0.00  0.00    -0.003 C 
ENDBRANCH  12  13
ENDBRANCH  11  12
TORSDOF 5
ENDMDL
MODEL 3
REMARK VINA RESULT:     -10.6      1.981      2.783
REMARK  Name = 
REMARK  5 active torsions:
REMARK  status: ('A' for Active; 'I' for Inactive)
REMARK    1  A    between atoms: C_2  and  C_4
REMARK    2  A    between atoms: C_4  and  C_5
REMARK    3  A    between atoms: CA_7  and  C_21
REMARK    4  A    between atoms: N_11  and  C_12
REMARK    5  A    between atoms: C_12  and  C_13
REMARK                            x       y       z     vdW  Elec       q    Type
REMARK                         _______ _______ _______ _____ _____    ______ ____
ROOT
ATOM      5  C   UNL     1      -3.534   0.777  24.513  0.00  0.00    +0.096 C 
ATOM      6  N   UNL     1      -4.302   0.989  24.725  0.00  0.00    -0.205 NA
ATOM      7  CA  UNL     1      -4.582   1.724  24.976  0.00  0.00    +0.180 C 
ATOM      8  C   UNL     1      -4.162   2.427  25.077  0.00  0.00    +0.057 C 
ATOM      9  C   UNL     1      -3.359   2.569  24.953  0.00  0.00    -0.002 A 
ATOM     10  C   UNL     1      -3.003   3.302  25.076  0.00  0.00    +0.072 A 
ATOM     11  N   UNL     1      -2.201   3.230  24.896  0.00  0.00    -0.322 N 
ATOM     15  C   UNL     1      -2.061   2.452  24.661  0.00  0.00    +0.060 A 
ATOM     16  C   UNL     1      -2.777   2.043  24.697  0.00  0.00    +0.011 A 
ATOM     17  C   UNL     1      -2.856   1.245  24.501  0.00  0.00    -0.005 A 
ATOM     18  C   UNL     1      -2.121   0.855  24.250  0.00  0.00    -0.003 A 
ATOM     19  C   UNL     1      -1.405   1.263  24.214  0.00  0.00    +0.001 A 
ATOM     20  C   UNL     1      -1.376   2.062  24.420  0.00  0.00    +0.017 A 
ENDROOT
BRANCH   7  21
ATOM     21  C   UNL     1      -5.388   1.760  25.148  0.00  0.00    +0.381 C 
ATOM     22  O   UNL     1      -5.647   1.688  25.928  0.00  0.00    -0.244 OA
ATOM     23  OXT UNL     1      -5.935   1.869  24.540  0.00  0.00    -0.244 OA
ENDBRANCH   7  21
BRANCH   5   4
ATOM      4  C   UNL     1      -3.431  -0.009  24.284  0.00  0.00    +0.022 C 
BRANCH   4   2
ATOM      1  C   UNL     1      -3.732  -0.825  25.419  0.00  0.00    +0.000 C 
ATOM      2  C   UNL     1      -3.880  -0.605  24.638  0.00  0.00    +0.002 C 
ATOM      3  C   UNL     1      -4.477  -0.979  24.209  0.00  0.00    +0.000 C 
ENDBRANCH   4   2
ENDBRANCH   5   4
BRANCH  11  12
ATOM     12  C   UNL     1      -1.637   3.830  24.941  0.00  0.00    +0.132 C 
BRANCH  12  13
ATOM     13  C   UNL     1      -1.856   4.585  25.192  0.00  0.00    -0.002 C 
ATOM     14  C   UNL     1      -1.326   5.213  25.121  0.00  0.00    -0.003 C 
ENDBRANCH  12  13
ENDBRANCH  11  12
TORSDOF 5
ENDMDL
MODEL 4
REMARK VINA RESULT:     -10.6      2.001      4.314
REMARK  Name = 
REMARK  5 active torsions:
REMARK  status: ('A' for Active; 'I' for Inactive)
REMARK    1  A    between atoms: C_2  and  C_4
REMARK    2  A    between atoms: C_4  and  C_5
REMARK    3  A    between atoms: CA_7  and  C_21
REMARK    4  A    between atoms: N_11  and  C_12
REMARK    5  A    between atoms: C_12  and  C_13
REMARK                            x       y       z     vdW  Elec       q    Type
REMARK                         _______ _______ _______ _____ _____    ______ ____
ROOT
ATOM      5  C   UNL     1      -3.618   2.118  24.649  0.00  0.00    +0.096 C 
ATOM      6  N   UNL     1      -4.403   2.209  24.887  0.00  0.00    -0.205 NA
ATOM      7  CA  UNL     1      -4.951   1.625  25.087  0.00  0.00    +0.180 C 
ATOM      8  C   UNL     1      -4.849   0.807  25.098  0.00  0.00    +0.057 C 
ATOM      9  C   UNL     1      -4.174   0.370  24.913  0.00  0.00    -0.002 A 
ATOM     10  C   UNL     1      -4.142  -0.454  24.947  0.00  0.00    +0.072 A 
ATOM     11  N   UNL     1      -3.383  -0.690  24.725  0.00  0.00    -0.322 N 
ATOM     15  C   UNL     1      -2.945  -0.011  24.554  0.00  0.00    +0.060 A 
ATOM     16  C   UNL     1      -3.434   0.644  24.670  0.00  0.00    +0.011 A 
ATOM     17  C   UNL     1      -3.187   1.422  24.553  0.00  0.00    -0.005 A 
ATOM     18  C   UNL     1      -2.363   1.510  24.294  0.00  0.00    -0.003 A 
ATOM     19  C   UNL     1      -1.874   0.856  24.177  0.00  0.00    +0.001 A 
ATOM     20  C   UNL     1      -2.166   0.095  24.308  0.00  0.00    +0.017 A 
ENDROOT
BRANCH   7  21
ATOM     21  C   UNL     1      -5.700   1.896  25.304  0.00  0.00    +0.381 C 
ATOM     22  O   UNL     1      -6.278   2.014  24.727  0.00  0.00    -0.244 OA
ATOM     23  OXT UNL     1      -5.869   2.048  26.096  0.00  0.00    -0.244 OA
ENDBRANCH   7  21
BRANCH   5   4
ATOM      4  C   UNL     1      -3.211   2.817  24.487  0.00  0.00    +0.022 C 
BRANCH   4   2
ATOM      1  C   UNL     1      -3.220   3.698  25.612  0.00  0.00    +0.000 C 
ATOM      2  C   UNL     1      -3.449   3.525  24.838  0.00  0.00    +0.002 C 
ATOM      3  C   UNL     1      -3.915   4.059  24.416  0.00  0.00    +0.000 C 
ENDBRANCH   4   2
ENDBRANCH   5   4
BRANCH  11  12
ATOM     12  C   UNL     1      -3.108  -1.466  24.681  0.00  0.00    +0.132 C 
BRANCH  12  13
ATOM     13  C   UNL     1      -3.635  -2.095  24.762  0.00  0.00    -0.002 C 
ATOM     14  C   UNL     1      -3.367  -2.871  24.679  0.00  0.00    -0.003 C 
ENDBRANCH  12  13
ENDBRANCH  11  12
TORSDOF 5
ENDMDL
