REMARK  Name = 
REMARK  3 active torsions:
REMARK  status: ('A' for Active; 'I' for Inactive)
REMARK    1  A    between atoms: O_2  and  C_3
REMARK    2  A    between atoms: C_3  and  C_5
REMARK    3  A    between atoms: N_7  and  C_10
REMARK                            x       y       z     vdW  Elec       q    Type
REMARK                         _______ _______ _______ _____ _____    ______ ____
ROOT
ATOM      5  C   UNL     1       0.230  -2.787   0.000  0.00  0.00    +0.198 A 
ATOM      6  C   UNL     1       0.230  -1.962   0.000  0.00  0.00    +0.124 A 
ATOM      7  N   UNL     1       1.015  -1.707   0.000  0.00  0.00    -0.227 N 
ATOM      8  N   UNL     1       1.500  -2.374   0.000  0.00  0.00    -0.064 NA
ATOM      9  N   UNL     1       1.015  -3.042   0.000  0.00  0.00    -0.122 NA
ENDROOT
BRANCH   7  10
ATOM     10  C   UNL     1       1.270  -0.922   0.000  0.00  0.00    +0.166 C 
ATOM     11  C   UNL     1       0.785  -0.255   0.000  0.00  0.00    +0.169 C 
ATOM     12  O   UNL     1       1.270   0.412   0.000  0.00  0.00    -0.349 OA
ATOM     13  C   UNL     1       2.054   0.158   0.000  0.00  0.00    +0.177 C 
ATOM     14  C   UNL     1       2.839   0.412   0.000  0.00  0.00    +0.211 C 
ATOM     15  O   UNL     1       3.094   1.197   0.000  0.00  0.00    -0.218 OA
ATOM     16  C   UNL     1       3.324  -0.255   0.000  0.00  0.00    +0.178 C 
ATOM     17  O   UNL     1       2.839  -0.922   0.000  0.00  0.00    -0.349 OA
ATOM     18  C   UNL     1       2.054  -0.667   0.000  0.00  0.00    +0.170 C 
ENDBRANCH   7  10
BRANCH   5   3
ATOM      3  C   UNL     1      -0.438  -3.272   0.000  0.00  0.00    +0.363 C 
ATOM      4  O   UNL     1      -1.191  -2.936   0.000  0.00  0.00    -0.243 OA
BRANCH   3   2
ATOM      1  C   UNL     1      -1.019  -4.577   0.000  0.00  0.00    +0.256 C 
ATOM      2  O   UNL     1      -0.351  -4.092   0.000  0.00  0.00    -0.440 OA
ENDBRANCH   3   2
ENDBRANCH   5   3
TORSDOF 3
