MODEL 1
REMARK VINA RESULT:     -10.3      0.000      0.000
REMARK  Name = 
REMARK  4 active torsions:
REMARK  status: ('A' for Active; 'I' for Inactive)
REMARK    1  A    between atoms: O_2  and  C_3
REMARK    2  A    between atoms: C_6  and  C_9
REMARK    3  A    between atoms: C_12  and  C_14
REMARK    4  A    between atoms: N_18  and  C_19
REMARK                            x       y       z     vdW  Elec       q    Type
REMARK                         _______ _______ _______ _____ _____    ______ ____
ROOT
ATOM      9  C   UNL     1      -4.188   0.812  24.496  0.00  0.00    +0.205 A 
ATOM     10  N   UNL     1      -3.700   0.832  23.832  0.00  0.00    -0.056 NA
ATOM     11  O   UNL     1      -3.465   0.059  23.665  0.00  0.00    -0.336 OA
ATOM     12  C   UNL     1      -3.809  -0.439  24.227  0.00  0.00    +0.251 A 
ATOM     13  N   UNL     1      -4.255   0.027  24.740  0.00  0.00    -0.190 NA
ENDROOT
BRANCH   9   6
ATOM      3  C   UNL     1      -5.262   2.766  25.570  0.00  0.00    +0.225 A 
ATOM      4  N   UNL     1      -4.455   2.782  25.399  0.00  0.00    -0.210 NA
ATOM      5  C   UNL     1      -4.097   2.131  25.041  0.00  0.00    +0.105 A 
ATOM      6  C   UNL     1      -4.546   1.464  24.854  0.00  0.00    +0.058 A 
ATOM      7  C   UNL     1      -5.352   1.449  25.026  0.00  0.00    +0.010 A 
ATOM      8  C   UNL     1      -5.711   2.100  25.384  0.00  0.00    +0.058 A 
BRANCH   3   2
ATOM      1  C   UNL     1      -5.640   4.145  25.537  0.00  0.00    +0.254 C 
ATOM      2  O   UNL     1      -5.620   3.418  25.928  0.00  0.00    -0.456 OA
ENDBRANCH   3   2
ENDBRANCH   9   6
BRANCH  12  14
ATOM     14  C   UNL     1      -3.721  -1.258  24.268  0.00  0.00    +0.138 C 
ATOM     15  C   UNL     1      -4.236  -1.817  23.947  0.00  0.00    +0.027 C 
ATOM     16  C   UNL     1      -3.935  -2.567  24.118  0.00  0.00    +0.019 C 
ATOM     17  C   UNL     1      -3.235  -2.470  24.543  0.00  0.00    +0.072 C 
ATOM     18  N   UNL     1      -3.103  -1.662  24.636  0.00  0.00    -0.268 NA
BRANCH  18  19
ATOM     19  C   UNL     1      -2.463  -1.316  25.028  0.00  0.00    +0.058 C 
ATOM     20  C   UNL     1      -2.316  -1.077  25.803  0.00  0.00    +0.016 C 
ATOM     21  C   UNL     1      -1.561  -0.829  25.582  0.00  0.00    +0.003 C 
ATOM     22  C   UNL     1      -1.708  -1.068  24.807  0.00  0.00    +0.016 C 
ENDBRANCH  18  19
ENDBRANCH  12  14
TORSDOF 4
ENDMDL
MODEL 2
REMARK VINA RESULT:     -10.0      1.656      4.588
REMARK  Name = 
REMARK  4 active torsions:
REMARK  status: ('A' for Active; 'I' for Inactive)
REMARK    1  A    between atoms: O_2  and  C_3
REMARK    2  A    between atoms: C_6  and  C_9
REMARK    3  A    between atoms: C_12  and  C_14
REMARK    4  A    between atoms: N_18  and  C_19
REMARK                            x       y       z     vdW  Elec       q    Type
REMARK                         _______ _______ _______ _____ _____    ______ ____
ROOT
ATOM      9  C   UNL     1      -2.993   0.961  24.392  0.00  0.00    +0.205 A 
ATOM     10  N   UNL     1      -3.052   1.351  23.668  0.00  0.00    -0.056 NA
ATOM     11  O   UNL     1      -2.826   2.136  23.782  0.00  0.00    -0.336 OA
ATOM     12  C   UNL     1      -2.626   2.231  24.577  0.00  0.00    +0.251 A 
ATOM     13  N   UNL     1      -2.729   1.505  24.954  0.00  0.00    -0.190 NA
ENDROOT
BRANCH   9   6
ATOM      3  C   UNL     1      -3.512  -1.422  24.809  0.00  0.00    +0.225 A 
ATOM      4  N   UNL     1      -2.751  -1.136  24.949  0.00  0.00    -0.210 NA
ATOM      5  C   UNL     1      -2.577  -0.341  24.810  0.00  0.00    +0.105 A 
ATOM      6  C   UNL     1      -3.166   0.166  24.531  0.00  0.00    +0.058 A 
ATOM      7  C   UNL     1      -3.926  -0.121  24.392  0.00  0.00    +0.010 A 
ATOM      8  C   UNL     1      -4.100  -0.916  24.531  0.00  0.00    +0.058 A 
BRANCH   3   2
ATOM      1  C   UNL     1      -3.674  -2.758  24.324  0.00  0.00    +0.254 C 
ATOM      2  O   UNL     1      -3.685  -2.217  24.948  0.00  0.00    -0.456 OA
ENDBRANCH   3   2
ENDBRANCH   9   6
BRANCH  12  14
ATOM     14  C   UNL     1      -2.368   2.929  24.931  0.00  0.00    +0.138 C 
ATOM     15  C   UNL     1      -1.582   3.151  25.052  0.00  0.00    +0.027 C 
ATOM     16  C   UNL     1      -1.579   3.888  25.423  0.00  0.00    +0.019 C 
ATOM     17  C   UNL     1      -2.364   4.122  25.532  0.00  0.00    +0.072 C 
ATOM     18  N   UNL     1      -2.850   3.529  25.229  0.00  0.00    -0.268 NA
BRANCH  18  19
ATOM     19  C   UNL     1      -3.676   3.536  25.223  0.00  0.00    +0.058 C 
ATOM     20  C   UNL     1      -4.253   3.742  24.672  0.00  0.00    +0.016 C 
ATOM     21  C   UNL     1      -4.842   3.544  25.214  0.00  0.00    +0.003 C 
ATOM     22  C   UNL     1      -4.264   3.337  25.766  0.00  0.00    +0.016 C 
ENDBRANCH  18  19
ENDBRANCH  12  14
TORSDOF 4
ENDMDL
