MODEL 1
REMARK VINA RESULT:      -9.5      0.000      0.000
REMARK  Name = 
REMARK  5 active torsions:
REMARK  status: ('A' for Active; 'I' for Inactive)
REMARK    1  A    between atoms: C_12  and  C_13
REMARK    2  A    between atoms: C_13  and  C_14
REMARK    3  A    between atoms: C_14  and  C_15
REMARK    4  A    between atoms: N_17  and  C_18
REMARK    5  A    between atoms: C_18  and  C_19
REMARK                            x       y       z     vdW  Elec       q    Type
REMARK                         _______ _______ _______ _____ _____    ______ ____
ROOT
ATOM      1  C   UNL     1      -3.426   3.409  25.316  0.00  0.00    +0.090 C 
ATOM      2  N   UNL     1      -2.694   3.227  24.984  0.00  0.00    -0.271 NA
ATOM      3  C   UNL     1      -2.121   3.819  25.031  0.00  0.00    +0.084 C 
ATOM      4  C   UNL     1      -2.254   4.553  25.384  0.00  0.00    +0.037 C 
ATOM      5  C   UNL     1      -1.559   4.993  25.325  0.00  0.00    +0.091 C 
ATOM      6  N   UNL     1      -0.996   4.532  24.936  0.00  0.00    -0.209 NA
ATOM      7  C   UNL     1      -1.344   3.806  24.754  0.00  0.00    +0.165 C 
ATOM      8  C   UNL     1      -0.948   3.199  24.362  0.00  0.00    +0.259 C 
ATOM      9  O   UNL     1      -0.165   3.357  24.154  0.00  0.00    -0.272 OA
ATOM     10  N   UNL     1      -1.230   2.453  24.149  0.00  0.00    -0.203 NA
ATOM     11  C   UNL     1      -1.979   2.132  24.277  0.00  0.00    +0.131 C 
ATOM     12  C   UNL     1      -2.630   2.476  24.648  0.00  0.00    +0.080 C 
ENDROOT
BRANCH  12  13
ATOM     13  C   UNL     1      -3.308   2.007  24.689  0.00  0.00    +0.027 C 
BRANCH  13  14
ATOM     14  C   UNL     1      -3.392   1.357  24.190  0.00  0.00    +0.088 C 
BRANCH  14  15
ATOM     15  C   UNL     1      -3.937   0.764  24.371  0.00  0.00    +0.242 C 
ATOM     16  O   UNL     1      -4.700   0.966  24.613  0.00  0.00    -0.273 OA
ATOM     17  N   UNL     1      -3.720  -0.029  24.310  0.00  0.00    -0.197 NA
BRANCH  17  18
ATOM     18  C   UNL     1      -4.265  -0.622  24.491  0.00  0.00    +0.179 C 
BRANCH  18  19
ATOM     19  C   UNL     1      -4.028  -1.411  24.503  0.00  0.00    +0.145 A 
ATOM     20  C   UNL     1      -4.141  -1.961  23.898  0.00  0.00    +0.038 A 
ATOM     21  C   UNL     1      -3.819  -2.680  24.143  0.00  0.00    +0.043 A 
ATOM     22  C   UNL     1      -3.506  -2.574  24.899  0.00  0.00    +0.179 A 
ATOM     23  O   UNL     1      -3.635  -1.790  25.122  0.00  0.00    -0.453 OA
ENDBRANCH  18  19
ENDBRANCH  17  18
ENDBRANCH  14  15
ENDBRANCH  13  14
ENDBRANCH  12  13
TORSDOF 5
ENDMDL
MODEL 2
REMARK VINA RESULT:      -9.1      1.316      5.311
REMARK  Name = 
REMARK  5 active torsions:
REMARK  status: ('A' for Active; 'I' for Inactive)
REMARK    1  A    between atoms: C_12  and  C_13
REMARK    2  A    between atoms: C_13  and  C_14
REMARK    3  A    between atoms: C_14  and  C_15
REMARK    4  A    between atoms: N_17  and  C_18
REMARK    5  A    between atoms: C_18  and  C_19
REMARK                            x       y       z     vdW  Elec       q    Type
REMARK                         _______ _______ _______ _____ _____    ______ ____
ROOT
ATOM      1  C   UNL     1      -4.235  -0.532  24.252  0.00  0.00    +0.090 C 
ATOM      2  N   UNL     1      -3.481  -0.820  24.424  0.00  0.00    -0.271 NA
ATOM      3  C   UNL     1      -3.394  -1.639  24.393  0.00  0.00    +0.084 C 
ATOM      4  C   UNL     1      -4.010  -2.155  24.204  0.00  0.00    +0.037 C 
ATOM      5  C   UNL     1      -3.715  -2.925  24.229  0.00  0.00    +0.091 C 
ATOM      6  N   UNL     1      -2.916  -2.886  24.433  0.00  0.00    -0.209 NA
ATOM      7  C   UNL     1      -2.718  -2.091  24.534  0.00  0.00    +0.165 C 
ATOM      8  C   UNL     1      -1.962  -1.834  24.742  0.00  0.00    +0.259 C 
ATOM      9  O   UNL     1      -1.398  -2.427  24.846  0.00  0.00    -0.272 OA
ATOM     10  N   UNL     1      -1.695  -1.063  24.859  0.00  0.00    -0.203 NA
ATOM     11  C   UNL     1      -2.119  -0.357  24.797  0.00  0.00    +0.131 C 
ATOM     12  C   UNL     1      -2.912  -0.249  24.604  0.00  0.00    +0.080 C 
ENDROOT
BRANCH  12  13
ATOM     13  C   UNL     1      -3.175   0.534  24.588  0.00  0.00    +0.027 C 
BRANCH  13  14
ATOM     14  C   UNL     1      -2.727   1.126  24.946  0.00  0.00    +0.088 C 
BRANCH  14  15
ATOM     15  C   UNL     1      -2.924   1.919  24.831  0.00  0.00    +0.242 C 
ATOM     16  O   UNL     1      -3.695   2.126  24.621  0.00  0.00    -0.273 OA
ATOM     17  N   UNL     1      -2.352   2.505  24.926  0.00  0.00    -0.197 NA
BRANCH  17  18
ATOM     18  C   UNL     1      -2.549   3.298  24.811  0.00  0.00    +0.179 C 
BRANCH  18  19
ATOM     19  C   UNL     1      -1.978   3.884  24.909  0.00  0.00    +0.145 A 
ATOM     20  C   UNL     1      -2.085   4.609  25.288  0.00  0.00    +0.038 A 
ATOM     21  C   UNL     1      -1.372   5.021  25.259  0.00  0.00    +0.043 A 
ATOM     22  C   UNL     1      -0.823   4.551  24.861  0.00  0.00    +0.179 A 
ATOM     23  O   UNL     1      -1.196   3.848  24.645  0.00  0.00    -0.453 OA
ENDBRANCH  18  19
ENDBRANCH  17  18
ENDBRANCH  14  15
ENDBRANCH  13  14
ENDBRANCH  12  13
TORSDOF 5
ENDMDL
MODEL 3
REMARK VINA RESULT:      -8.9      1.340      1.830
REMARK  Name = 
REMARK  5 active torsions:
REMARK  status: ('A' for Active; 'I' for Inactive)
REMARK    1  A    between atoms: C_12  and  C_13
REMARK    2  A    between atoms: C_13  and  C_14
REMARK    3  A    between atoms: C_14  and  C_15
REMARK    4  A    between atoms: N_17  and  C_18
REMARK    5  A    between atoms: C_18  and  C_19
REMARK                            x       y       z     vdW  Elec       q    Type
REMARK                         _______ _______ _______ _____ _____    ______ ____
ROOT
ATOM      1  C   UNL     1      -0.603   2.657  24.488  0.00  0.00    +0.090 C 
ATOM      2  N   UNL     1      -1.287   2.949  24.845  0.00  0.00    -0.271 NA
ATOM      3  C   UNL     1      -1.307   3.764  24.969  0.00  0.00    +0.084 C 
ATOM      4  C   UNL     1      -0.692   4.272  24.757  0.00  0.00    +0.037 C 
ATOM      5  C   UNL     1      -0.910   5.039  24.967  0.00  0.00    +0.091 C 
ATOM      6  N   UNL     1      -1.660   5.006  25.309  0.00  0.00    -0.209 NA
ATOM      7  C   UNL     1      -1.906   4.218  25.310  0.00  0.00    +0.165 C 
ATOM      8  C   UNL     1      -2.632   3.969  25.610  0.00  0.00    +0.259 C 
ATOM      9  O   UNL     1      -3.116   4.563  25.918  0.00  0.00    -0.272 OA
ATOM     10  N   UNL     1      -2.940   3.205  25.644  0.00  0.00    -0.203 NA
ATOM     11  C   UNL     1      -2.596   2.500  25.386  0.00  0.00    +0.131 C 
ATOM     12  C   UNL     1      -1.862   2.386  25.031  0.00  0.00    +0.080 C 
ENDROOT
BRANCH  12  13
ATOM     13  C   UNL     1      -1.675   1.607  24.834  0.00  0.00    +0.027 C 
BRANCH  13  14
ATOM     14  C   UNL     1      -2.183   0.994  25.048  0.00  0.00    +0.088 C 
BRANCH  14  15
ATOM     15  C   UNL     1      -2.010   0.218  24.827  0.00  0.00    +0.242 C 
ATOM     16  O   UNL     1      -1.227  -0.012  24.711  0.00  0.00    -0.273 OA
ATOM     17  N   UNL     1      -2.620  -0.328  24.724  0.00  0.00    -0.197 NA
BRANCH  17  18
ATOM     18  C   UNL     1      -2.447  -1.104  24.504  0.00  0.00    +0.179 C 
BRANCH  18  19
ATOM     19  C   UNL     1      -3.058  -1.640  24.368  0.00  0.00    +0.145 A 
ATOM     20  C   UNL     1      -3.108  -2.406  24.671  0.00  0.00    +0.038 A 
ATOM     21  C   UNL     1      -3.808  -2.745  24.395  0.00  0.00    +0.043 A 
ATOM     22  C   UNL     1      -4.190  -2.188  23.921  0.00  0.00    +0.179 A 
ATOM     23  O   UNL     1      -3.727  -1.506  23.904  0.00  0.00    -0.453 OA
ENDBRANCH  18  19
ENDBRANCH  17  18
ENDBRANCH  14  15
ENDBRANCH  13  14
ENDBRANCH  12  13
TORSDOF 5
ENDMDL
MODEL 4
REMARK VINA RESULT:      -8.8      2.103      2.950
REMARK  Name = 
REMARK  5 active torsions:
REMARK  status: ('A' for Active; 'I' for Inactive)
REMARK    1  A    between atoms: C_12  and  C_13
REMARK    2  A    between atoms: C_13  and  C_14
REMARK    3  A    between atoms: C_14  and  C_15
REMARK    4  A    between atoms: N_17  and  C_18
REMARK    5  A    between atoms: C_18  and  C_19
REMARK                            x       y       z     vdW  Elec       q    Type
REMARK                         _______ _______ _______ _____ _____    ______ ____
ROOT
ATOM      1  C   UNL     1      -3.524   1.982  23.944  0.00  0.00    +0.090 C 
ATOM      2  N   UNL     1      -4.131   2.070  24.496  0.00  0.00    -0.271 NA
ATOM      3  C   UNL     1      -4.280   2.842  24.746  0.00  0.00    +0.084 C 
ATOM      4  C   UNL     1      -3.860   3.497  24.472  0.00  0.00    +0.037 C 
ATOM      5  C   UNL     1      -4.163   4.168  24.843  0.00  0.00    +0.091 C 
ATOM      6  N   UNL     1      -4.771   3.928  25.347  0.00  0.00    -0.209 NA
ATOM      7  C   UNL     1      -4.844   3.109  25.286  0.00  0.00    +0.165 C 
ATOM      8  C   UNL     1      -5.397   2.669  25.711  0.00  0.00    +0.259 C 
ATOM      9  O   UNL     1      -5.889   3.100  26.213  0.00  0.00    -0.272 OA
ATOM     10  N   UNL     1      -5.524   1.854  25.700  0.00  0.00    -0.203 NA
ATOM     11  C   UNL     1      -5.129   1.277  25.261  0.00  0.00    +0.131 C 
ATOM     12  C   UNL     1      -4.509   1.373  24.726  0.00  0.00    +0.080 C 
ENDROOT
BRANCH  12  13
ATOM     13  C   UNL     1      -4.230   0.682  24.372  0.00  0.00    +0.027 C 
BRANCH  13  14
ATOM     14  C   UNL     1      -4.344  -0.046  24.742  0.00  0.00    +0.088 C 
BRANCH  14  15
ATOM     15  C   UNL     1      -3.970  -0.721  24.450  0.00  0.00    +0.242 C 
ATOM     16  O   UNL     1      -4.340  -1.178  23.871  0.00  0.00    -0.273 OA
ATOM     17  N   UNL     1      -3.228  -0.939  24.735  0.00  0.00    -0.197 NA
BRANCH  17  18
ATOM     18  C   UNL     1      -2.855  -1.614  24.443  0.00  0.00    +0.179 C 
BRANCH  18  19
ATOM     19  C   UNL     1      -2.076  -1.780  24.656  0.00  0.00    +0.145 A 
ATOM     20  C   UNL     1      -1.727  -2.528  24.677  0.00  0.00    +0.038 A 
ATOM     21  C   UNL     1      -0.944  -2.437  24.919  0.00  0.00    +0.043 A 
ATOM     22  C   UNL     1      -0.809  -1.634  25.048  0.00  0.00    +0.179 A 
ATOM     23  O   UNL     1      -1.508  -1.227  24.885  0.00  0.00    -0.453 OA
ENDBRANCH  18  19
ENDBRANCH  17  18
ENDBRANCH  14  15
ENDBRANCH  13  14
ENDBRANCH  12  13
TORSDOF 5
ENDMDL
