REMARK  Name = 
REMARK  5 active torsions:
REMARK  status: ('A' for Active; 'I' for Inactive)
REMARK    1  A    between atoms: C_5  and  N_8
REMARK    2  A    between atoms: N_8  and  C_9
REMARK    3  A    between atoms: C_12  and  C_13
REMARK    4  A    between atoms: C_13  and  N_14
REMARK    5  A    between atoms: N_17  and  C_18
REMARK                            x       y       z     vdW  Elec       q    Type
REMARK                         _______ _______ _______ _____ _____    ______ ____
ROOT
ATOM      9  C   UNL     1      -1.306  -2.197   0.000  0.00  0.00    +0.135 C 
ATOM     10  C   UNL     1      -0.893  -1.483   0.000  0.00  0.00    +0.162 C 
ATOM     11  O   UNL     1      -0.086  -1.655   0.000  0.00  0.00    -0.350 OA
ATOM     12  C   UNL     1       0.000  -2.475   0.000  0.00  0.00    +0.169 C 
ATOM     24  C   UNL     1      -0.754  -2.811   0.000  0.00  0.00    +0.199 C 
ATOM     25  O   UNL     1      -0.925  -3.618   0.000  0.00  0.00    -0.219 OA
ENDROOT
BRANCH   9   8
ATOM      8  N   UNL     1      -2.126  -2.284   0.000  0.00  0.00    -0.216 NA
BRANCH   8   5
ATOM      1  C   UNL     1      -4.066   0.386   0.000  0.00  0.00    +0.090 C 
ATOM      2  N   UNL     1      -3.581  -0.281   0.000  0.00  0.00    -0.271 NA
ATOM      3  C   UNL     1      -2.760  -0.195   0.000  0.00  0.00    +0.074 C 
ATOM      4  C   UNL     1      -2.276  -0.863   0.000  0.00  0.00    +0.035 C 
ATOM      5  C   UNL     1      -2.611  -1.616   0.000  0.00  0.00    +0.076 C 
ATOM      6  C   UNL     1      -3.432  -1.702   0.000  0.00  0.00    +0.035 C 
ATOM      7  C   UNL     1      -3.917  -1.035   0.000  0.00  0.00    +0.074 C 
ENDBRANCH   8   5
ENDBRANCH   9   8
BRANCH  12  13
ATOM     13  C   UNL     1       0.715  -2.888   0.000  0.00  0.00    +0.149 C 
BRANCH  13  14
ATOM     14  N   UNL     1       1.429  -2.475   0.000  0.00  0.00    -0.184 NA
ATOM     15  C   UNL     1       2.143  -2.888   0.000  0.00  0.00    +0.344 C 
ATOM     16  O   UNL     1       2.143  -3.712   0.000  0.00  0.00    -0.249 OA
ATOM     17  N   UNL     1       2.858  -2.475   0.000  0.00  0.00    -0.161 NA
BRANCH  17  18
ATOM     18  C   UNL     1       3.572  -2.888   0.000  0.00  0.00    +0.075 A 
ATOM     19  C   UNL     1       4.287  -2.475   0.000  0.00  0.00    +0.017 A 
ATOM     20  C   UNL     1       5.001  -2.888   0.000  0.00  0.00    +0.001 A 
ATOM     21  C   UNL     1       5.001  -3.712   0.000  0.00  0.00    +0.000 A 
ATOM     22  C   UNL     1       4.287  -4.125   0.000  0.00  0.00    +0.001 A 
ATOM     23  C   UNL     1       3.572  -3.712   0.000  0.00  0.00    +0.017 A 
ENDBRANCH  17  18
ENDBRANCH  13  14
ENDBRANCH  12  13
TORSDOF 5
