REMARK  Name = 
REMARK  11 active torsions:
REMARK  status: ('A' for Active; 'I' for Inactive)
REMARK    1  A    between atoms: C_4  and  C_5
REMARK    2  A    between atoms: N_7  and  C_8
REMARK    3  A    between atoms: C_8  and  C_9
REMARK    4  A    between atoms: C_9  and  C_10
REMARK    5  A    between atoms: C_10  and  C_11
REMARK    6  A    between atoms: C_11  and  N_12
REMARK    7  A    between atoms: C_11  and  C_38
REMARK    8  A    between atoms: C_13  and  C_15
REMARK    9  A    between atoms: C_16  and  N_26
REMARK   10  A    between atoms: C_20  and  C_22
REMARK   11  A    between atoms: N_29  and  C_30
REMARK                            x       y       z     vdW  Elec       q    Type
REMARK                         _______ _______ _______ _____ _____    ______ ____
ROOT
ATOM     15  C   UNL     1       5.293  -8.749   0.000  0.00  0.00    +0.174 C 
ATOM     16  C   UNL     1       6.047  -8.414   0.000  0.00  0.00    +0.126 C 
ATOM     17  C   UNL     1       6.599  -9.027   0.000  0.00  0.00    +0.045 C 
ATOM     18  C   UNL     1       6.186  -9.742   0.000  0.00  0.00    +0.096 C 
ATOM     19  N   UNL     1       5.379  -9.570   0.000  0.00  0.00    -0.268 N 
ATOM     20  C   UNL     1       4.766 -10.122   0.000  0.00  0.00    +0.249 C 
ATOM     21  O   UNL     1       3.982  -9.867   0.000  0.00  0.00    -0.270 OA
ENDROOT
BRANCH  20  22
ATOM     22  C   UNL     1       4.938 -10.929   0.000  0.00  0.00    +0.049 C 
ATOM     23  C   UNL     1       5.722 -11.184   0.000  0.00  0.00    -0.039 C 
ATOM     24  C   UNL     1       5.894 -11.991   0.000  0.00  0.00    +0.027 C 
ATOM     25  C   UNL     1       6.335 -10.632   0.000  0.00  0.00    +0.027 C 
ENDBRANCH  20  22
BRANCH  16  26
ATOM     26  N   UNL     1       6.218  -7.607   0.000  0.00  0.00    -0.186 NA
ATOM     27  C   UNL     1       7.003  -7.352   0.000  0.00  0.00    +0.344 C 
ATOM     28  O   UNL     1       7.616  -7.904   0.000  0.00  0.00    -0.249 OA
ATOM     29  N   UNL     1       7.175  -6.545   0.000  0.00  0.00    -0.159 NA
BRANCH  29  30
ATOM     30  C   UNL     1       7.959  -6.290   0.000  0.00  0.00    +0.102 A 
ATOM     31  C   UNL     1       8.131  -5.483   0.000  0.00  0.00    +0.158 A 
ATOM     32  F   UNL     1       7.518  -4.931   0.000  0.00  0.00    -0.203 F 
ATOM     33  C   UNL     1       8.915  -5.228   0.000  0.00  0.00    +0.061 A 
ATOM     34  C   UNL     1       9.528  -5.780   0.000  0.00  0.00    +0.142 A 
ATOM     35  F   UNL     1      10.313  -5.525   0.000  0.00  0.00    -0.204 F 
ATOM     36  C   UNL     1       9.357  -6.587   0.000  0.00  0.00    +0.031 A 
ATOM     37  C   UNL     1       8.572  -6.842   0.000  0.00  0.00    +0.021 A 
ENDBRANCH  29  30
ENDBRANCH  16  26
BRANCH  15  13
ATOM     12  N   UNL     1       3.864  -8.749   0.000  0.00  0.00    -0.196 NA
ATOM     13  C   UNL     1       4.579  -8.337   0.000  0.00  0.00    +0.262 C 
ATOM     14  O   UNL     1       4.579  -7.512   0.000  0.00  0.00    -0.271 OA
BRANCH  12  11
ATOM     11  C   UNL     1       3.150  -8.337   0.000  0.00  0.00    +0.174 C 
BRANCH  11  38
ATOM     38  C   UNL     1       3.150  -7.512   0.000  0.00  0.00    +0.281 C 
ATOM     39  N   UNL     1       3.864  -7.099   0.000  0.00  0.00    -0.086 NA
ATOM     40  O   UNL     1       2.435  -7.099   0.000  0.00  0.00    -0.270 OA
ENDBRANCH  11  38
BRANCH  11  10
ATOM     10  C   UNL     1       2.435  -8.749   0.000  0.00  0.00    +0.033 C 
BRANCH  10   9
ATOM      9  C   UNL     1       1.721  -8.337   0.000  0.00  0.00    +0.026 C 
BRANCH   9   8
ATOM      8  C   UNL     1       1.006  -8.749   0.000  0.00  0.00    +0.116 C 
BRANCH   8   7
ATOM      5  C   UNL     1      -0.423  -8.749   0.000  0.00  0.00    +0.264 C 
ATOM      6  O   UNL     1      -0.423  -9.575   0.000  0.00  0.00    -0.268 OA
ATOM      7  N   UNL     1       0.292  -8.337   0.000  0.00  0.00    -0.202 NA
BRANCH   5   4
ATOM      1  C   UNL     1      -1.852  -7.099   0.000  0.00  0.00    +0.027 C 
ATOM      2  C   UNL     1      -1.137  -7.512   0.000  0.00  0.00    -0.039 C 
ATOM      3  C   UNL     1      -0.423  -7.099   0.000  0.00  0.00    +0.027 C 
ATOM      4  C   UNL     1      -1.137  -8.337   0.000  0.00  0.00    +0.051 C 
ENDBRANCH   5   4
ENDBRANCH   8   7
ENDBRANCH   9   8
ENDBRANCH  10   9
ENDBRANCH  11  10
ENDBRANCH  12  11
ENDBRANCH  15  13
TORSDOF 11
