REMARK  Name = 
REMARK  8 active torsions:
REMARK  status: ('A' for Active; 'I' for Inactive)
REMARK    1  A    between atoms: O_2  and  C_3
REMARK    2  A    between atoms: C_6  and  C_9
REMARK    3  A    between atoms: C_14  and  C_15
REMARK    4  A    between atoms: C_15  and  C_16
REMARK    5  A    between atoms: C_19  and  C_20
REMARK    6  A    between atoms: C_20  and  C_21
REMARK    7  A    between atoms: C_21  and  N_22
REMARK    8  A    between atoms: C_26  and  C_27
REMARK                            x       y       z     vdW  Elec       q    Type
REMARK                         _______ _______ _______ _____ _____    ______ ____
ROOT
ATOM      9  C   UNL     1       1.322   7.240   0.000  0.00  0.00    +0.249 C 
ATOM     10  O   UNL     1       0.608   6.828   0.000  0.00  0.00    -0.270 OA
ATOM     11  N   UNL     1       2.037   6.828   0.000  0.00  0.00    -0.276 N 
ATOM     12  C   UNL     1       2.751   7.240   0.000  0.00  0.00    +0.094 C 
ATOM     13  C   UNL     1       3.466   6.828   0.000  0.00  0.00    +0.022 C 
ATOM     14  C   UNL     1       3.466   6.003   0.000  0.00  0.00    +0.015 C 
ATOM     19  C   UNL     1       2.751   5.590   0.000  0.00  0.00    +0.022 C 
ATOM     30  C   UNL     1       2.037   6.003   0.000  0.00  0.00    +0.094 C 
ENDROOT
BRANCH   9   6
ATOM      3  C   UNL     1       1.322   9.715   0.000  0.00  0.00    +0.139 A 
ATOM      4  C   UNL     1       2.037   9.303   0.000  0.00  0.00    +0.037 A 
ATOM      5  C   UNL     1       2.037   8.478   0.000  0.00  0.00    +0.008 A 
ATOM      6  C   UNL     1       1.322   8.065   0.000  0.00  0.00    +0.054 A 
ATOM      7  C   UNL     1       0.608   8.478   0.000  0.00  0.00    +0.008 A 
ATOM      8  C   UNL     1       0.608   9.303   0.000  0.00  0.00    +0.037 A 
BRANCH   3   2
ATOM      1  C   UNL     1       0.608  10.953   0.000  0.00  0.00    +0.252 C 
ATOM      2  O   UNL     1       1.322  10.540   0.000  0.00  0.00    -0.471 OA
ENDBRANCH   3   2
ENDBRANCH   9   6
BRANCH  14  15
ATOM     15  C   UNL     1       4.180   5.590   0.000  0.00  0.00    +0.114 C 
BRANCH  15  16
ATOM     16  C   UNL     1       4.895   6.003   0.000  0.00  0.00    +0.365 C 
ATOM     17  O   UNL     1       4.895   6.828   0.000  0.00  0.00    -0.246 OA
ATOM     18  O   UNL     1       5.609   5.590   0.000  0.00  0.00    -0.246 OA
ENDBRANCH  15  16
ENDBRANCH  14  15
BRANCH  19  20
ATOM     20  C   UNL     1       2.751   4.765   0.000  0.00  0.00    +0.019 C 
BRANCH  20  21
ATOM     21  C   UNL     1       3.466   4.353   0.000  0.00  0.00    +0.073 C 
BRANCH  21  22
ATOM     22  N   UNL     1       3.466   3.528   0.000  0.00  0.00    -0.266 NA
ATOM     23  C   UNL     1       2.798   3.043   0.000  0.00  0.00    +0.073 C 
ATOM     24  C   UNL     1       3.053   2.258   0.000  0.00  0.00    +0.019 C 
ATOM     25  C   UNL     1       3.878   2.258   0.000  0.00  0.00    +0.027 C 
ATOM     26  C   UNL     1       4.133   3.043   0.000  0.00  0.00    +0.138 C 
BRANCH  26  27
ATOM     27  C   UNL     1       4.918   3.298   0.000  0.00  0.00    +0.275 C 
ATOM     28  N   UNL     1       5.531   2.746   0.000  0.00  0.00    -0.087 NA
ATOM     29  O   UNL     1       5.089   4.105   0.000  0.00  0.00    -0.270 OA
ENDBRANCH  26  27
ENDBRANCH  21  22
ENDBRANCH  20  21
ENDBRANCH  19  20
TORSDOF 8
