MODEL 1
REMARK VINA RESULT:     -12.4      0.000      0.000
REMARK  Name = 
REMARK  4 active torsions:
REMARK  status: ('A' for Active; 'I' for Inactive)
REMARK    1  A    between atoms: O_2  and  C_3
REMARK    2  A    between atoms: C_5  and  C_9
REMARK    3  A    between atoms: N_11  and  C_12
REMARK    4  A    between atoms: C_18  and  C_19
REMARK                            x       y       z     vdW  Elec       q    Type
REMARK                         _______ _______ _______ _____ _____    ______ ____
ROOT
ATOM     12  C   UNL     1      -4.356   1.397  24.502  0.00  0.00    +0.132 C 
ATOM     13  C   UNL     1      -5.034   1.616  24.916  0.00  0.00    +0.202 C 
ATOM     14  O   UNL     1      -5.622   1.107  25.191  0.00  0.00    -0.219 OA
ATOM     15  C   UNL     1      -5.022   2.436  25.009  0.00  0.00    +0.184 C 
ATOM     16  O   UNL     1      -5.595   2.891  25.391  0.00  0.00    -0.220 OA
ATOM     17  C   UNL     1      -4.336   2.723  24.651  0.00  0.00    +0.042 C 
ATOM     18  C   UNL     1      -3.924   2.080  24.337  0.00  0.00    +0.047 C 
ENDROOT
BRANCH  18  19
ATOM     19  C   UNL     1      -3.207   2.116  23.931  0.00  0.00    -0.025 A 
ATOM     20  C   UNL     1      -3.168   1.889  23.140  0.00  0.00    -0.005 A 
ATOM     21  C   UNL     1      -2.451   1.925  22.734  0.00  0.00    -0.000 A 
ATOM     22  C   UNL     1      -1.771   2.188  23.121  0.00  0.00    -0.000 A 
ATOM     23  C   UNL     1      -1.810   2.415  23.913  0.00  0.00    -0.005 A 
ATOM     24  C   UNL     1      -2.527   2.379  24.320  0.00  0.00    -0.026 A 
ATOM     25  C   UNL     1      -2.565   2.606  25.112  0.00  0.00    +0.031 C 
ENDBRANCH  18  19
BRANCH  12  11
ATOM      9  C   UNL     1      -4.206   0.016  24.839  0.00  0.00    +0.265 C 
ATOM     10  O   UNL     1      -4.476   0.173  25.602  0.00  0.00    -0.268 OA
ATOM     11  N   UNL     1      -4.146   0.627  24.289  0.00  0.00    -0.200 NA
BRANCH   9   5
ATOM      3  C   UNL     1      -3.115  -1.871  24.739  0.00  0.00    +0.139 A 
ATOM      4  C   UNL     1      -3.324  -1.103  24.952  0.00  0.00    +0.041 A 
ATOM      5  C   UNL     1      -3.996  -0.753  24.626  0.00  0.00    +0.058 A 
ATOM      6  C   UNL     1      -4.458  -1.173  24.087  0.00  0.00    +0.005 A 
ATOM      7  C   UNL     1      -4.249  -1.941  23.874  0.00  0.00    +0.003 A 
ATOM      8  C   UNL     1      -3.577  -2.291  24.200  0.00  0.00    +0.037 A 
BRANCH   3   2
ATOM      1  C   UNL     1      -1.752  -2.287  24.618  0.00  0.00    +0.252 C 
ATOM      2  O   UNL     1      -2.442  -2.221  25.066  0.00  0.00    -0.471 OA
ENDBRANCH   3   2
ENDBRANCH   9   5
ENDBRANCH  12  11
TORSDOF 4
ENDMDL
MODEL 2
REMARK VINA RESULT:     -12.1      1.495      2.450
REMARK  Name = 
REMARK  4 active torsions:
REMARK  status: ('A' for Active; 'I' for Inactive)
REMARK    1  A    between atoms: O_2  and  C_3
REMARK    2  A    between atoms: C_5  and  C_9
REMARK    3  A    between atoms: N_11  and  C_12
REMARK    4  A    between atoms: C_18  and  C_19
REMARK                            x       y       z     vdW  Elec       q    Type
REMARK                         _______ _______ _______ _____ _____    ______ ____
ROOT
ATOM     12  C   UNL     1      -3.731   1.598  23.972  0.00  0.00    +0.132 C 
ATOM     13  C   UNL     1      -3.179   1.794  23.392  0.00  0.00    +0.202 C 
ATOM     14  O   UNL     1      -2.652   1.275  23.027  0.00  0.00    -0.219 OA
ATOM     15  C   UNL     1      -3.245   2.603  23.242  0.00  0.00    +0.184 C 
ATOM     16  O   UNL     1      -2.796   3.034  22.699  0.00  0.00    -0.220 OA
ATOM     17  C   UNL     1      -3.838   2.905  23.728  0.00  0.00    +0.042 C 
ATOM     18  C   UNL     1      -4.139   2.283  24.180  0.00  0.00    +0.047 C 
ENDROOT
BRANCH  18  19
ATOM     19  C   UNL     1      -4.742   2.339  24.740  0.00  0.00    -0.025 A 
ATOM     20  C   UNL     1      -5.431   1.896  24.653  0.00  0.00    -0.005 A 
ATOM     21  C   UNL     1      -6.033   1.952  25.213  0.00  0.00    -0.000 A 
ATOM     22  C   UNL     1      -5.946   2.453  25.862  0.00  0.00    -0.000 A 
ATOM     23  C   UNL     1      -5.257   2.897  25.951  0.00  0.00    -0.005 A 
ATOM     24  C   UNL     1      -4.654   2.841  25.390  0.00  0.00    -0.026 A 
ATOM     25  C   UNL     1      -3.965   3.286  25.479  0.00  0.00    +0.031 C 
ENDBRANCH  18  19
BRANCH  12  11
ATOM      9  C   UNL     1      -3.210   0.376  24.499  0.00  0.00    +0.265 C 
ATOM     10  O   UNL     1      -2.442   0.657  24.393  0.00  0.00    -0.268 OA
ATOM     11  N   UNL     1      -3.854   0.845  24.288  0.00  0.00    -0.200 NA
BRANCH   9   5
ATOM      3  C   UNL     1      -3.740  -1.736  24.652  0.00  0.00    +0.139 A 
ATOM      4  C   UNL     1      -3.617  -0.985  24.336  0.00  0.00    +0.041 A 
ATOM      5  C   UNL     1      -3.333  -0.376  24.815  0.00  0.00    +0.058 A 
ATOM      6  C   UNL     1      -3.172  -0.521  25.611  0.00  0.00    +0.005 A 
ATOM      7  C   UNL     1      -3.296  -1.272  25.928  0.00  0.00    +0.003 A 
ATOM      8  C   UNL     1      -3.580  -1.880  25.448  0.00  0.00    +0.037 A 
BRANCH   3   2
ATOM      1  C   UNL     1      -3.642  -3.075  24.162  0.00  0.00    +0.252 C 
ATOM      2  O   UNL     1      -4.025  -2.344  24.172  0.00  0.00    -0.471 OA
ENDBRANCH   3   2
ENDBRANCH   9   5
ENDBRANCH  12  11
TORSDOF 4
ENDMDL
MODEL 3
REMARK VINA RESULT:     -12.0      1.676      3.495
REMARK  Name = 
REMARK  4 active torsions:
REMARK  status: ('A' for Active; 'I' for Inactive)
REMARK    1  A    between atoms: O_2  and  C_3
REMARK    2  A    between atoms: C_5  and  C_9
REMARK    3  A    between atoms: N_11  and  C_12
REMARK    4  A    between atoms: C_18  and  C_19
REMARK                            x       y       z     vdW  Elec       q    Type
REMARK                         _______ _______ _______ _____ _____    ______ ____
ROOT
ATOM     12  C   UNL     1      -3.642   0.799  24.953  0.00  0.00    +0.132 C 
ATOM     13  C   UNL     1      -4.126   1.463  24.886  0.00  0.00    +0.202 C 
ATOM     14  O   UNL     1      -3.873   2.247  24.847  0.00  0.00    -0.219 OA
ATOM     15  C   UNL     1      -4.910   1.205  24.865  0.00  0.00    +0.184 C 
ATOM     16  O   UNL     1      -5.578   1.686  24.800  0.00  0.00    -0.220 OA
ATOM     17  C   UNL     1      -4.909   0.382  24.919  0.00  0.00    +0.042 C 
ATOM     18  C   UNL     1      -4.125   0.131  24.974  0.00  0.00    +0.047 C 
ENDROOT
BRANCH  18  19
ATOM     19  C   UNL     1      -3.871  -0.652  25.038  0.00  0.00    -0.025 A 
ATOM     20  C   UNL     1      -3.494  -0.909  25.724  0.00  0.00    -0.005 A 
ATOM     21  C   UNL     1      -3.240  -1.691  25.788  0.00  0.00    -0.000 A 
ATOM     22  C   UNL     1      -3.363  -2.216  25.163  0.00  0.00    -0.000 A 
ATOM     23  C   UNL     1      -3.740  -1.959  24.476  0.00  0.00    -0.005 A 
ATOM     24  C   UNL     1      -3.994  -1.177  24.412  0.00  0.00    -0.026 A 
ATOM     25  C   UNL     1      -4.371  -0.920  23.725  0.00  0.00    +0.031 C 
ENDBRANCH  18  19
BRANCH  12  11
ATOM      9  C   UNL     1      -2.382   1.283  24.484  0.00  0.00    +0.265 C 
ATOM     10  O   UNL     1      -2.770   1.760  23.935  0.00  0.00    -0.268 OA
ATOM     11  N   UNL     1      -2.817   0.803  24.993  0.00  0.00    -0.200 NA
BRANCH   9   5
ATOM      3  C   UNL     1      -0.291   0.943  23.961  0.00  0.00    +0.139 A 
ATOM      4  C   UNL     1      -1.114   0.940  23.921  0.00  0.00    +0.041 A 
ATOM      5  C   UNL     1      -1.558   1.286  24.524  0.00  0.00    +0.058 A 
ATOM      6  C   UNL     1      -1.177   1.636  25.167  0.00  0.00    +0.005 A 
ATOM      7  C   UNL     1      -0.354   1.639  25.207  0.00  0.00    +0.003 A 
ATOM      8  C   UNL     1       0.090   1.293  24.604  0.00  0.00    +0.037 A 
BRANCH   3   2
ATOM      1  C   UNL     1       0.499  -0.144  23.473  0.00  0.00    +0.252 C 
ATOM      2  O   UNL     1       0.153   0.597  23.358  0.00  0.00    -0.471 OA
ENDBRANCH   3   2
ENDBRANCH   9   5
ENDBRANCH  12  11
TORSDOF 4
ENDMDL
MODEL 4
REMARK VINA RESULT:     -11.8      2.022      3.811
REMARK  Name = 
REMARK  4 active torsions:
REMARK  status: ('A' for Active; 'I' for Inactive)
REMARK    1  A    between atoms: O_2  and  C_3
REMARK    2  A    between atoms: C_5  and  C_9
REMARK    3  A    between atoms: N_11  and  C_12
REMARK    4  A    between atoms: C_18  and  C_19
REMARK                            x       y       z     vdW  Elec       q    Type
REMARK                         _______ _______ _______ _____ _____    ______ ____
ROOT
ATOM     12  C   UNL     1      -4.168   2.868  25.006  0.00  0.00    +0.132 C 
ATOM     13  C   UNL     1      -4.762   3.322  25.351  0.00  0.00    +0.202 C 
ATOM     14  O   UNL     1      -4.673   4.076  25.673  0.00  0.00    -0.219 OA
ATOM     15  C   UNL     1      -5.465   2.889  25.318  0.00  0.00    +0.184 C 
ATOM     16  O   UNL     1      -6.200   3.135  25.601  0.00  0.00    -0.220 OA
ATOM     17  C   UNL     1      -5.303   2.168  24.952  0.00  0.00    +0.042 C 
ATOM     18  C   UNL     1      -4.500   2.154  24.759  0.00  0.00    +0.047 C 
ENDROOT
BRANCH  18  19
ATOM     19  C   UNL     1      -4.103   1.535  24.385  0.00  0.00    -0.025 A 
ATOM     20  C   UNL     1      -3.694   1.671  23.683  0.00  0.00    -0.005 A 
ATOM     21  C   UNL     1      -3.297   1.053  23.310  0.00  0.00    -0.000 A 
ATOM     22  C   UNL     1      -3.309   0.296  23.640  0.00  0.00    -0.000 A 
ATOM     23  C   UNL     1      -3.718   0.160  24.343  0.00  0.00    -0.005 A 
ATOM     24  C   UNL     1      -4.115   0.779  24.716  0.00  0.00    -0.026 A 
ATOM     25  C   UNL     1      -4.524   0.642  25.420  0.00  0.00    +0.031 C 
ENDBRANCH  18  19
BRANCH  12  11
ATOM      9  C   UNL     1      -2.981   3.453  25.546  0.00  0.00    +0.265 C 
ATOM     10  O   UNL     1      -3.376   3.597  26.255  0.00  0.00    -0.268 OA
ATOM     11  N   UNL     1      -3.376   3.088  24.921  0.00  0.00    -0.200 NA
BRANCH   9   5
ATOM      3  C   UNL     1      -0.802   3.392  25.644  0.00  0.00    +0.139 A 
ATOM      4  C   UNL     1      -1.592   3.172  25.728  0.00  0.00    +0.041 A 
ATOM      5  C   UNL     1      -2.191   3.673  25.462  0.00  0.00    +0.058 A 
ATOM      6  C   UNL     1      -1.998   4.394  25.111  0.00  0.00    +0.005 A 
ATOM      7  C   UNL     1      -1.208   4.614  25.027  0.00  0.00    +0.003 A 
ATOM      8  C   UNL     1      -0.609   4.113  25.293  0.00  0.00    +0.037 A 
BRANCH   3   2
ATOM      1  C   UNL     1       0.066   2.276  25.429  0.00  0.00    +0.252 C 
ATOM      2  O   UNL     1      -0.203   2.890  25.910  0.00  0.00    -0.471 OA
ENDBRANCH   3   2
ENDBRANCH   9   5
ENDBRANCH  12  11
TORSDOF 4
ENDMDL
MODEL 5
REMARK VINA RESULT:     -11.5      1.751      4.346
REMARK  Name = 
REMARK  4 active torsions:
REMARK  status: ('A' for Active; 'I' for Inactive)
REMARK    1  A    between atoms: O_2  and  C_3
REMARK    2  A    between atoms: C_5  and  C_9
REMARK    3  A    between atoms: N_11  and  C_12
REMARK    4  A    between atoms: C_18  and  C_19
REMARK                            x       y       z     vdW  Elec       q    Type
REMARK                         _______ _______ _______ _____ _____    ______ ____
ROOT
ATOM     12  C   UNL     1      -1.871   0.509  24.269  0.00  0.00    +0.132 C 
ATOM     13  C   UNL     1      -1.078   0.689  24.132  0.00  0.00    +0.202 C 
ATOM     14  O   UNL     1      -0.779   1.422  23.900  0.00  0.00    -0.219 OA
ATOM     15  C   UNL     1      -0.635   0.006  24.268  0.00  0.00    +0.184 C 
ATOM     16  O   UNL     1       0.184  -0.063  24.196  0.00  0.00    -0.220 OA
ATOM     17  C   UNL     1      -1.155  -0.595  24.489  0.00  0.00    +0.042 C 
ATOM     18  C   UNL     1      -1.919  -0.284  24.490  0.00  0.00    +0.047 C 
ENDROOT
BRANCH  18  19
ATOM     19  C   UNL     1      -2.609  -0.696  24.678  0.00  0.00    -0.025 A 
ATOM     20  C   UNL     1      -3.196  -0.801  24.109  0.00  0.00    -0.005 A 
ATOM     21  C   UNL     1      -3.885  -1.212  24.297  0.00  0.00    -0.000 A 
ATOM     22  C   UNL     1      -3.988  -1.519  25.056  0.00  0.00    -0.000 A 
ATOM     23  C   UNL     1      -3.401  -1.414  25.626  0.00  0.00    -0.005 A 
ATOM     24  C   UNL     1      -2.711  -1.002  25.438  0.00  0.00    -0.026 A 
ATOM     25  C   UNL     1      -2.124  -0.897  26.008  0.00  0.00    +0.031 C 
ENDBRANCH  18  19
BRANCH  12  11
ATOM      9  C   UNL     1      -2.458   1.786  24.527  0.00  0.00    +0.265 C 
ATOM     10  O   UNL     1      -1.776   2.019  24.928  0.00  0.00    -0.268 OA
ATOM     11  N   UNL     1      -2.506   1.032  24.198  0.00  0.00    -0.200 NA
BRANCH   9   5
ATOM      3  C   UNL     1      -4.159   3.049  25.053  0.00  0.00    +0.139 A 
ATOM      4  C   UNL     1      -3.525   2.527  25.124  0.00  0.00    +0.041 A 
ATOM      5  C   UNL     1      -3.093   2.308  24.456  0.00  0.00    +0.058 A 
ATOM      6  C   UNL     1      -3.296   2.613  23.717  0.00  0.00    +0.005 A 
ATOM      7  C   UNL     1      -3.930   3.135  23.646  0.00  0.00    +0.003 A 
ATOM      8  C   UNL     1      -4.362   3.353  24.314  0.00  0.00    +0.037 A 
BRANCH   3   2
ATOM      1  C   UNL     1      -5.409   3.164  25.736  0.00  0.00    +0.252 C 
ATOM      2  O   UNL     1      -4.591   3.267  25.722  0.00  0.00    -0.471 OA
ENDBRANCH   3   2
ENDBRANCH   9   5
ENDBRANCH  12  11
TORSDOF 4
ENDMDL
MODEL 6
REMARK VINA RESULT:     -11.4      1.819      2.778
REMARK  Name = 
REMARK  4 active torsions:
REMARK  status: ('A' for Active; 'I' for Inactive)
REMARK    1  A    between atoms: O_2  and  C_3
REMARK    2  A    between atoms: C_5  and  C_9
REMARK    3  A    between atoms: N_11  and  C_12
REMARK    4  A    between atoms: C_18  and  C_19
REMARK                            x       y       z     vdW  Elec       q    Type
REMARK                         _______ _______ _______ _____ _____    ______ ____
ROOT
ATOM     12  C   UNL     1      -1.961   1.991  24.788  0.00  0.00    +0.132 C 
ATOM     13  C   UNL     1      -1.154   1.985  24.622  0.00  0.00    +0.202 C 
ATOM     14  O   UNL     1      -0.659   1.325  24.641  0.00  0.00    -0.219 OA
ATOM     15  C   UNL     1      -0.927   2.756  24.434  0.00  0.00    +0.184 C 
ATOM     16  O   UNL     1      -0.166   3.002  24.231  0.00  0.00    -0.220 OA
ATOM     17  C   UNL     1      -1.595   3.237  24.484  0.00  0.00    +0.042 C 
ATOM     18  C   UNL     1      -2.235   2.764  24.703  0.00  0.00    +0.047 C 
ENDROOT
BRANCH  18  19
ATOM     19  C   UNL     1      -3.011   3.021  24.816  0.00  0.00    -0.025 A 
ATOM     20  C   UNL     1      -3.580   2.886  24.236  0.00  0.00    -0.005 A 
ATOM     21  C   UNL     1      -4.355   3.143  24.349  0.00  0.00    -0.000 A 
ATOM     22  C   UNL     1      -4.561   3.536  25.044  0.00  0.00    -0.000 A 
ATOM     23  C   UNL     1      -3.992   3.672  25.625  0.00  0.00    -0.005 A 
ATOM     24  C   UNL     1      -3.216   3.415  25.512  0.00  0.00    -0.026 A 
ATOM     25  C   UNL     1      -2.647   3.552  26.093  0.00  0.00    +0.031 C 
ENDBRANCH  18  19
BRANCH  12  11
ATOM      9  C   UNL     1      -2.340   0.627  24.589  0.00  0.00    +0.265 C 
ATOM     10  O   UNL     1      -1.808   0.571  23.962  0.00  0.00    -0.268 OA
ATOM     11  N   UNL     1      -2.417   1.336  25.002  0.00  0.00    -0.200 NA
BRANCH   9   5
ATOM      3  C   UNL     1      -3.761  -1.025  24.469  0.00  0.00    +0.139 A 
ATOM      4  C   UNL     1      -3.306  -0.372  24.255  0.00  0.00    +0.041 A 
ATOM      5  C   UNL     1      -2.795  -0.027  24.803  0.00  0.00    +0.058 A 
ATOM      6  C   UNL     1      -2.741  -0.336  25.566  0.00  0.00    +0.005 A 
ATOM      7  C   UNL     1      -3.196  -0.989  25.780  0.00  0.00    +0.003 A 
ATOM      8  C   UNL     1      -3.706  -1.334  25.232  0.00  0.00    +0.037 A 
BRANCH   3   2
ATOM      1  C   UNL     1      -4.301  -2.191  23.843  0.00  0.00    +0.252 C 
ATOM      2  O   UNL     1      -4.271  -1.370  23.919  0.00  0.00    -0.471 OA
ENDBRANCH   3   2
ENDBRANCH   9   5
ENDBRANCH  12  11
TORSDOF 4
ENDMDL
