MODEL 1
REMARK VINA RESULT:     -16.1      0.000      0.000
REMARK  Name = 
REMARK  3 active torsions:
REMARK  status: ('A' for Active; 'I' for Inactive)
REMARK    1  A    between atoms: C_2  and  C_25
REMARK    2  A    between atoms: C_10  and  C_17
REMARK    3  A    between atoms: C_19  and  C_23
REMARK                            x       y       z     vdW  Elec       q    Type
REMARK                         _______ _______ _______ _____ _____    ______ ____
ROOT
ATOM      1  O   UNL     1      -3.893   4.095  24.246  0.00  0.00    -0.267 OA
ATOM      2  C   UNL     1      -3.989   3.235  24.436  0.00  0.00    +0.284 C 
ATOM      3  N   UNL     1      -3.330   2.699  24.288  0.00  0.00    -0.273 N 
ATOM      4  C   UNL     1      -2.548   2.574  24.020  0.00  0.00    +0.096 C 
ATOM      5  C   UNL     1      -2.476   1.600  24.169  0.00  0.00    +0.043 C 
ATOM      6  C   UNL     1      -2.260   0.817  24.229  0.00  0.00    +0.011 C 
ATOM      7  C   UNL     1      -2.824   1.212  24.367  0.00  0.00    +0.058 C 
ATOM      8  C   UNL     1      -2.878   2.153  24.218  0.00  0.00    +0.100 C 
ATOM      9  C   UNL     1      -3.680   1.155  24.695  0.00  0.00    +0.041 A 
ATOM     10  C   UNL     1      -4.217   0.604  24.993  0.00  0.00    +0.012 A 
ATOM     11  C   UNL     1      -4.969   0.847  25.228  0.00  0.00    +0.006 A 
ATOM     12  C   UNL     1      -5.185   1.641  25.166  0.00  0.00    +0.061 A 
ATOM     13  C   UNL     1      -4.649   2.192  24.868  0.00  0.00    +0.261 A 
ATOM     14  O   UNL     1      -4.727   3.212  24.714  0.00  0.00    -0.267 OA
ATOM     15  N   UNL     1      -3.896   1.949  24.632  0.00  0.00    -0.299 N 
ATOM     16  C   UNL     1      -3.372   1.551  24.510  0.00  0.00    +0.110 C 
ENDROOT
BRANCH  10  17
ATOM     17  C   UNL     1      -4.001  -0.190  25.056  0.00  0.00    +0.002 A 
ATOM     18  C   UNL     1      -4.192  -0.718  24.451  0.00  0.00    +0.010 A 
ATOM     19  C   UNL     1      -3.976  -1.512  24.514  0.00  0.00    +0.068 A 
ATOM     20  C   UNL     1      -3.570  -1.778  25.181  0.00  0.00    +0.010 A 
ATOM     21  C   UNL     1      -3.379  -1.250  25.785  0.00  0.00    +0.001 A 
ATOM     22  C   UNL     1      -3.595  -0.456  25.722  0.00  0.00    +0.000 A 
BRANCH  19  23
ATOM     23  C   UNL     1      -4.156  -2.088  23.908  0.00  0.00    +0.100 C 
ATOM     24  N   UNL     1      -4.330  -2.702  23.362  0.00  0.00    -0.191 NA
ENDBRANCH  19  23
ENDBRANCH  10  17
BRANCH   2  25
ATOM     25  C   UNL     1      -4.670   2.696  24.785  0.00  0.00    +0.199 A 
ATOM     26  C   UNL     1      -5.205   2.186  24.420  0.00  0.00    +0.045 A 
ATOM     27  C   UNL     1      -5.682   1.855  25.006  0.00  0.00    +0.044 A 
ATOM     28  C   UNL     1      -5.443   2.162  25.733  0.00  0.00    +0.180 A 
ATOM     29  O   UNL     1      -4.816   2.683  25.597  0.00  0.00    -0.446 OA
ENDBRANCH   2  25
TORSDOF 3
ENDMDL
MODEL 2
REMARK VINA RESULT:     -15.8      0.686      1.911
REMARK  Name = 
REMARK  3 active torsions:
REMARK  status: ('A' for Active; 'I' for Inactive)
REMARK    1  A    between atoms: C_2  and  C_25
REMARK    2  A    between atoms: C_10  and  C_17
REMARK    3  A    between atoms: C_19  and  C_23
REMARK                            x       y       z     vdW  Elec       q    Type
REMARK                         _______ _______ _______ _____ _____    ______ ____
ROOT
ATOM      1  O   UNL     1      -4.188   4.034  23.907  0.00  0.00    -0.267 OA
ATOM      2  C   UNL     1      -3.970   3.183  24.024  0.00  0.00    +0.284 C 
ATOM      3  N   UNL     1      -4.507   2.672  24.463  0.00  0.00    -0.273 N 
ATOM      4  C   UNL     1      -5.221   2.569  24.885  0.00  0.00    +0.096 C 
ATOM      5  C   UNL     1      -5.143   1.609  25.109  0.00  0.00    +0.043 C 
ATOM      6  C   UNL     1      -5.230   0.843  25.370  0.00  0.00    +0.011 C 
ATOM      7  C   UNL     1      -4.760   1.217  25.007  0.00  0.00    +0.058 C 
ATOM      8  C   UNL     1      -4.850   2.145  24.798  0.00  0.00    +0.100 C 
ATOM      9  C   UNL     1      -3.949   1.139  24.582  0.00  0.00    +0.041 A 
ATOM     10  C   UNL     1      -3.365   0.582  24.415  0.00  0.00    +0.012 A 
ATOM     11  C   UNL     1      -2.696   0.802  23.986  0.00  0.00    +0.006 A 
ATOM     12  C   UNL     1      -2.612   1.580  23.723  0.00  0.00    +0.061 A 
ATOM     13  C   UNL     1      -3.196   2.137  23.889  0.00  0.00    +0.261 A 
ATOM     14  O   UNL     1      -3.275   3.142  23.653  0.00  0.00    -0.267 OA
ATOM     15  N   UNL     1      -3.865   1.917  24.319  0.00  0.00    -0.299 N 
ATOM     16  C   UNL     1      -4.297   1.538  24.663  0.00  0.00    +0.110 C 
ENDROOT
BRANCH  10  17
ATOM     17  C   UNL     1      -3.449  -0.196  24.678  0.00  0.00    +0.002 A 
ATOM     18  C   UNL     1      -3.773  -0.767  24.180  0.00  0.00    +0.010 A 
ATOM     19  C   UNL     1      -3.857  -1.544  24.443  0.00  0.00    +0.068 A 
ATOM     20  C   UNL     1      -3.617  -1.751  25.204  0.00  0.00    +0.010 A 
ATOM     21  C   UNL     1      -3.292  -1.180  25.703  0.00  0.00    +0.001 A 
ATOM     22  C   UNL     1      -3.208  -0.402  25.440  0.00  0.00    +0.000 A 
BRANCH  19  23
ATOM     23  C   UNL     1      -4.189  -2.163  23.955  0.00  0.00    +0.100 C 
ATOM     24  N   UNL     1      -4.453  -2.800  23.474  0.00  0.00    -0.191 NA
ENDBRANCH  19  23
ENDBRANCH  10  17
BRANCH   2  25
ATOM     25  C   UNL     1      -3.251   2.634  23.781  0.00  0.00    +0.199 A 
ATOM     26  C   UNL     1      -3.161   2.091  23.168  0.00  0.00    +0.045 A 
ATOM     27  C   UNL     1      -2.405   1.767  23.223  0.00  0.00    +0.044 A 
ATOM     28  C   UNL     1      -2.027   2.110  23.871  0.00  0.00    +0.180 A 
ATOM     29  O   UNL     1      -2.551   2.647  24.217  0.00  0.00    -0.446 OA
ENDBRANCH   2  25
TORSDOF 3
ENDMDL
MODEL 3
REMARK VINA RESULT:     -14.9      2.185      3.842
REMARK  Name = 
REMARK  3 active torsions:
REMARK  status: ('A' for Active; 'I' for Inactive)
REMARK    1  A    between atoms: C_2  and  C_25
REMARK    2  A    between atoms: C_10  and  C_17
REMARK    3  A    between atoms: C_19  and  C_23
REMARK                            x       y       z     vdW  Elec       q    Type
REMARK                         _______ _______ _______ _____ _____    ______ ____
ROOT
ATOM      1  O   UNL     1      -1.480  -2.432  25.065  0.00  0.00    -0.267 OA
ATOM      2  C   UNL     1      -2.033  -1.757  24.915  0.00  0.00    +0.284 C 
ATOM      3  N   UNL     1      -1.751  -0.951  25.035  0.00  0.00    -0.273 N 
ATOM      4  C   UNL     1      -1.136  -0.427  25.249  0.00  0.00    +0.096 C 
ATOM      5  C   UNL     1      -1.605   0.434  25.133  0.00  0.00    +0.043 C 
ATOM      6  C   UNL     1      -1.844   1.212  25.087  0.00  0.00    +0.011 C 
ATOM      7  C   UNL     1      -2.121   0.577  24.976  0.00  0.00    +0.058 C 
ATOM      8  C   UNL     1      -1.654  -0.248  25.092  0.00  0.00    +0.100 C 
ATOM      9  C   UNL     1      -2.900   0.166  24.714  0.00  0.00    +0.041 A 
ATOM     10  C   UNL     1      -3.670   0.344  24.478  0.00  0.00    +0.012 A 
ATOM     11  C   UNL     1      -4.195  -0.264  24.290  0.00  0.00    +0.006 A 
ATOM     12  C   UNL     1      -3.950  -1.050  24.337  0.00  0.00    +0.061 A 
ATOM     13  C   UNL     1      -3.180  -1.228  24.574  0.00  0.00    +0.261 A 
ATOM     14  O   UNL     1      -2.691  -2.133  24.694  0.00  0.00    -0.267 OA
ATOM     15  N   UNL     1      -2.655  -0.620  24.762  0.00  0.00    -0.299 N 
ATOM     16  C   UNL     1      -2.415  -0.003  24.861  0.00  0.00    +0.110 C 
ENDROOT
BRANCH  10  17
ATOM     17  C   UNL     1      -3.915   1.131  24.430  0.00  0.00    +0.002 A 
ATOM     18  C   UNL     1      -4.367   1.460  25.037  0.00  0.00    +0.010 A 
ATOM     19  C   UNL     1      -4.612   2.246  24.990  0.00  0.00    +0.068 A 
ATOM     20  C   UNL     1      -4.406   2.704  24.335  0.00  0.00    +0.010 A 
ATOM     21  C   UNL     1      -3.955   2.375  23.728  0.00  0.00    +0.001 A 
ATOM     22  C   UNL     1      -3.709   1.588  23.775  0.00  0.00    +0.000 A 
BRANCH  19  23
ATOM     23  C   UNL     1      -5.080   2.621  25.599  0.00  0.00    +0.100 C 
ATOM     24  N   UNL     1      -5.597   2.968  26.164  0.00  0.00    -0.191 NA
ENDBRANCH  19  23
ENDBRANCH  10  17
BRANCH   2  25
ATOM     25  C   UNL     1      -2.923  -1.666  24.638  0.00  0.00    +0.199 A 
ATOM     26  C   UNL     1      -3.616  -1.527  25.062  0.00  0.00    +0.045 A 
ATOM     27  C   UNL     1      -4.242  -1.500  24.525  0.00  0.00    +0.044 A 
ATOM     28  C   UNL     1      -3.936  -1.623  23.769  0.00  0.00    +0.180 A 
ATOM     29  O   UNL     1      -3.119  -1.726  23.839  0.00  0.00    -0.446 OA
ENDBRANCH   2  25
TORSDOF 3
ENDMDL
MODEL 4
REMARK VINA RESULT:     -14.8      2.198      4.130
REMARK  Name = 
REMARK  3 active torsions:
REMARK  status: ('A' for Active; 'I' for Inactive)
REMARK    1  A    between atoms: C_2  and  C_25
REMARK    2  A    between atoms: C_10  and  C_17
REMARK    3  A    between atoms: C_19  and  C_23
REMARK                            x       y       z     vdW  Elec       q    Type
REMARK                         _______ _______ _______ _____ _____    ______ ____
ROOT
ATOM      1  O   UNL     1      -1.677  -2.624  24.852  0.00  0.00    -0.267 OA
ATOM      2  C   UNL     1      -1.960  -1.786  24.805  0.00  0.00    +0.284 C 
ATOM      3  N   UNL     1      -2.770  -1.633  24.552  0.00  0.00    -0.273 N 
ATOM      4  C   UNL     1      -3.512  -1.920  24.296  0.00  0.00    +0.096 C 
ATOM      5  C   UNL     1      -3.992  -1.064  24.187  0.00  0.00    +0.043 C 
ATOM      6  C   UNL     1      -4.518  -0.457  24.050  0.00  0.00    +0.011 C 
ATOM      7  C   UNL     1      -3.852  -0.529  24.261  0.00  0.00    +0.058 C 
ATOM      8  C   UNL     1      -3.402  -1.365  24.362  0.00  0.00    +0.100 C 
ATOM      9  C   UNL     1      -3.122  -0.037  24.524  0.00  0.00    +0.041 A 
ATOM     10  C   UNL     1      -2.886   0.745  24.642  0.00  0.00    +0.012 A 
ATOM     11  C   UNL     1      -2.119   0.908  24.899  0.00  0.00    +0.006 A 
ATOM     12  C   UNL     1      -1.589   0.291  25.037  0.00  0.00    +0.061 A 
ATOM     13  C   UNL     1      -1.826  -0.490  24.919  0.00  0.00    +0.261 A 
ATOM     14  O   UNL     1      -1.320  -1.385  25.034  0.00  0.00    -0.267 OA
ATOM     15  N   UNL     1      -2.592  -0.654  24.662  0.00  0.00    -0.299 N 
ATOM     16  C   UNL     1      -3.224  -0.558  24.463  0.00  0.00    +0.110 C 
ENDROOT
BRANCH  10  17
ATOM     17  C   UNL     1      -3.416   1.362  24.504  0.00  0.00    +0.002 A 
ATOM     18  C   UNL     1      -3.907   1.627  25.111  0.00  0.00    +0.010 A 
ATOM     19  C   UNL     1      -4.437   2.244  24.973  0.00  0.00    +0.068 A 
ATOM     20  C   UNL     1      -4.475   2.596  24.227  0.00  0.00    +0.010 A 
ATOM     21  C   UNL     1      -3.984   2.331  23.620  0.00  0.00    +0.001 A 
ATOM     22  C   UNL     1      -3.454   1.713  23.759  0.00  0.00    +0.000 A 
BRANCH  19  23
ATOM     23  C   UNL     1      -4.961   2.546  25.577  0.00  0.00    +0.100 C 
ATOM     24  N   UNL     1      -5.529   2.817  26.134  0.00  0.00    -0.191 NA
ENDBRANCH  19  23
ENDBRANCH  10  17
BRANCH   2  25
ATOM     25  C   UNL     1      -1.591  -0.941  24.970  0.00  0.00    +0.199 A 
ATOM     26  C   UNL     1      -1.650  -0.436  25.619  0.00  0.00    +0.045 A 
ATOM     27  C   UNL     1      -1.205   0.239  25.457  0.00  0.00    +0.044 A 
ATOM     28  C   UNL     1      -0.870   0.151  24.708  0.00  0.00    +0.180 A 
ATOM     29  O   UNL     1      -1.109  -0.580  24.407  0.00  0.00    -0.446 OA
ENDBRANCH   2  25
TORSDOF 3
ENDMDL
MODEL 5
REMARK VINA RESULT:     -14.4      1.437      3.199
REMARK  Name = 
REMARK  3 active torsions:
REMARK  status: ('A' for Active; 'I' for Inactive)
REMARK    1  A    between atoms: C_2  and  C_25
REMARK    2  A    between atoms: C_10  and  C_17
REMARK    3  A    between atoms: C_19  and  C_23
REMARK                            x       y       z     vdW  Elec       q    Type
REMARK                         _______ _______ _______ _____ _____    ______ ____
ROOT
ATOM      1  O   UNL     1      -6.230   1.580  25.076  0.00  0.00    -0.267 OA
ATOM      2  C   UNL     1      -5.389   1.851  25.023  0.00  0.00    +0.284 C 
ATOM      3  N   UNL     1      -4.769   1.265  24.897  0.00  0.00    -0.273 N 
ATOM      4  C   UNL     1      -4.541   0.469  24.786  0.00  0.00    +0.096 C 
ATOM      5  C   UNL     1      -3.564   0.587  24.702  0.00  0.00    +0.043 C 
ATOM      6  C   UNL     1      -2.757   0.515  24.615  0.00  0.00    +0.011 C 
ATOM      7  C   UNL     1      -3.224   1.029  24.718  0.00  0.00    +0.058 C 
ATOM      8  C   UNL     1      -4.167   0.899  24.797  0.00  0.00    +0.100 C 
ATOM      9  C   UNL     1      -3.281   1.940  24.825  0.00  0.00    +0.041 A 
ATOM     10  C   UNL     1      -2.805   2.613  24.852  0.00  0.00    +0.012 A 
ATOM     11  C   UNL     1      -3.146   3.355  24.968  0.00  0.00    +0.006 A 
ATOM     12  C   UNL     1      -3.964   3.424  25.057  0.00  0.00    +0.061 A 
ATOM     13  C   UNL     1      -4.440   2.751  25.029  0.00  0.00    +0.261 A 
ATOM     14  O   UNL     1      -5.464   2.631  25.117  0.00  0.00    -0.267 OA
ATOM     15  N   UNL     1      -4.099   2.009  24.913  0.00  0.00    -0.299 N 
ATOM     16  C   UNL     1      -3.633   1.538  24.815  0.00  0.00    +0.110 C 
ENDROOT
BRANCH  10  17
ATOM     17  C   UNL     1      -1.988   2.544  24.764  0.00  0.00    +0.002 A 
ATOM     18  C   UNL     1      -1.500   2.533  25.429  0.00  0.00    +0.010 A 
ATOM     19  C   UNL     1      -0.683   2.463  25.341  0.00  0.00    +0.068 A 
ATOM     20  C   UNL     1      -0.353   2.405  24.587  0.00  0.00    +0.010 A 
ATOM     21  C   UNL     1      -0.840   2.417  23.922  0.00  0.00    +0.001 A 
ATOM     22  C   UNL     1      -1.657   2.486  24.010  0.00  0.00    +0.000 A 
BRANCH  19  23
ATOM     23  C   UNL     1      -0.147   2.448  26.006  0.00  0.00    +0.100 C 
ATOM     24  N   UNL     1       0.404   2.495  26.640  0.00  0.00    -0.191 NA
ENDBRANCH  19  23
ENDBRANCH  10  17
BRANCH   2  25
ATOM     25  C   UNL     1      -4.944   2.674  25.071  0.00  0.00    +0.199 A 
ATOM     26  C   UNL     1      -4.641   3.166  24.483  0.00  0.00    +0.045 A 
ATOM     27  C   UNL     1      -4.305   3.824  24.850  0.00  0.00    +0.044 A 
ATOM     28  C   UNL     1      -4.400   3.738  25.664  0.00  0.00    +0.180 A 
ATOM     29  O   UNL     1      -4.796   3.026  25.801  0.00  0.00    -0.446 OA
ENDBRANCH   2  25
TORSDOF 3
ENDMDL
