REMARK  Name = 
REMARK  9 active torsions:
REMARK  status: ('A' for Active; 'I' for Inactive)
REMARK    1  A    between atoms: N_2  and  C_3
REMARK    2  A    between atoms: C_3  and  C_4
REMARK    3  A    between atoms: C_10  and  C_12
REMARK    4  A    between atoms: C_12  and  C_13
REMARK    5  A    between atoms: C_18  and  C_19
REMARK    6  A    between atoms: C_19  and  C_20
REMARK    7  A    between atoms: C_23  and  C_24
REMARK    8  A    between atoms: C_24  and  O_25
REMARK    9  A    between atoms: O_25  and  C_26
REMARK                            x       y       z     vdW  Elec       q    Type
REMARK                         _______ _______ _______ _____ _____    ______ ____
ROOT
ATOM     13  C   UNL     1       2.143  -0.412   0.000  0.00  0.00    +0.012 C 
ATOM     14  C   UNL     1       2.858   0.000   0.000  0.00  0.00    +0.019 C 
ATOM     15  C   UNL     1       3.572  -0.412   0.000  0.00  0.00    +0.089 C 
ATOM     16  N   UNL     1       3.572  -1.238   0.000  0.00  0.00    -0.218 NA
ATOM     17  C   UNL     1       2.858  -1.650   0.000  0.00  0.00    +0.089 C 
ATOM     18  C   UNL     1       2.143  -1.238   0.000  0.00  0.00    +0.024 C 
ENDROOT
BRANCH  13  12
ATOM     12  C   UNL     1       1.429   0.000   0.000  0.00  0.00    +0.085 C 
BRANCH  12  10
ATOM      1  C   UNL     1       2.143   2.062   0.000  0.00  0.00    +0.115 C 
ATOM      2  N   UNL     1       2.143   1.238   0.000  0.00  0.00    -0.274 N 
ATOM     10  C   UNL     1       1.429   0.825   0.000  0.00  0.00    +0.226 C 
ATOM     11  O   UNL     1       0.715   1.238   0.000  0.00  0.00    -0.275 OA
BRANCH   2   3
ATOM      3  C   UNL     1       2.858   0.825   0.000  0.00  0.00    +0.120 C 
BRANCH   3   4
ATOM      4  C   UNL     1       3.572   1.238   0.000  0.00  0.00    -0.002 A 
ATOM      5  C   UNL     1       3.572   2.062   0.000  0.00  0.00    -0.003 A 
ATOM      6  C   UNL     1       4.287   2.475   0.000  0.00  0.00    -0.000 A 
ATOM      7  C   UNL     1       5.001   2.062   0.000  0.00  0.00    -0.000 A 
ATOM      8  C   UNL     1       5.001   1.238   0.000  0.00  0.00    -0.000 A 
ATOM      9  C   UNL     1       4.287   0.825   0.000  0.00  0.00    -0.003 A 
ENDBRANCH   3   4
ENDBRANCH   2   3
ENDBRANCH  12  10
ENDBRANCH  13  12
BRANCH  18  19
ATOM     19  C   UNL     1       1.429  -1.650   0.000  0.00  0.00    +0.051 C 
BRANCH  19  20
ATOM     20  C   UNL     1       1.429  -2.475   0.000  0.00  0.00    +0.100 A 
ATOM     21  N   UNL     1       2.096  -2.960   0.000  0.00  0.00    -0.082 NA
ATOM     22  O   UNL     1       1.841  -3.744   0.000  0.00  0.00    -0.354 OA
ATOM     23  C   UNL     1       1.016  -3.744   0.000  0.00  0.00    +0.198 A 
ATOM     32  C   UNL     1       0.761  -2.960   0.000  0.00  0.00    +0.057 A 
BRANCH  23  24
ATOM     24  C   UNL     1       0.531  -4.412   0.000  0.00  0.00    +0.272 C 
BRANCH  24  25
ATOM     25  O   UNL     1       0.867  -5.166   0.000  0.00  0.00    -0.467 OA
BRANCH  25  26
ATOM     26  C   UNL     1       0.382  -5.833   0.000  0.00  0.00    +0.139 A 
ATOM     27  C   UNL     1       0.718  -6.587   0.000  0.00  0.00    +0.037 A 
ATOM     28  C   UNL     1       0.233  -7.254   0.000  0.00  0.00    +0.003 A 
ATOM     29  C   UNL     1      -0.588  -7.168   0.000  0.00  0.00    +0.000 A 
ATOM     30  C   UNL     1      -0.923  -6.414   0.000  0.00  0.00    +0.003 A 
ATOM     31  C   UNL     1      -0.438  -5.747   0.000  0.00  0.00    +0.037 A 
ENDBRANCH  25  26
ENDBRANCH  24  25
ENDBRANCH  23  24
ENDBRANCH  19  20
ENDBRANCH  18  19
TORSDOF 9
