MODEL 1
REMARK VINA RESULT:     -12.0      0.000      0.000
REMARK  Name = 
REMARK  6 active torsions:
REMARK  status: ('A' for Active; 'I' for Inactive)
REMARK    1  A    between atoms: C_2  and  C_22
REMARK    2  A    between atoms: C_9  and  N_10
REMARK    3  A    between atoms: N_13  and  C_14
REMARK    4  A    between atoms: C_22  and  C_24
REMARK    5  A    between atoms: N_26  and  C_27
REMARK    6  A    between atoms: N_26  and  C_29
REMARK                            x       y       z     vdW  Elec       q    Type
REMARK                         _______ _______ _______ _____ _____    ______ ____
ROOT
ATOM      1  C   UNL     1      -4.284   0.226  24.621  0.00  0.00    +0.052 C 
ATOM      2  C   UNL     1      -4.954   0.413  25.063  0.00  0.00    -0.001 C 
ATOM      3  C   UNL     1      -5.104   1.196  25.272  0.00  0.00    -0.000 C 
ATOM      4  C   UNL     1      -4.583   1.793  25.040  0.00  0.00    -0.001 C 
ATOM      5  C   UNL     1      -5.254   1.981  25.482  0.00  0.00    -0.000 C 
ATOM      6  C   UNL     1      -4.733   2.577  25.250  0.00  0.00    +0.002 C 
ATOM      7  C   UNL     1      -4.212   3.173  25.018  0.00  0.00    +0.022 C 
ATOM      8  C   UNL     1      -3.541   2.985  24.575  0.00  0.00    +0.097 C 
ATOM     15  C   UNL     1      -3.391   2.202  24.366  0.00  0.00    +0.019 C 
ATOM     16  C   UNL     1      -2.720   2.015  23.924  0.00  0.00    +0.002 C 
ATOM     17  C   UNL     1      -3.912   1.606  24.598  0.00  0.00    +0.045 C 
ATOM     18  C   UNL     1      -3.762   0.823  24.389  0.00  0.00    +0.145 C 
ATOM     19  O   UNL     1      -3.091   0.634  23.947  0.00  0.00    -0.224 OA
ENDROOT
BRANCH   8   9
ATOM      9  N   UNL     1      -3.021   3.581  24.343  0.00  0.00    -0.189 NA
ATOM     10  C   UNL     1      -2.621   4.025  24.913  0.00  0.00    +0.339 C 
ATOM     11  O   UNL     1      -2.743   3.873  25.716  0.00  0.00    -0.249 OA
ATOM     12  N   UNL     1      -2.100   4.622  24.681  0.00  0.00    -0.187 NA
BRANCH  12  13
ATOM     13  C   UNL     1      -1.702   5.065  25.251  0.00  0.00    +0.117 C 
ATOM     14  C   UNL     1      -1.024   5.488  25.044  0.00  0.00    +0.025 C 
ENDBRANCH  12  13
ENDBRANCH   8   9
BRANCH   1  20
ATOM     20  C   UNL     1      -4.133  -0.558  24.411  0.00  0.00    +0.075 C 
ATOM     21  C   UNL     1      -4.270  -0.812  23.639  0.00  0.00    +0.009 C 
BRANCH  20  22
ATOM     22  C   UNL     1      -3.845  -1.087  24.975  0.00  0.00    +0.225 C 
ATOM     23  O   UNL     1      -3.660  -0.822  25.735  0.00  0.00    -0.275 OA
ATOM     24  N   UNL     1      -3.742  -1.882  24.780  0.00  0.00    -0.280 N 
BRANCH  24  25
ATOM     25  C   UNL     1      -3.454  -2.411  25.343  0.00  0.00    +0.093 C 
ATOM     26  C   UNL     1      -2.681  -2.694  25.286  0.00  0.00    +0.023 C 
ENDBRANCH  24  25
BRANCH  24  27
ATOM     27  C   UNL     1      -3.926  -2.148  24.020  0.00  0.00    +0.093 C 
ATOM     28  C   UNL     1      -4.055  -2.951  23.885  0.00  0.00    +0.023 C 
ENDBRANCH  24  27
ENDBRANCH  20  22
ENDBRANCH   1  20
TORSDOF 6
ENDMDL
MODEL 2
REMARK VINA RESULT:     -10.2      1.485      2.125
REMARK  Name = 
REMARK  6 active torsions:
REMARK  status: ('A' for Active; 'I' for Inactive)
REMARK    1  A    between atoms: C_2  and  C_22
REMARK    2  A    between atoms: C_9  and  N_10
REMARK    3  A    between atoms: N_13  and  C_14
REMARK    4  A    between atoms: C_22  and  C_24
REMARK    5  A    between atoms: N_26  and  C_27
REMARK    6  A    between atoms: N_26  and  C_29
REMARK                            x       y       z     vdW  Elec       q    Type
REMARK                         _______ _______ _______ _____ _____    ______ ____
ROOT
ATOM      1  C   UNL     1      -2.666  -0.060  24.744  0.00  0.00    +0.052 C 
ATOM      2  C   UNL     1      -1.907  -0.375  24.678  0.00  0.00    -0.001 C 
ATOM      3  C   UNL     1      -1.249   0.109  24.787  0.00  0.00    -0.000 C 
ATOM      4  C   UNL     1      -1.350   0.910  24.963  0.00  0.00    -0.001 C 
ATOM      5  C   UNL     1      -0.590   0.595  24.897  0.00  0.00    -0.000 C 
ATOM      6  C   UNL     1      -0.691   1.395  25.072  0.00  0.00    +0.002 C 
ATOM      7  C   UNL     1      -0.792   2.194  25.247  0.00  0.00    +0.022 C 
ATOM      8  C   UNL     1      -1.552   2.510  25.313  0.00  0.00    +0.097 C 
ATOM     15  C   UNL     1      -2.210   2.025  25.203  0.00  0.00    +0.019 C 
ATOM     16  C   UNL     1      -2.970   2.340  25.269  0.00  0.00    +0.002 C 
ATOM     17  C   UNL     1      -2.109   1.225  25.028  0.00  0.00    +0.045 C 
ATOM     18  C   UNL     1      -2.767   0.740  24.919  0.00  0.00    +0.145 C 
ATOM     19  O   UNL     1      -3.527   1.055  24.985  0.00  0.00    -0.224 OA
ENDROOT
BRANCH   8   9
ATOM      9  N   UNL     1      -1.653   3.309  25.487  0.00  0.00    -0.189 NA
ATOM     10  C   UNL     1      -1.223   3.880  25.074  0.00  0.00    +0.339 C 
ATOM     11  O   UNL     1      -0.691   3.650  24.486  0.00  0.00    -0.249 OA
ATOM     12  N   UNL     1      -1.324   4.679  25.249  0.00  0.00    -0.187 NA
BRANCH  12  13
ATOM     13  C   UNL     1      -0.893   5.249  24.836  0.00  0.00    +0.117 C 
ATOM     14  C   UNL     1      -1.166   6.027  24.802  0.00  0.00    +0.025 C 
ENDBRANCH  12  13
ENDBRANCH   8   9
BRANCH   1  20
ATOM     20  C   UNL     1      -3.325  -0.545  24.635  0.00  0.00    +0.075 C 
ATOM     21  C   UNL     1      -3.904  -0.337  24.086  0.00  0.00    +0.009 C 
BRANCH  20  22
ATOM     22  C   UNL     1      -3.405  -1.238  25.076  0.00  0.00    +0.225 C 
ATOM     23  O   UNL     1      -3.228  -1.236  25.882  0.00  0.00    -0.275 OA
ATOM     24  N   UNL     1      -3.660  -1.932  24.711  0.00  0.00    -0.280 N 
BRANCH  24  25
ATOM     25  C   UNL     1      -3.739  -2.624  25.151  0.00  0.00    +0.093 C 
ATOM     26  C   UNL     1      -3.318  -3.301  24.936  0.00  0.00    +0.023 C 
ENDBRANCH  24  25
BRANCH  24  27
ATOM     27  C   UNL     1      -3.836  -1.933  23.904  0.00  0.00    +0.093 C 
ATOM     28  C   UNL     1      -4.312  -2.528  23.588  0.00  0.00    +0.023 C 
ENDBRANCH  24  27
ENDBRANCH  20  22
ENDBRANCH   1  20
TORSDOF 6
ENDMDL
MODEL 3
REMARK VINA RESULT:     -10.2      2.665      4.283
REMARK  Name = 
REMARK  6 active torsions:
REMARK  status: ('A' for Active; 'I' for Inactive)
REMARK    1  A    between atoms: C_2  and  C_22
REMARK    2  A    between atoms: C_9  and  N_10
REMARK    3  A    between atoms: N_13  and  C_14
REMARK    4  A    between atoms: C_22  and  C_24
REMARK    5  A    between atoms: N_26  and  C_27
REMARK    6  A    between atoms: N_26  and  C_29
REMARK                            x       y       z     vdW  Elec       q    Type
REMARK                         _______ _______ _______ _____ _____    ______ ____
ROOT
ATOM      1  C   UNL     1      -3.188   1.457  24.550  0.00  0.00    +0.052 C 
ATOM      2  C   UNL     1      -3.320   0.761  24.972  0.00  0.00    -0.001 C 
ATOM      3  C   UNL     1      -2.705   0.224  25.086  0.00  0.00    -0.000 C 
ATOM      4  C   UNL     1      -1.956   0.384  24.776  0.00  0.00    -0.001 C 
ATOM      5  C   UNL     1      -2.088  -0.313  25.199  0.00  0.00    -0.000 C 
ATOM      6  C   UNL     1      -1.340  -0.154  24.890  0.00  0.00    +0.002 C 
ATOM      7  C   UNL     1      -0.592   0.005  24.580  0.00  0.00    +0.022 C 
ATOM      8  C   UNL     1      -0.459   0.702  24.157  0.00  0.00    +0.097 C 
ATOM     15  C   UNL     1      -1.076   1.238  24.044  0.00  0.00    +0.019 C 
ATOM     16  C   UNL     1      -0.943   1.934  23.622  0.00  0.00    +0.002 C 
ATOM     17  C   UNL     1      -1.824   1.079  24.354  0.00  0.00    +0.045 C 
ATOM     18  C   UNL     1      -2.439   1.616  24.240  0.00  0.00    +0.145 C 
ATOM     19  O   UNL     1      -2.308   2.312  23.818  0.00  0.00    -0.224 OA
ENDROOT
BRANCH   8   9
ATOM      9  N   UNL     1       0.288   0.861  23.848  0.00  0.00    -0.189 NA
ATOM     10  C   UNL     1       0.694   0.277  23.429  0.00  0.00    +0.339 C 
ATOM     11  O   UNL     1       0.352  -0.466  23.320  0.00  0.00    -0.249 OA
ATOM     12  N   UNL     1       1.442   0.436  23.120  0.00  0.00    -0.187 NA
BRANCH  12  13
ATOM     13  C   UNL     1       1.848  -0.148  22.701  0.00  0.00    +0.117 C 
ATOM     14  C   UNL     1       2.571   0.027  22.346  0.00  0.00    +0.025 C 
ENDBRANCH  12  13
ENDBRANCH   8   9
BRANCH   1  20
ATOM     20  C   UNL     1      -3.804   1.994  24.436  0.00  0.00    +0.075 C 
ATOM     21  C   UNL     1      -4.127   2.099  23.685  0.00  0.00    +0.009 C 
BRANCH  20  22
ATOM     22  C   UNL     1      -4.097   2.426  25.075  0.00  0.00    +0.225 C 
ATOM     23  O   UNL     1      -3.576   2.820  25.581  0.00  0.00    -0.275 OA
ATOM     24  N   UNL     1      -4.909   2.466  25.209  0.00  0.00    -0.280 N 
BRANCH  24  25
ATOM     25  C   UNL     1      -5.202   2.898  25.847  0.00  0.00    +0.093 C 
ATOM     26  C   UNL     1      -5.561   3.631  25.720  0.00  0.00    +0.023 C 
ENDBRANCH  24  25
BRANCH  24  27
ATOM     27  C   UNL     1      -5.430   2.073  24.703  0.00  0.00    +0.093 C 
ATOM     28  C   UNL     1      -6.184   1.866  24.968  0.00  0.00    +0.023 C 
ENDBRANCH  24  27
ENDBRANCH  20  22
ENDBRANCH   1  20
TORSDOF 6
ENDMDL
MODEL 4
REMARK VINA RESULT:     -10.2      1.058      5.168
REMARK  Name = 
REMARK  6 active torsions:
REMARK  status: ('A' for Active; 'I' for Inactive)
REMARK    1  A    between atoms: C_2  and  C_22
REMARK    2  A    between atoms: C_9  and  N_10
REMARK    3  A    between atoms: N_13  and  C_14
REMARK    4  A    between atoms: C_22  and  C_24
REMARK    5  A    between atoms: N_26  and  C_27
REMARK    6  A    between atoms: N_26  and  C_29
REMARK                            x       y       z     vdW  Elec       q    Type
REMARK                         _______ _______ _______ _____ _____    ______ ____
ROOT
ATOM      1  C   UNL     1      -2.482   2.473  24.794  0.00  0.00    +0.052 C 
ATOM      2  C   UNL     1      -3.201   2.780  24.533  0.00  0.00    -0.001 C 
ATOM      3  C   UNL     1      -3.854   2.284  24.449  0.00  0.00    -0.000 C 
ATOM      4  C   UNL     1      -3.788   1.480  24.626  0.00  0.00    -0.001 C 
ATOM      5  C   UNL     1      -4.509   1.787  24.365  0.00  0.00    -0.000 C 
ATOM      6  C   UNL     1      -4.442   0.984  24.542  0.00  0.00    +0.002 C 
ATOM      7  C   UNL     1      -4.376   0.181  24.719  0.00  0.00    +0.022 C 
ATOM      8  C   UNL     1      -3.656  -0.126  24.980  0.00  0.00    +0.097 C 
ATOM     15  C   UNL     1      -3.002   0.370  25.063  0.00  0.00    +0.019 C 
ATOM     16  C   UNL     1      -2.283   0.063  25.324  0.00  0.00    +0.002 C 
ATOM     17  C   UNL     1      -3.069   1.173  24.887  0.00  0.00    +0.045 C 
ATOM     18  C   UNL     1      -2.415   1.669  24.971  0.00  0.00    +0.145 C 
ATOM     19  O   UNL     1      -1.695   1.363  25.231  0.00  0.00    -0.224 OA
ENDROOT
BRANCH   8   9
ATOM      9  N   UNL     1      -3.590  -0.928  25.156  0.00  0.00    -0.189 NA
ATOM     10  C   UNL     1      -3.782  -1.494  24.586  0.00  0.00    +0.339 C 
ATOM     11  O   UNL     1      -4.042  -1.256  23.840  0.00  0.00    -0.249 OA
ATOM     12  N   UNL     1      -3.716  -2.297  24.763  0.00  0.00    -0.187 NA
BRANCH  12  13
ATOM     13  C   UNL     1      -3.909  -2.862  24.193  0.00  0.00    +0.117 C 
ATOM     14  C   UNL     1      -3.574  -3.615  24.230  0.00  0.00    +0.025 C 
ENDBRANCH  12  13
ENDBRANCH   8   9
BRANCH   1  20
ATOM     20  C   UNL     1      -1.827   2.969  24.878  0.00  0.00    +0.075 C 
ATOM     21  C   UNL     1      -1.106   2.762  24.537  0.00  0.00    +0.009 C 
BRANCH  20  22
ATOM     22  C   UNL     1      -1.895   3.672  25.304  0.00  0.00    +0.225 C 
ATOM     23  O   UNL     1      -2.393   3.710  25.961  0.00  0.00    -0.275 OA
ATOM     24  N   UNL     1      -1.467   4.338  25.073  0.00  0.00    -0.280 N 
BRANCH  24  25
ATOM     25  C   UNL     1      -1.535   5.040  25.498  0.00  0.00    +0.093 C 
ATOM     26  C   UNL     1      -1.780   5.731  25.118  0.00  0.00    +0.023 C 
ENDBRANCH  24  25
BRANCH  24  27
ATOM     27  C   UNL     1      -0.969   4.300  24.415  0.00  0.00    +0.093 C 
ATOM     28  C   UNL     1      -0.336   4.825  24.347  0.00  0.00    +0.023 C 
ENDBRANCH  24  27
ENDBRANCH  20  22
ENDBRANCH   1  20
TORSDOF 6
ENDMDL
