MODEL 1
REMARK VINA RESULT:      -9.0      0.000      0.000
REMARK  Name = 
REMARK  9 active torsions:
REMARK  status: ('A' for Active; 'I' for Inactive)
REMARK    1  A    between atoms: O_2  and  C_3
REMARK    2  A    between atoms: C_3  and  C_5
REMARK    3  A    between atoms: C_10  and  C_11
REMARK    4  A    between atoms: C_11  and  C_12
REMARK    5  A    between atoms: C_14  and  C_15
REMARK    6  A    between atoms: C_18  and  C_19
REMARK    7  A    between atoms: C_19  and  N_20
REMARK    8  A    between atoms: C_21  and  C_23
REMARK    9  A    between atoms: C_23  and  N_24
REMARK                            x       y       z     vdW  Elec       q    Type
REMARK                         _______ _______ _______ _____ _____    ______ ____
ROOT
ATOM     12  C   UNL     1      -4.640   1.699  24.762  0.00  0.00    +0.026 C 
ATOM     13  C   UNL     1      -4.210   1.790  24.065  0.00  0.00    +0.005 C 
ATOM     14  C   UNL     1      -3.770   2.475  23.937  0.00  0.00    +0.006 C 
ATOM     18  C   UNL     1      -3.762   3.071  24.508  0.00  0.00    +0.043 C 
ATOM     27  C   UNL     1      -4.192   2.981  25.206  0.00  0.00    -0.033 C 
ATOM     28  C   UNL     1      -4.631   2.295  25.333  0.00  0.00    -0.048 C 
ATOM     29  C   UNL     1      -5.062   2.204  26.031  0.00  0.00    +0.026 C 
ENDROOT
BRANCH  14  15
ATOM     15  C   UNL     1      -3.340   2.567  23.239  0.00  0.00    +0.000 C 
ATOM     16  C   UNL     1      -2.601   2.209  23.161  0.00  0.00    +0.000 C 
ATOM     17  C   UNL     1      -3.648   3.016  22.620  0.00  0.00    +0.000 C 
ENDBRANCH  14  15
BRANCH  12  11
ATOM     11  C   UNL     1      -5.080   1.012  24.890  0.00  0.00    +0.070 C 
BRANCH  11  10
ATOM      5  C   UNL     1      -3.359  -2.081  24.650  0.00  0.00    +0.077 A 
ATOM      6  C   UNL     1      -3.393  -1.373  25.073  0.00  0.00    +0.027 A 
ATOM      7  C   UNL     1      -3.951  -0.799  24.874  0.00  0.00    +0.100 A 
ATOM      8  C   UNL     1      -4.474  -0.932  24.251  0.00  0.00    +0.100 A 
ATOM      9  N   UNL     1      -4.961  -0.270  24.181  0.00  0.00    -0.229 NA
ATOM     10  C   UNL     1      -4.738   0.273  24.761  0.00  0.00    +0.139 A 
ATOM     30  N   UNL     1      -4.113  -0.054  25.189  0.00  0.00    -0.229 NA
ATOM     31  C   UNL     1      -4.441  -1.640  23.827  0.00  0.00    +0.021 A 
ATOM     32  C   UNL     1      -3.883  -2.214  24.027  0.00  0.00    +0.008 A 
BRANCH   5   3
ATOM      3  C   UNL     1      -2.801  -2.655  24.850  0.00  0.00    +0.341 C 
ATOM      4  O   UNL     1      -3.004  -3.265  25.365  0.00  0.00    -0.245 OA
BRANCH   3   2
ATOM      1  C   UNL     1      -1.404  -2.938  24.951  0.00  0.00    +0.256 C 
ATOM      2  O   UNL     1      -2.039  -2.617  24.534  0.00  0.00    -0.441 OA
ENDBRANCH   3   2
ENDBRANCH   5   3
ENDBRANCH  11  10
ENDBRANCH  12  11
BRANCH  18  19
ATOM     19  C   UNL     1      -3.322   3.758  24.380  0.00  0.00    +0.119 C 
BRANCH  19  20
ATOM     20  N   UNL     1      -2.696   3.946  24.884  0.00  0.00    -0.204 NA
ATOM     21  C   UNL     1      -2.395   4.715  24.898  0.00  0.00    +0.258 C 
ATOM     22  O   UNL     1      -2.720   5.294  24.409  0.00  0.00    -0.272 OA
BRANCH  21  23
ATOM     23  C   UNL     1      -1.770   4.903  25.402  0.00  0.00    +0.160 C 
BRANCH  23  24
ATOM     24  N   UNL     1      -0.998   4.924  25.111  0.00  0.00    -0.263 NA
ATOM     25  C   UNL     1      -0.725   5.594  24.715  0.00  0.00    +0.090 C 
ATOM     26  C   UNL     1      -0.499   4.275  25.215  0.00  0.00    +0.090 C 
ENDBRANCH  23  24
ENDBRANCH  21  23
ENDBRANCH  19  20
ENDBRANCH  18  19
TORSDOF 9
ENDMDL
MODEL 2
REMARK VINA RESULT:      -8.7      3.149      5.317
REMARK  Name = 
REMARK  9 active torsions:
REMARK  status: ('A' for Active; 'I' for Inactive)
REMARK    1  A    between atoms: O_2  and  C_3
REMARK    2  A    between atoms: C_3  and  C_5
REMARK    3  A    between atoms: C_10  and  C_11
REMARK    4  A    between atoms: C_11  and  C_12
REMARK    5  A    between atoms: C_14  and  C_15
REMARK    6  A    between atoms: C_18  and  C_19
REMARK    7  A    between atoms: C_19  and  N_20
REMARK    8  A    between atoms: C_21  and  C_23
REMARK    9  A    between atoms: C_23  and  N_24
REMARK                            x       y       z     vdW  Elec       q    Type
REMARK                         _______ _______ _______ _____ _____    ______ ____
ROOT
ATOM     12  C   UNL     1      -0.840   2.470  24.892  0.00  0.00    +0.026 C 
ATOM     13  C   UNL     1      -1.111   1.700  25.008  0.00  0.00    +0.005 C 
ATOM     14  C   UNL     1      -0.710   1.066  24.666  0.00  0.00    +0.006 C 
ATOM     18  C   UNL     1      -0.037   1.202  24.208  0.00  0.00    +0.043 C 
ATOM     27  C   UNL     1       0.234   1.972  24.092  0.00  0.00    -0.033 C 
ATOM     28  C   UNL     1      -0.167   2.606  24.434  0.00  0.00    -0.048 C 
ATOM     29  C   UNL     1       0.104   3.377  24.317  0.00  0.00    +0.026 C 
ENDROOT
BRANCH  14  15
ATOM     15  C   UNL     1      -0.981   0.295  24.782  0.00  0.00    +0.000 C 
ATOM     16  C   UNL     1      -1.487  -0.052  24.231  0.00  0.00    +0.000 C 
ATOM     17  C   UNL     1      -0.744  -0.129  25.449  0.00  0.00    +0.000 C 
ENDBRANCH  14  15
BRANCH  12  11
ATOM     11  C   UNL     1      -1.241   3.105  25.233  0.00  0.00    +0.070 C 
BRANCH  11  10
ATOM      5  C   UNL     1      -4.786   3.186  25.319  0.00  0.00    +0.077 A 
ATOM      6  C   UNL     1      -4.118   2.979  25.756  0.00  0.00    +0.027 A 
ATOM      7  C   UNL     1      -3.366   3.089  25.437  0.00  0.00    +0.100 A 
ATOM      8  C   UNL     1      -3.281   3.406  24.681  0.00  0.00    +0.100 A 
ATOM      9  N   UNL     1      -2.475   3.451  24.512  0.00  0.00    -0.229 NA
ATOM     10  C   UNL     1      -2.060   3.161  25.165  0.00  0.00    +0.139 A 
ATOM     30  N   UNL     1      -2.612   2.938  25.737  0.00  0.00    -0.229 NA
ATOM     31  C   UNL     1      -3.948   3.613  24.243  0.00  0.00    +0.021 A 
ATOM     32  C   UNL     1      -4.701   3.503  24.561  0.00  0.00    +0.008 A 
BRANCH   5   3
ATOM      3  C   UNL     1      -5.539   3.076  25.638  0.00  0.00    +0.341 C 
ATOM      4  O   UNL     1      -6.026   3.726  25.780  0.00  0.00    -0.245 OA
BRANCH   3   2
ATOM      1  C   UNL     1      -6.545   2.208  26.164  0.00  0.00    +0.256 C 
ATOM      2  O   UNL     1      -5.805   2.315  25.815  0.00  0.00    -0.441 OA
ENDBRANCH   3   2
ENDBRANCH   5   3
ENDBRANCH  11  10
ENDBRANCH  12  11
BRANCH  18  19
ATOM     19  C   UNL     1       0.364   0.567  23.866  0.00  0.00    +0.119 C 
BRANCH  19  20
ATOM     20  N   UNL     1       0.926   0.704  23.278  0.00  0.00    -0.204 NA
ATOM     21  C   UNL     1       1.447   0.102  23.057  0.00  0.00    +0.258 C 
ATOM     22  O   UNL     1       1.406  -0.635  23.425  0.00  0.00    -0.272 OA
BRANCH  21  23
ATOM     23  C   UNL     1       2.009   0.240  22.469  0.00  0.00    +0.160 C 
BRANCH  23  24
ATOM     24  N   UNL     1       2.812   0.145  22.636  0.00  0.00    -0.263 NA
ATOM     25  C   UNL     1       3.113  -0.606  22.799  0.00  0.00    +0.090 C 
ATOM     26  C   UNL     1       3.313   0.800  22.639  0.00  0.00    +0.090 C 
ENDBRANCH  23  24
ENDBRANCH  21  23
ENDBRANCH  19  20
ENDBRANCH  18  19
TORSDOF 9
ENDMDL
MODEL 3
REMARK VINA RESULT:      -8.7      3.451      4.821
REMARK  Name = 
REMARK  9 active torsions:
REMARK  status: ('A' for Active; 'I' for Inactive)
REMARK    1  A    between atoms: O_2  and  C_3
REMARK    2  A    between atoms: C_3  and  C_5
REMARK    3  A    between atoms: C_10  and  C_11
REMARK    4  A    between atoms: C_11  and  C_12
REMARK    5  A    between atoms: C_14  and  C_15
REMARK    6  A    between atoms: C_18  and  C_19
REMARK    7  A    between atoms: C_19  and  N_20
REMARK    8  A    between atoms: C_21  and  C_23
REMARK    9  A    between atoms: C_23  and  N_24
REMARK                            x       y       z     vdW  Elec       q    Type
REMARK                         _______ _______ _______ _____ _____    ______ ____
ROOT
ATOM     12  C   UNL     1      -1.201  -0.113  24.853  0.00  0.00    +0.026 C 
ATOM     13  C   UNL     1      -1.053   0.697  24.890  0.00  0.00    +0.005 C 
ATOM     14  C   UNL     1      -0.384   1.012  24.523  0.00  0.00    +0.006 C 
ATOM     18  C   UNL     1       0.136   0.515  24.119  0.00  0.00    +0.043 C 
ATOM     27  C   UNL     1      -0.011  -0.295  24.082  0.00  0.00    -0.033 C 
ATOM     28  C   UNL     1      -0.680  -0.609  24.449  0.00  0.00    -0.048 C 
ATOM     29  C   UNL     1      -0.828  -1.421  24.411  0.00  0.00    +0.026 C 
ENDROOT
BRANCH  14  15
ATOM     15  C   UNL     1      -0.236   1.823  24.560  0.00  0.00    +0.000 C 
ATOM     16  C   UNL     1      -0.489   2.317  23.951  0.00  0.00    +0.000 C 
ATOM     17  C   UNL     1       0.167   2.138  25.207  0.00  0.00    +0.000 C 
ENDBRANCH  14  15
BRANCH  12  11
ATOM     11  C   UNL     1      -1.869  -0.428  25.219  0.00  0.00    +0.070 C 
BRANCH  11  10
ATOM      5  C   UNL     1      -4.946   1.319  24.962  0.00  0.00    +0.077 A 
ATOM      6  C   UNL     1      -4.220   1.311  25.354  0.00  0.00    +0.027 A 
ATOM      7  C   UNL     1      -3.664   0.727  25.181  0.00  0.00    +0.100 A 
ATOM      8  C   UNL     1      -3.833   0.151  24.616  0.00  0.00    +0.100 A 
ATOM      9  N   UNL     1      -3.182  -0.352  24.561  0.00  0.00    -0.229 NA
ATOM     10  C   UNL     1      -2.609  -0.087  25.093  0.00  0.00    +0.139 A 
ATOM     30  N   UNL     1      -2.908   0.581  25.476  0.00  0.00    -0.229 NA
ATOM     31  C   UNL     1      -4.559   0.158  24.223  0.00  0.00    +0.021 A 
ATOM     32  C   UNL     1      -5.116   0.742  24.396  0.00  0.00    +0.008 A 
BRANCH   5   3
ATOM      3  C   UNL     1      -5.503   1.903  25.135  0.00  0.00    +0.341 C 
ATOM      4  O   UNL     1      -6.303   1.764  24.996  0.00  0.00    -0.245 OA
BRANCH   3   2
ATOM      1  C   UNL     1      -5.816   3.199  25.649  0.00  0.00    +0.256 C 
ATOM      2  O   UNL     1      -5.257   2.627  25.447  0.00  0.00    -0.441 OA
ENDBRANCH   3   2
ENDBRANCH   5   3
ENDBRANCH  11  10
ENDBRANCH  12  11
BRANCH  18  19
ATOM     19  C   UNL     1       0.806   0.830  23.752  0.00  0.00    +0.119 C 
BRANCH  19  20
ATOM     20  N   UNL     1       1.277   0.350  23.274  0.00  0.00    -0.204 NA
ATOM     21  C   UNL     1       2.037   0.595  23.067  0.00  0.00    +0.258 C 
ATOM     22  O   UNL     1       2.326   1.320  23.337  0.00  0.00    -0.272 OA
BRANCH  21  23
ATOM     23  C   UNL     1       2.509   0.116  22.589  0.00  0.00    +0.160 C 
BRANCH  23  24
ATOM     24  N   UNL     1       3.330   0.138  22.665  0.00  0.00    -0.263 NA
ATOM     25  C   UNL     1       3.763   0.729  22.286  0.00  0.00    +0.090 C 
ATOM     26  C   UNL     1       3.718  -0.430  23.121  0.00  0.00    +0.090 C 
ENDBRANCH  23  24
ENDBRANCH  21  23
ENDBRANCH  19  20
ENDBRANCH  18  19
TORSDOF 9
ENDMDL
MODEL 4
REMARK VINA RESULT:      -8.4      3.772      4.916
REMARK  Name = 
REMARK  9 active torsions:
REMARK  status: ('A' for Active; 'I' for Inactive)
REMARK    1  A    between atoms: O_2  and  C_3
REMARK    2  A    between atoms: C_3  and  C_5
REMARK    3  A    between atoms: C_10  and  C_11
REMARK    4  A    between atoms: C_11  and  C_12
REMARK    5  A    between atoms: C_14  and  C_15
REMARK    6  A    between atoms: C_18  and  C_19
REMARK    7  A    between atoms: C_19  and  N_20
REMARK    8  A    between atoms: C_21  and  C_23
REMARK    9  A    between atoms: C_23  and  N_24
REMARK                            x       y       z     vdW  Elec       q    Type
REMARK                         _______ _______ _______ _____ _____    ______ ____
ROOT
ATOM     12  C   UNL     1      -1.033   0.384  24.514  0.00  0.00    +0.026 C 
ATOM     13  C   UNL     1      -0.730   1.135  24.666  0.00  0.00    +0.005 C 
ATOM     14  C   UNL     1      -1.242   1.772  24.776  0.00  0.00    +0.006 C 
ATOM     18  C   UNL     1      -2.058   1.657  24.735  0.00  0.00    +0.043 C 
ATOM     27  C   UNL     1      -2.362   0.905  24.583  0.00  0.00    -0.033 C 
ATOM     28  C   UNL     1      -1.848   0.269  24.473  0.00  0.00    -0.048 C 
ATOM     29  C   UNL     1      -2.152  -0.484  24.321  0.00  0.00    +0.026 C 
ENDROOT
BRANCH  14  15
ATOM     15  C   UNL     1      -0.939   2.524  24.928  0.00  0.00    +0.000 C 
ATOM     16  C   UNL     1      -0.773   2.754  25.702  0.00  0.00    +0.000 C 
ATOM     17  C   UNL     1      -0.804   3.047  24.304  0.00  0.00    +0.000 C 
ENDBRANCH  14  15
BRANCH  12  11
ATOM     11  C   UNL     1      -0.520  -0.254  24.403  0.00  0.00    +0.070 C 
BRANCH  11  10
ATOM      5  C   UNL     1       2.516   0.207  22.628  0.00  0.00    +0.077 A 
ATOM      6  C   UNL     1       2.172   0.262  23.376  0.00  0.00    +0.027 A 
ATOM      7  C   UNL     1       1.376   0.070  23.479  0.00  0.00    +0.100 A 
ATOM      8  C   UNL     1       0.925  -0.176  22.834  0.00  0.00    +0.100 A 
ATOM      9  N   UNL     1       0.159  -0.327  23.102  0.00  0.00    -0.229 NA
ATOM     10  C   UNL     1       0.137  -0.175  23.913  0.00  0.00    +0.139 A 
ATOM     30  N   UNL     1       0.890   0.071  24.145  0.00  0.00    -0.229 NA
ATOM     31  C   UNL     1       1.268  -0.231  22.086  0.00  0.00    +0.021 A 
ATOM     32  C   UNL     1       2.064  -0.039  21.983  0.00  0.00    +0.008 A 
BRANCH   5   3
ATOM      3  C   UNL     1       3.312   0.399  22.525  0.00  0.00    +0.341 C 
ATOM      4  O   UNL     1       3.541   0.886  21.900  0.00  0.00    -0.245 OA
BRANCH   3   2
ATOM      1  C   UNL     1       4.661   0.359  22.995  0.00  0.00    +0.256 C 
ATOM      2  O   UNL     1       3.878   0.103  23.047  0.00  0.00    -0.441 OA
ENDBRANCH   3   2
ENDBRANCH   5   3
ENDBRANCH  11  10
ENDBRANCH  12  11
BRANCH  18  19
ATOM     19  C   UNL     1      -2.571   2.294  24.845  0.00  0.00    +0.119 C 
BRANCH  19  20
ATOM     20  N   UNL     1      -3.362   2.229  24.621  0.00  0.00    -0.204 NA
ATOM     21  C   UNL     1      -3.914   2.781  24.892  0.00  0.00    +0.258 C 
ATOM     22  O   UNL     1      -3.673   3.396  25.386  0.00  0.00    -0.272 OA
BRANCH  21  23
ATOM     23  C   UNL     1      -4.705   2.716  24.667  0.00  0.00    +0.160 C 
BRANCH  23  24
ATOM     24  N   UNL     1      -5.301   2.781  25.235  0.00  0.00    -0.263 NA
ATOM     25  C   UNL     1      -5.741   2.116  25.448  0.00  0.00    +0.090 C 
ATOM     26  C   UNL     1      -5.456   3.510  25.590  0.00  0.00    +0.090 C 
ENDBRANCH  23  24
ENDBRANCH  21  23
ENDBRANCH  19  20
ENDBRANCH  18  19
TORSDOF 9
ENDMDL
MODEL 5
REMARK VINA RESULT:      -8.2      1.271      5.629
REMARK  Name = 
REMARK  9 active torsions:
REMARK  status: ('A' for Active; 'I' for Inactive)
REMARK    1  A    between atoms: O_2  and  C_3
REMARK    2  A    between atoms: C_3  and  C_5
REMARK    3  A    between atoms: C_10  and  C_11
REMARK    4  A    between atoms: C_11  and  C_12
REMARK    5  A    between atoms: C_14  and  C_15
REMARK    6  A    between atoms: C_18  and  C_19
REMARK    7  A    between atoms: C_19  and  N_20
REMARK    8  A    between atoms: C_21  and  C_23
REMARK    9  A    between atoms: C_23  and  N_24
REMARK                            x       y       z     vdW  Elec       q    Type
REMARK                         _______ _______ _______ _____ _____    ______ ____
ROOT
ATOM     12  C   UNL     1      -4.566   1.786  24.623  0.00  0.00    +0.026 C 
ATOM     13  C   UNL     1      -3.892   1.632  24.175  0.00  0.00    +0.005 C 
ATOM     14  C   UNL     1      -3.723   0.862  23.933  0.00  0.00    +0.006 C 
ATOM     18  C   UNL     1      -4.229   0.245  24.141  0.00  0.00    +0.043 C 
ATOM     27  C   UNL     1      -4.904   0.398  24.589  0.00  0.00    -0.033 C 
ATOM     28  C   UNL     1      -5.072   1.168  24.830  0.00  0.00    -0.048 C 
ATOM     29  C   UNL     1      -5.748   1.322  25.280  0.00  0.00    +0.026 C 
ENDROOT
BRANCH  14  15
ATOM     15  C   UNL     1      -3.048   0.708  23.485  0.00  0.00    +0.000 C 
ATOM     16  C   UNL     1      -2.337   0.520  23.858  0.00  0.00    +0.000 C 
ATOM     17  C   UNL     1      -3.084   0.743  22.661  0.00  0.00    +0.000 C 
ENDBRANCH  14  15
BRANCH  12  11
ATOM     11  C   UNL     1      -4.735   2.556  24.865  0.00  0.00    +0.070 C 
BRANCH  11  10
ATOM      5  C   UNL     1      -2.038   4.812  25.336  0.00  0.00    +0.077 A 
ATOM      6  C   UNL     1      -2.490   4.432  24.760  0.00  0.00    +0.027 A 
ATOM      7  C   UNL     1      -3.100   3.923  24.983  0.00  0.00    +0.100 A 
ATOM      8  C   UNL     1      -3.258   3.795  25.782  0.00  0.00    +0.100 A 
ATOM      9  N   UNL     1      -3.890   3.268  25.835  0.00  0.00    -0.229 NA
ATOM     10  C   UNL     1      -4.123   3.069  25.068  0.00  0.00    +0.139 A 
ATOM     30  N   UNL     1      -3.634   3.475  24.542  0.00  0.00    -0.229 NA
ATOM     31  C   UNL     1      -2.807   4.175  26.359  0.00  0.00    +0.021 A 
ATOM     32  C   UNL     1      -2.197   4.684  26.136  0.00  0.00    +0.008 A 
BRANCH   5   3
ATOM      3  C   UNL     1      -1.428   5.321  25.112  0.00  0.00    +0.341 C 
ATOM      4  O   UNL     1      -1.566   6.132  25.060  0.00  0.00    -0.245 OA
BRANCH   3   2
ATOM      1  C   UNL     1      -0.165   5.439  24.455  0.00  0.00    +0.256 C 
ATOM      2  O   UNL     1      -0.680   5.017  24.942  0.00  0.00    -0.441 OA
ENDBRANCH   3   2
ENDBRANCH   5   3
ENDBRANCH  11  10
ENDBRANCH  12  11
BRANCH  18  19
ATOM     19  C   UNL     1      -4.061  -0.526  23.899  0.00  0.00    +0.119 C 
BRANCH  19  20
ATOM     20  N   UNL     1      -4.050  -1.138  24.453  0.00  0.00    -0.204 NA
ATOM     21  C   UNL     1      -4.086  -1.923  24.200  0.00  0.00    +0.258 C 
ATOM     22  O   UNL     1      -4.132  -2.096  23.394  0.00  0.00    -0.272 OA
BRANCH  21  23
ATOM     23  C   UNL     1      -4.075  -2.535  24.753  0.00  0.00    +0.160 C 
BRANCH  23  24
ATOM     24  N   UNL     1      -3.355  -2.860  24.994  0.00  0.00    -0.263 NA
ATOM     25  C   UNL     1      -3.107  -2.777  25.777  0.00  0.00    +0.090 C 
ATOM     26  C   UNL     1      -2.884  -3.267  24.453  0.00  0.00    +0.090 C 
ENDBRANCH  23  24
ENDBRANCH  21  23
ENDBRANCH  19  20
ENDBRANCH  18  19
TORSDOF 9
ENDMDL
MODEL 6
REMARK VINA RESULT:      -7.5      2.860      5.053
REMARK  Name = 
REMARK  9 active torsions:
REMARK  status: ('A' for Active; 'I' for Inactive)
REMARK    1  A    between atoms: O_2  and  C_3
REMARK    2  A    between atoms: C_3  and  C_5
REMARK    3  A    between atoms: C_10  and  C_11
REMARK    4  A    between atoms: C_11  and  C_12
REMARK    5  A    between atoms: C_14  and  C_15
REMARK    6  A    between atoms: C_18  and  C_19
REMARK    7  A    between atoms: C_19  and  N_20
REMARK    8  A    between atoms: C_21  and  C_23
REMARK    9  A    between atoms: C_23  and  N_24
REMARK                            x       y       z     vdW  Elec       q    Type
REMARK                         _______ _______ _______ _____ _____    ______ ____
ROOT
ATOM     12  C   UNL     1      -2.794   0.523  23.723  0.00  0.00    +0.026 C 
ATOM     13  C   UNL     1      -2.549   0.086  24.378  0.00  0.00    +0.005 C 
ATOM     14  C   UNL     1      -1.746  -0.047  24.508  0.00  0.00    +0.006 C 
ATOM     18  C   UNL     1      -1.187   0.256  23.983  0.00  0.00    +0.043 C 
ATOM     27  C   UNL     1      -1.431   0.692  23.327  0.00  0.00    -0.033 C 
ATOM     28  C   UNL     1      -2.235   0.826  23.197  0.00  0.00    -0.048 C 
ATOM     29  C   UNL     1      -2.480   1.263  22.541  0.00  0.00    +0.026 C 
ENDROOT
BRANCH  14  15
ATOM     15  C   UNL     1      -1.501  -0.484  25.164  0.00  0.00    +0.000 C 
ATOM     16  C   UNL     1      -1.278  -0.098  25.858  0.00  0.00    +0.000 C 
ATOM     17  C   UNL     1      -1.479  -1.308  25.125  0.00  0.00    +0.000 C 
ENDBRANCH  14  15
BRANCH  12  11
ATOM     11  C   UNL     1      -3.598   0.657  23.592  0.00  0.00    +0.070 C 
BRANCH  11  10
ATOM      5  C   UNL     1      -5.192   3.144  25.556  0.00  0.00    +0.077 A 
ATOM      6  C   UNL     1      -4.626   3.027  24.968  0.00  0.00    +0.027 A 
ATOM      7  C   UNL     1      -4.464   2.266  24.696  0.00  0.00    +0.100 A 
ATOM      8  C   UNL     1      -4.868   1.620  25.011  0.00  0.00    +0.100 A 
ATOM      9  N   UNL     1      -4.593   0.939  24.637  0.00  0.00    -0.229 NA
ATOM     10  C   UNL     1      -4.018   1.163  24.089  0.00  0.00    +0.139 A 
ATOM     30  N   UNL     1      -3.938   1.983  24.126  0.00  0.00    -0.229 NA
ATOM     31  C   UNL     1      -5.435   1.736  25.600  0.00  0.00    +0.021 A 
ATOM     32  C   UNL     1      -5.597   2.497  25.872  0.00  0.00    +0.008 A 
BRANCH   5   3
ATOM      3  C   UNL     1      -5.354   3.906  25.829  0.00  0.00    +0.341 C 
ATOM      4  O   UNL     1      -4.795   4.309  26.280  0.00  0.00    -0.245 OA
BRANCH   3   2
ATOM      1  C   UNL     1      -6.146   5.084  25.668  0.00  0.00    +0.256 C 
ATOM      2  O   UNL     1      -6.076   4.262  25.649  0.00  0.00    -0.441 OA
ENDBRANCH   3   2
ENDBRANCH   5   3
ENDBRANCH  11  10
ENDBRANCH  12  11
BRANCH  18  19
ATOM     19  C   UNL     1      -0.383   0.122  24.113  0.00  0.00    +0.119 C 
BRANCH  19  20
ATOM     20  N   UNL     1       0.179   0.532  23.670  0.00  0.00    -0.204 NA
ATOM     21  C   UNL     1       0.903   0.177  23.492  0.00  0.00    +0.258 C 
ATOM     22  O   UNL     1       1.063  -0.588  23.756  0.00  0.00    -0.272 OA
BRANCH  21  23
ATOM     23  C   UNL     1       1.465   0.587  23.050  0.00  0.00    +0.160 C 
BRANCH  23  24
ATOM     24  N   UNL     1       2.030   0.172  22.614  0.00  0.00    -0.263 NA
ATOM     25  C   UNL     1       2.822   0.186  22.847  0.00  0.00    +0.090 C 
ATOM     26  C   UNL     1       1.804  -0.257  21.947  0.00  0.00    +0.090 C 
ENDBRANCH  23  24
ENDBRANCH  21  23
ENDBRANCH  19  20
ENDBRANCH  18  19
TORSDOF 9
ENDMDL
MODEL 7
REMARK VINA RESULT:      -7.4      2.783      4.270
REMARK  Name = 
REMARK  9 active torsions:
REMARK  status: ('A' for Active; 'I' for Inactive)
REMARK    1  A    between atoms: O_2  and  C_3
REMARK    2  A    between atoms: C_3  and  C_5
REMARK    3  A    between atoms: C_10  and  C_11
REMARK    4  A    between atoms: C_11  and  C_12
REMARK    5  A    between atoms: C_14  and  C_15
REMARK    6  A    between atoms: C_18  and  C_19
REMARK    7  A    between atoms: C_19  and  N_20
REMARK    8  A    between atoms: C_21  and  C_23
REMARK    9  A    between atoms: C_23  and  N_24
REMARK                            x       y       z     vdW  Elec       q    Type
REMARK                         _______ _______ _______ _____ _____    ______ ____
ROOT
ATOM     12  C   UNL     1      -1.626   3.006  24.994  0.00  0.00    +0.026 C 
ATOM     13  C   UNL     1      -2.034   2.871  24.290  0.00  0.00    +0.005 C 
ATOM     14  C   UNL     1      -2.852   2.974  24.261  0.00  0.00    +0.006 C 
ATOM     18  C   UNL     1      -3.262   3.211  24.937  0.00  0.00    +0.043 C 
ATOM     27  C   UNL     1      -2.854   3.345  25.641  0.00  0.00    -0.033 C 
ATOM     28  C   UNL     1      -2.036   3.243  25.669  0.00  0.00    -0.048 C 
ATOM     29  C   UNL     1      -1.628   3.377  26.374  0.00  0.00    +0.026 C 
ENDROOT
BRANCH  14  15
ATOM     15  C   UNL     1      -3.260   2.839  23.557  0.00  0.00    +0.000 C 
ATOM     16  C   UNL     1      -3.473   3.474  23.076  0.00  0.00    +0.000 C 
ATOM     17  C   UNL     1      -3.455   2.069  23.335  0.00  0.00    +0.000 C 
ENDBRANCH  14  15
BRANCH  12  11
ATOM     11  C   UNL     1      -0.808   2.904  25.024  0.00  0.00    +0.070 C 
BRANCH  11  10
ATOM      5  C   UNL     1       0.879   0.305  23.296  0.00  0.00    +0.077 A 
ATOM      6  C   UNL     1       0.788   1.124  23.334  0.00  0.00    +0.027 A 
ATOM      7  C   UNL     1       0.280   1.457  23.891  0.00  0.00    +0.100 A 
ATOM      8  C   UNL     1      -0.139   0.972  24.410  0.00  0.00    +0.100 A 
ATOM      9  N   UNL     1      -0.597   1.454  24.898  0.00  0.00    -0.229 NA
ATOM     10  C   UNL     1      -0.462   2.239  24.680  0.00  0.00    +0.139 A 
ATOM     30  N   UNL     1       0.080   2.240  24.058  0.00  0.00    -0.229 NA
ATOM     31  C   UNL     1      -0.049   0.152  24.372  0.00  0.00    +0.021 A 
ATOM     32  C   UNL     1       0.460  -0.181  23.815  0.00  0.00    +0.008 A 
BRANCH   5   3
ATOM      3  C   UNL     1       1.388  -0.029  22.738  0.00  0.00    +0.341 C 
ATOM      4  O   UNL     1       1.080  -0.437  22.092  0.00  0.00    -0.245 OA
BRANCH   3   2
ATOM      1  C   UNL     1       2.704  -0.080  22.185  0.00  0.00    +0.256 C 
ATOM      2  O   UNL     1       2.205   0.047  22.829  0.00  0.00    -0.441 OA
ENDBRANCH   3   2
ENDBRANCH   5   3
ENDBRANCH  11  10
ENDBRANCH  12  11
BRANCH  18  19
ATOM     19  C   UNL     1      -4.080   3.313  24.908  0.00  0.00    +0.119 C 
BRANCH  19  20
ATOM     20  N   UNL     1      -4.566   2.898  25.430  0.00  0.00    -0.204 NA
ATOM     21  C   UNL     1      -5.330   3.169  25.586  0.00  0.00    +0.258 C 
ATOM     22  O   UNL     1      -5.608   3.854  25.220  0.00  0.00    -0.272 OA
BRANCH  21  23
ATOM     23  C   UNL     1      -5.816   2.753  26.107  0.00  0.00    +0.160 C 
BRANCH  23  24
ATOM     24  N   UNL     1      -6.187   2.058  25.860  0.00  0.00    -0.263 NA
ATOM     25  C   UNL     1      -6.158   1.385  26.335  0.00  0.00    +0.090 C 
ATOM     26  C   UNL     1      -6.586   2.038  25.138  0.00  0.00    +0.090 C 
ENDBRANCH  23  24
ENDBRANCH  21  23
ENDBRANCH  19  20
ENDBRANCH  18  19
TORSDOF 9
ENDMDL
