MODEL 1
REMARK VINA RESULT:     -11.6      0.000      0.000
REMARK  Name = 
REMARK  8 active torsions:
REMARK  status: ('A' for Active; 'I' for Inactive)
REMARK    1  A    between atoms: C_2  and  C_3
REMARK    2  A    between atoms: C_3  and  C_4
REMARK    3  A    between atoms: C_7  and  C_8
REMARK    4  A    between atoms: C_8  and  C_9
REMARK    5  A    between atoms: C_11  and  C_12
REMARK    6  A    between atoms: C_15  and  C_16
REMARK    7  A    between atoms: C_16  and  N_17
REMARK    8  A    between atoms: C_20  and  C_21
REMARK                            x       y       z     vdW  Elec       q    Type
REMARK                         _______ _______ _______ _____ _____    ______ ____
ROOT
ATOM      9  C   UNL     1      -3.808   2.161  23.939  0.00  0.00    +0.027 C 
ATOM     10  C   UNL     1      -4.485   2.185  24.408  0.00  0.00    +0.005 C 
ATOM     11  C   UNL     1      -4.791   1.488  24.728  0.00  0.00    +0.006 C 
ATOM     15  C   UNL     1      -4.417   0.768  24.578  0.00  0.00    +0.037 C 
ATOM     25  C   UNL     1      -3.739   0.745  24.110  0.00  0.00    -0.034 C 
ATOM     26  C   UNL     1      -3.434   1.442  23.790  0.00  0.00    -0.048 C 
ATOM     27  C   UNL     1      -2.756   1.418  23.321  0.00  0.00    +0.026 C 
ENDROOT
BRANCH  11  12
ATOM     12  C   UNL     1      -5.469   1.512  25.198  0.00  0.00    +0.000 C 
ATOM     13  C   UNL     1      -6.214   1.450  24.849  0.00  0.00    +0.000 C 
ATOM     14  C   UNL     1      -5.401   1.596  26.015  0.00  0.00    +0.000 C 
ENDBRANCH  11  12
BRANCH   9   8
ATOM      8  C   UNL     1      -3.503   2.859  23.620  0.00  0.00    +0.091 C 
BRANCH   8   7
ATOM      4  C   UNL     1      -2.480   4.223  24.904  0.00  0.00    +0.226 A 
ATOM      5  N   UNL     1      -3.230   4.566  24.872  0.00  0.00    -0.112 NA
ATOM      6  N   UNL     1      -3.705   4.097  24.386  0.00  0.00    -0.112 NA
ATOM      7  C   UNL     1      -3.248   3.464  24.119  0.00  0.00    +0.226 A 
ATOM     28  O   UNL     1      -2.491   3.542  24.439  0.00  0.00    -0.423 OA
BRANCH   4   3
ATOM      3  C   UNL     1      -1.833   4.512  25.327  0.00  0.00    +0.087 C 
BRANCH   3   2
ATOM      1  C   UNL     1      -0.541   5.052  25.045  0.00  0.00    +0.001 C 
ATOM      2  C   UNL     1      -1.363   5.108  25.004  0.00  0.00    +0.010 C 
ENDBRANCH   3   2
ENDBRANCH   4   3
ENDBRANCH   8   7
ENDBRANCH   9   8
BRANCH  15  16
ATOM     16  C   UNL     1      -4.722   0.071  24.898  0.00  0.00    +0.076 C 
BRANCH  16  17
ATOM     17  N   UNL     1      -4.295  -0.633  24.835  0.00  0.00    -0.272 NA
ATOM     18  C   UNL     1      -3.757  -0.844  25.423  0.00  0.00    +0.072 C 
ATOM     19  C   UNL     1      -3.331  -1.547  25.360  0.00  0.00    +0.020 C 
ATOM     20  C   UNL     1      -3.443  -2.040  24.707  0.00  0.00    +0.036 C 
ATOM     23  C   UNL     1      -3.982  -1.829  24.119  0.00  0.00    +0.020 C 
ATOM     24  C   UNL     1      -4.408  -1.125  24.183  0.00  0.00    +0.072 C 
BRANCH  20  21
ATOM     21  C   UNL     1      -3.017  -2.743  24.644  0.00  0.00    +0.182 C 
ATOM     22  O   UNL     1      -2.261  -2.739  24.312  0.00  0.00    -0.220 OA
ENDBRANCH  20  21
ENDBRANCH  16  17
ENDBRANCH  15  16
TORSDOF 8
ENDMDL
MODEL 2
REMARK VINA RESULT:     -11.4      0.873      1.929
REMARK  Name = 
REMARK  8 active torsions:
REMARK  status: ('A' for Active; 'I' for Inactive)
REMARK    1  A    between atoms: C_2  and  C_3
REMARK    2  A    between atoms: C_3  and  C_4
REMARK    3  A    between atoms: C_7  and  C_8
REMARK    4  A    between atoms: C_8  and  C_9
REMARK    5  A    between atoms: C_11  and  C_12
REMARK    6  A    between atoms: C_15  and  C_16
REMARK    7  A    between atoms: C_16  and  N_17
REMARK    8  A    between atoms: C_20  and  C_21
REMARK                            x       y       z     vdW  Elec       q    Type
REMARK                         _______ _______ _______ _____ _____    ______ ____
ROOT
ATOM      9  C   UNL     1      -4.004   2.369  24.592  0.00  0.00    +0.027 C 
ATOM     10  C   UNL     1      -3.395   2.378  24.036  0.00  0.00    +0.005 C 
ATOM     11  C   UNL     1      -3.149   1.675  23.682  0.00  0.00    +0.006 C 
ATOM     15  C   UNL     1      -3.513   0.962  23.884  0.00  0.00    +0.037 C 
ATOM     25  C   UNL     1      -4.122   0.954  24.439  0.00  0.00    -0.034 C 
ATOM     26  C   UNL     1      -4.368   1.657  24.794  0.00  0.00    -0.048 C 
ATOM     27  C   UNL     1      -4.977   1.648  25.350  0.00  0.00    +0.026 C 
ENDROOT
BRANCH  11  12
ATOM     12  C   UNL     1      -2.539   1.684  23.125  0.00  0.00    +0.000 C 
ATOM     13  C   UNL     1      -1.758   1.580  23.368  0.00  0.00    +0.000 C 
ATOM     14  C   UNL     1      -2.713   1.796  22.327  0.00  0.00    +0.000 C 
ENDBRANCH  11  12
BRANCH   9   8
ATOM      8  C   UNL     1      -4.249   3.073  24.947  0.00  0.00    +0.091 C 
BRANCH   8   7
ATOM      4  C   UNL     1      -2.733   4.472  25.496  0.00  0.00    +0.226 A 
ATOM      5  N   UNL     1      -2.956   4.180  26.235  0.00  0.00    -0.112 NA
ATOM      6  N   UNL     1      -3.552   3.620  26.119  0.00  0.00    -0.112 NA
ATOM      7  C   UNL     1      -3.696   3.566  25.309  0.00  0.00    +0.226 A 
ATOM     28  O   UNL     1      -3.191   4.093  24.924  0.00  0.00    -0.423 OA
BRANCH   4   3
ATOM      3  C   UNL     1      -2.155   5.043  25.354  0.00  0.00    +0.087 C 
BRANCH   3   2
ATOM      1  C   UNL     1      -0.847   5.328  24.853  0.00  0.00    +0.001 C 
ATOM      2  C   UNL     1      -1.372   4.814  25.229  0.00  0.00    +0.010 C 
ENDBRANCH   3   2
ENDBRANCH   4   3
ENDBRANCH   8   7
ENDBRANCH   9   8
BRANCH  15  16
ATOM     16  C   UNL     1      -3.267   0.259  23.529  0.00  0.00    +0.076 C 
BRANCH  16  17
ATOM     17  N   UNL     1      -3.362  -0.458  23.927  0.00  0.00    -0.272 NA
ATOM     18  C   UNL     1      -3.996  -0.952  23.742  0.00  0.00    +0.072 C 
ATOM     19  C   UNL     1      -4.090  -1.668  24.139  0.00  0.00    +0.020 C 
ATOM     20  C   UNL     1      -3.550  -1.891  24.722  0.00  0.00    +0.036 C 
ATOM     23  C   UNL     1      -2.916  -1.397  24.907  0.00  0.00    +0.020 C 
ATOM     24  C   UNL     1      -2.822  -0.680  24.509  0.00  0.00    +0.072 C 
BRANCH  20  21
ATOM     21  C   UNL     1      -3.645  -2.608  25.120  0.00  0.00    +0.182 C 
ATOM     22  O   UNL     1      -3.605  -3.319  24.703  0.00  0.00    -0.220 OA
ENDBRANCH  20  21
ENDBRANCH  16  17
ENDBRANCH  15  16
TORSDOF 8
ENDMDL
MODEL 3
REMARK VINA RESULT:     -10.5      0.953      4.772
REMARK  Name = 
REMARK  8 active torsions:
REMARK  status: ('A' for Active; 'I' for Inactive)
REMARK    1  A    between atoms: C_2  and  C_3
REMARK    2  A    between atoms: C_3  and  C_4
REMARK    3  A    between atoms: C_7  and  C_8
REMARK    4  A    between atoms: C_8  and  C_9
REMARK    5  A    between atoms: C_11  and  C_12
REMARK    6  A    between atoms: C_15  and  C_16
REMARK    7  A    between atoms: C_16  and  N_17
REMARK    8  A    between atoms: C_20  and  C_21
REMARK                            x       y       z     vdW  Elec       q    Type
REMARK                         _______ _______ _______ _____ _____    ______ ____
ROOT
ATOM      9  C   UNL     1      -3.855   0.804  23.902  0.00  0.00    +0.027 C 
ATOM     10  C   UNL     1      -4.520   0.934  24.373  0.00  0.00    +0.005 C 
ATOM     11  C   UNL     1      -4.591   1.635  24.801  0.00  0.00    +0.006 C 
ATOM     15  C   UNL     1      -3.997   2.207  24.757  0.00  0.00    +0.037 C 
ATOM     25  C   UNL     1      -3.333   2.076  24.287  0.00  0.00    -0.034 C 
ATOM     26  C   UNL     1      -3.262   1.374  23.858  0.00  0.00    -0.048 C 
ATOM     27  C   UNL     1      -2.598   1.244  23.387  0.00  0.00    +0.026 C 
ENDROOT
BRANCH  11  12
ATOM     12  C   UNL     1      -5.256   1.766  25.273  0.00  0.00    +0.000 C 
ATOM     13  C   UNL     1      -5.257   1.520  26.060  0.00  0.00    +0.000 C 
ATOM     14  C   UNL     1      -5.917   2.143  24.956  0.00  0.00    +0.000 C 
ENDBRANCH  11  12
BRANCH   9   8
ATOM      8  C   UNL     1      -3.785   0.101  23.474  0.00  0.00    +0.091 C 
BRANCH   8   7
ATOM      4  C   UNL     1      -3.260  -1.655  24.568  0.00  0.00    +0.226 A 
ATOM      5  N   UNL     1      -4.054  -1.805  24.397  0.00  0.00    -0.112 NA
ATOM      6  N   UNL     1      -4.347  -1.165  23.966  0.00  0.00    -0.112 NA
ATOM      7  C   UNL     1      -3.735  -0.620  23.871  0.00  0.00    +0.226 A 
ATOM     28  O   UNL     1      -3.063  -0.923  24.243  0.00  0.00    -0.423 OA
BRANCH   4   3
ATOM      3  C   UNL     1      -2.753  -2.151  24.990  0.00  0.00    +0.087 C 
BRANCH   3   2
ATOM      1  C   UNL     1      -1.393  -2.575  25.091  0.00  0.00    +0.001 C 
ATOM      2  C   UNL     1      -2.065  -2.435  24.634  0.00  0.00    +0.010 C 
ENDBRANCH   3   2
ENDBRANCH   4   3
ENDBRANCH   8   7
ENDBRANCH   9   8
BRANCH  15  16
ATOM     16  C   UNL     1      -4.068   2.908  25.186  0.00  0.00    +0.076 C 
BRANCH  16  17
ATOM     17  N   UNL     1      -3.434   3.436  25.220  0.00  0.00    -0.272 NA
ATOM     18  C   UNL     1      -2.872   3.368  25.820  0.00  0.00    +0.072 C 
ATOM     19  C   UNL     1      -2.239   3.895  25.854  0.00  0.00    +0.020 C 
ATOM     20  C   UNL     1      -2.168   4.492  25.288  0.00  0.00    +0.036 C 
ATOM     23  C   UNL     1      -2.730   4.560  24.689  0.00  0.00    +0.020 C 
ATOM     24  C   UNL     1      -3.364   4.032  24.654  0.00  0.00    +0.072 C 
BRANCH  20  21
ATOM     21  C   UNL     1      -1.535   5.019  25.323  0.00  0.00    +0.182 C 
ATOM     22  O   UNL     1      -0.834   4.849  24.920  0.00  0.00    -0.220 OA
ENDBRANCH  20  21
ENDBRANCH  16  17
ENDBRANCH  15  16
TORSDOF 8
ENDMDL
MODEL 4
REMARK VINA RESULT:     -10.4      1.593      5.412
REMARK  Name = 
REMARK  8 active torsions:
REMARK  status: ('A' for Active; 'I' for Inactive)
REMARK    1  A    between atoms: C_2  and  C_3
REMARK    2  A    between atoms: C_3  and  C_4
REMARK    3  A    between atoms: C_7  and  C_8
REMARK    4  A    between atoms: C_8  and  C_9
REMARK    5  A    between atoms: C_11  and  C_12
REMARK    6  A    between atoms: C_15  and  C_16
REMARK    7  A    between atoms: C_16  and  N_17
REMARK    8  A    between atoms: C_20  and  C_21
REMARK                            x       y       z     vdW  Elec       q    Type
REMARK                         _______ _______ _______ _____ _____    ______ ____
ROOT
ATOM      9  C   UNL     1      -2.965   0.944  23.960  0.00  0.00    +0.027 C 
ATOM     10  C   UNL     1      -2.324   0.513  24.250  0.00  0.00    +0.005 C 
ATOM     11  C   UNL     1      -1.695   0.904  24.613  0.00  0.00    +0.006 C 
ATOM     15  C   UNL     1      -1.707   1.727  24.686  0.00  0.00    +0.037 C 
ATOM     25  C   UNL     1      -2.348   2.156  24.395  0.00  0.00    -0.034 C 
ATOM     26  C   UNL     1      -2.978   1.765  24.032  0.00  0.00    -0.048 C 
ATOM     27  C   UNL     1      -3.619   2.195  23.742  0.00  0.00    +0.026 C 
ENDROOT
BRANCH  11  12
ATOM     12  C   UNL     1      -1.053   0.474  24.904  0.00  0.00    +0.000 C 
ATOM     13  C   UNL     1      -0.423   0.287  24.406  0.00  0.00    +0.000 C 
ATOM     14  C   UNL     1      -1.043   0.232  25.692  0.00  0.00    +0.000 C 
ENDBRANCH  11  12
BRANCH   9   8
ATOM      8  C   UNL     1      -3.594   0.551  23.597  0.00  0.00    +0.091 C 
BRANCH   8   7
ATOM      4  C   UNL     1      -4.077  -1.458  24.133  0.00  0.00    +0.226 A 
ATOM      5  N   UNL     1      -4.543  -1.034  24.667  0.00  0.00    -0.112 NA
ATOM      6  N   UNL     1      -4.418  -0.229  24.531  0.00  0.00    -0.112 NA
ATOM      7  C   UNL     1      -3.876  -0.156  23.913  0.00  0.00    +0.226 A 
ATOM     28  O   UNL     1      -3.665  -0.915  23.667  0.00  0.00    -0.423 OA
BRANCH   4   3
ATOM      3  C   UNL     1      -4.032  -2.279  24.075  0.00  0.00    +0.087 C 
BRANCH   3   2
ATOM      1  C   UNL     1      -3.294  -3.439  24.464  0.00  0.00    +0.001 C 
ATOM      2  C   UNL     1      -3.633  -2.712  24.654  0.00  0.00    +0.010 C 
ENDBRANCH   3   2
ENDBRANCH   4   3
ENDBRANCH   8   7
ENDBRANCH   9   8
BRANCH  15  16
ATOM     16  C   UNL     1      -1.078   2.118  25.048  0.00  0.00    +0.076 C 
BRANCH  16  17
ATOM     17  N   UNL     1      -1.050   2.943  25.048  0.00  0.00    -0.272 NA
ATOM     18  C   UNL     1      -0.653   3.342  24.446  0.00  0.00    +0.072 C 
ATOM     19  C   UNL     1      -0.626   4.166  24.446  0.00  0.00    +0.020 C 
ATOM     20  C   UNL     1      -0.996   4.592  25.048  0.00  0.00    +0.036 C 
ATOM     23  C   UNL     1      -1.393   4.192  25.650  0.00  0.00    +0.020 C 
ATOM     24  C   UNL     1      -1.421   3.367  25.651  0.00  0.00    +0.072 C 
BRANCH  20  21
ATOM     21  C   UNL     1      -0.968   5.416  25.048  0.00  0.00    +0.182 C 
ATOM     22  O   UNL     1      -1.669   5.852  25.050  0.00  0.00    -0.220 OA
ENDBRANCH  20  21
ENDBRANCH  16  17
ENDBRANCH  15  16
TORSDOF 8
ENDMDL
MODEL 5
REMARK VINA RESULT:     -10.2      1.901      3.299
REMARK  Name = 
REMARK  8 active torsions:
REMARK  status: ('A' for Active; 'I' for Inactive)
REMARK    1  A    between atoms: C_2  and  C_3
REMARK    2  A    between atoms: C_3  and  C_4
REMARK    3  A    between atoms: C_7  and  C_8
REMARK    4  A    between atoms: C_8  and  C_9
REMARK    5  A    between atoms: C_11  and  C_12
REMARK    6  A    between atoms: C_15  and  C_16
REMARK    7  A    between atoms: C_16  and  N_17
REMARK    8  A    between atoms: C_20  and  C_21
REMARK                            x       y       z     vdW  Elec       q    Type
REMARK                         _______ _______ _______ _____ _____    ______ ____
ROOT
ATOM      9  C   UNL     1      -2.718   2.426  24.019  0.00  0.00    +0.027 C 
ATOM     10  C   UNL     1      -2.172   2.808  24.506  0.00  0.00    +0.005 C 
ATOM     11  C   UNL     1      -1.510   2.400  24.783  0.00  0.00    +0.006 C 
ATOM     15  C   UNL     1      -1.396   1.610  24.573  0.00  0.00    +0.037 C 
ATOM     25  C   UNL     1      -1.942   1.229  24.086  0.00  0.00    -0.034 C 
ATOM     26  C   UNL     1      -2.603   1.637  23.809  0.00  0.00    -0.048 C 
ATOM     27  C   UNL     1      -3.149   1.256  23.323  0.00  0.00    +0.026 C 
ENDROOT
BRANCH  11  12
ATOM     12  C   UNL     1      -0.964   2.781  25.270  0.00  0.00    +0.000 C 
ATOM     13  C   UNL     1      -0.293   3.131  24.941  0.00  0.00    +0.000 C 
ATOM     14  C   UNL     1      -1.089   2.811  26.084  0.00  0.00    +0.000 C 
ENDBRANCH  11  12
BRANCH   9   8
ATOM      8  C   UNL     1      -3.380   2.835  23.742  0.00  0.00    +0.091 C 
BRANCH   8   7
ATOM      4  C   UNL     1      -4.900   3.227  25.188  0.00  0.00    +0.226 A 
ATOM      5  N   UNL     1      -4.646   3.993  25.012  0.00  0.00    -0.112 NA
ATOM      6  N   UNL     1      -4.046   3.939  24.449  0.00  0.00    -0.112 NA
ATOM      7  C   UNL     1      -3.928   3.140  24.277  0.00  0.00    +0.226 A 
ATOM     28  O   UNL     1      -4.457   2.701  24.734  0.00  0.00    -0.423 OA
BRANCH   4   3
ATOM      3  C   UNL     1      -5.494   3.025  25.724  0.00  0.00    +0.087 C 
BRANCH   3   2
ATOM      1  C   UNL     1      -6.284   2.005  26.339  0.00  0.00    +0.001 C 
ATOM      2  C   UNL     1      -5.826   2.270  25.705  0.00  0.00    +0.010 C 
ENDBRANCH   3   2
ENDBRANCH   4   3
ENDBRANCH   8   7
ENDBRANCH   9   8
BRANCH  15  16
ATOM     16  C   UNL     1      -0.734   1.202  24.850  0.00  0.00    +0.076 C 
BRANCH  16  17
ATOM     17  N   UNL     1      -0.746   0.378  24.893  0.00  0.00    -0.272 NA
ATOM     18  C   UNL     1      -1.107   0.003  25.533  0.00  0.00    +0.072 C 
ATOM     19  C   UNL     1      -1.119  -0.820  25.575  0.00  0.00    +0.020 C 
ATOM     20  C   UNL     1      -0.770  -1.270  24.978  0.00  0.00    +0.036 C 
ATOM     23  C   UNL     1      -0.410  -0.895  24.338  0.00  0.00    +0.020 C 
ATOM     24  C   UNL     1      -0.397  -0.071  24.295  0.00  0.00    +0.072 C 
BRANCH  20  21
ATOM     21  C   UNL     1      -0.783  -2.093  25.020  0.00  0.00    +0.182 C 
ATOM     22  O   UNL     1      -1.433  -2.512  24.732  0.00  0.00    -0.220 OA
ENDBRANCH  20  21
ENDBRANCH  16  17
ENDBRANCH  15  16
TORSDOF 8
ENDMDL
MODEL 6
REMARK VINA RESULT:     -10.2      2.517      4.395
REMARK  Name = 
REMARK  8 active torsions:
REMARK  status: ('A' for Active; 'I' for Inactive)
REMARK    1  A    between atoms: C_2  and  C_3
REMARK    2  A    between atoms: C_3  and  C_4
REMARK    3  A    between atoms: C_7  and  C_8
REMARK    4  A    between atoms: C_8  and  C_9
REMARK    5  A    between atoms: C_11  and  C_12
REMARK    6  A    between atoms: C_15  and  C_16
REMARK    7  A    between atoms: C_16  and  N_17
REMARK    8  A    between atoms: C_20  and  C_21
REMARK                            x       y       z     vdW  Elec       q    Type
REMARK                         _______ _______ _______ _____ _____    ______ ____
ROOT
ATOM      9  C   UNL     1      -1.899   0.311  25.072  0.00  0.00    +0.027 C 
ATOM     10  C   UNL     1      -2.366  -0.339  24.875  0.00  0.00    +0.005 C 
ATOM     11  C   UNL     1      -3.165  -0.235  24.698  0.00  0.00    +0.006 C 
ATOM     15  C   UNL     1      -3.497   0.521  24.719  0.00  0.00    +0.037 C 
ATOM     25  C   UNL     1      -3.029   1.170  24.916  0.00  0.00    -0.034 C 
ATOM     26  C   UNL     1      -2.230   1.066  25.093  0.00  0.00    -0.048 C 
ATOM     27  C   UNL     1      -1.763   1.717  25.290  0.00  0.00    +0.026 C 
ENDROOT
BRANCH  11  12
ATOM     12  C   UNL     1      -3.633  -0.886  24.501  0.00  0.00    +0.000 C 
ATOM     13  C   UNL     1      -3.912  -1.387  25.093  0.00  0.00    +0.000 C 
ATOM     14  C   UNL     1      -3.821  -1.033  23.712  0.00  0.00    +0.000 C 
ENDBRANCH  11  12
BRANCH   9   8
ATOM      8  C   UNL     1      -1.100   0.207  25.249  0.00  0.00    +0.091 C 
BRANCH   8   7
ATOM      4  C   UNL     1       0.202  -0.364  23.657  0.00  0.00    +0.226 A 
ATOM      5  N   UNL     1       0.129  -1.077  24.066  0.00  0.00    -0.112 NA
ATOM      6  N   UNL     1      -0.368  -0.950  24.713  0.00  0.00    -0.112 NA
ATOM      7  C   UNL     1      -0.601  -0.159  24.703  0.00  0.00    +0.226 A 
ATOM     28  O   UNL     1      -0.249   0.203  24.050  0.00  0.00    -0.423 OA
BRANCH   4   3
ATOM      3  C   UNL     1       0.648  -0.241  22.974  0.00  0.00    +0.087 C 
BRANCH   3   2
ATOM      1  C   UNL     1       1.922  -0.010  22.368  0.00  0.00    +0.001 C 
ATOM      2  C   UNL     1       1.435   0.003  23.034  0.00  0.00    +0.010 C 
ENDBRANCH   3   2
ENDBRANCH   4   3
ENDBRANCH   8   7
ENDBRANCH   9   8
BRANCH  15  16
ATOM     16  C   UNL     1      -4.296   0.625  24.542  0.00  0.00    +0.076 C 
BRANCH  16  17
ATOM     17  N   UNL     1      -4.687   1.309  24.788  0.00  0.00    -0.272 NA
ATOM     18  C   UNL     1      -4.647   1.994  24.331  0.00  0.00    +0.072 C 
ATOM     19  C   UNL     1      -5.038   2.677  24.576  0.00  0.00    +0.020 C 
ATOM     20  C   UNL     1      -5.468   2.676  25.281  0.00  0.00    +0.036 C 
ATOM     23  C   UNL     1      -5.507   1.991  25.738  0.00  0.00    +0.020 C 
ATOM     24  C   UNL     1      -5.117   1.307  25.492  0.00  0.00    +0.072 C 
BRANCH  20  21
ATOM     21  C   UNL     1      -5.858   3.359  25.527  0.00  0.00    +0.182 C 
ATOM     22  O   UNL     1      -5.424   4.012  25.785  0.00  0.00    -0.220 OA
ENDBRANCH  20  21
ENDBRANCH  16  17
ENDBRANCH  15  16
TORSDOF 8
ENDMDL
MODEL 7
REMARK VINA RESULT:      -9.9      2.182      4.695
REMARK  Name = 
REMARK  8 active torsions:
REMARK  status: ('A' for Active; 'I' for Inactive)
REMARK    1  A    between atoms: C_2  and  C_3
REMARK    2  A    between atoms: C_3  and  C_4
REMARK    3  A    between atoms: C_7  and  C_8
REMARK    4  A    between atoms: C_8  and  C_9
REMARK    5  A    between atoms: C_11  and  C_12
REMARK    6  A    between atoms: C_15  and  C_16
REMARK    7  A    between atoms: C_16  and  N_17
REMARK    8  A    between atoms: C_20  and  C_21
REMARK                            x       y       z     vdW  Elec       q    Type
REMARK                         _______ _______ _______ _____ _____    ______ ____
ROOT
ATOM      9  C   UNL     1      -1.301   1.717  24.386  0.00  0.00    +0.027 C 
ATOM     10  C   UNL     1      -1.604   1.604  23.627  0.00  0.00    +0.005 C 
ATOM     11  C   UNL     1      -2.322   1.950  23.414  0.00  0.00    +0.006 C 
ATOM     15  C   UNL     1      -2.737   2.409  23.961  0.00  0.00    +0.037 C 
ATOM     25  C   UNL     1      -2.434   2.521  24.719  0.00  0.00    -0.034 C 
ATOM     26  C   UNL     1      -1.716   2.175  24.932  0.00  0.00    -0.048 C 
ATOM     27  C   UNL     1      -1.413   2.287  25.691  0.00  0.00    +0.026 C 
ENDROOT
BRANCH  11  12
ATOM     12  C   UNL     1      -2.626   1.838  22.655  0.00  0.00    +0.000 C 
ATOM     13  C   UNL     1      -3.049   1.153  22.477  0.00  0.00    +0.000 C 
ATOM     14  C   UNL     1      -2.506   2.412  22.075  0.00  0.00    +0.000 C 
ENDBRANCH  11  12
BRANCH   9   8
ATOM      8  C   UNL     1      -0.583   1.370  24.598  0.00  0.00    +0.091 C 
BRANCH   8   7
ATOM      4  C   UNL     1      -0.586  -0.764  24.625  0.00  0.00    +0.226 A 
ATOM      5  N   UNL     1      -0.010  -0.613  24.054  0.00  0.00    -0.112 NA
ATOM      6  N   UNL     1       0.061   0.206  23.974  0.00  0.00    -0.112 NA
ATOM      7  C   UNL     1      -0.470   0.560  24.496  0.00  0.00    +0.226 A 
ATOM     28  O   UNL     1      -0.871  -0.040  24.899  0.00  0.00    -0.423 OA
BRANCH   4   3
ATOM      3  C   UNL     1      -0.834  -1.509  24.879  0.00  0.00    +0.087 C 
BRANCH   3   2
ATOM      1  C   UNL     1      -1.806  -2.556  24.853  0.00  0.00    +0.001 C 
ATOM      2  C   UNL     1      -1.490  -1.866  24.528  0.00  0.00    +0.010 C 
ENDBRANCH   3   2
ENDBRANCH   4   3
ENDBRANCH   8   7
ENDBRANCH   9   8
BRANCH  15  16
ATOM     16  C   UNL     1      -3.455   2.755  23.748  0.00  0.00    +0.076 C 
BRANCH  16  17
ATOM     17  N   UNL     1      -4.046   2.861  24.315  0.00  0.00    -0.272 NA
ATOM     18  C   UNL     1      -4.544   2.234  24.514  0.00  0.00    +0.072 C 
ATOM     19  C   UNL     1      -5.133   2.340  25.080  0.00  0.00    +0.020 C 
ATOM     20  C   UNL     1      -5.226   3.073  25.448  0.00  0.00    +0.036 C 
ATOM     23  C   UNL     1      -4.729   3.700  25.248  0.00  0.00    +0.020 C 
ATOM     24  C   UNL     1      -4.138   3.594  24.682  0.00  0.00    +0.072 C 
BRANCH  20  21
ATOM     21  C   UNL     1      -5.816   3.179  26.014  0.00  0.00    +0.182 C 
ATOM     22  O   UNL     1      -5.959   2.591  26.576  0.00  0.00    -0.220 OA
ENDBRANCH  20  21
ENDBRANCH  16  17
ENDBRANCH  15  16
TORSDOF 8
ENDMDL
MODEL 8
REMARK VINA RESULT:      -9.9      1.691      5.387
REMARK  Name = 
REMARK  8 active torsions:
REMARK  status: ('A' for Active; 'I' for Inactive)
REMARK    1  A    between atoms: C_2  and  C_3
REMARK    2  A    between atoms: C_3  and  C_4
REMARK    3  A    between atoms: C_7  and  C_8
REMARK    4  A    between atoms: C_8  and  C_9
REMARK    5  A    between atoms: C_11  and  C_12
REMARK    6  A    between atoms: C_15  and  C_16
REMARK    7  A    between atoms: C_16  and  N_17
REMARK    8  A    between atoms: C_20  and  C_21
REMARK                            x       y       z     vdW  Elec       q    Type
REMARK                         _______ _______ _______ _____ _____    ______ ____
ROOT
ATOM      9  C   UNL     1      -1.945   0.184  25.367  0.00  0.00    +0.027 C 
ATOM     10  C   UNL     1      -2.696   0.265  25.037  0.00  0.00    +0.005 C 
ATOM     11  C   UNL     1      -2.948   1.000  24.759  0.00  0.00    +0.006 C 
ATOM     15  C   UNL     1      -2.447   1.653  24.811  0.00  0.00    +0.037 C 
ATOM     25  C   UNL     1      -1.696   1.572  25.140  0.00  0.00    -0.034 C 
ATOM     26  C   UNL     1      -1.444   0.837  25.418  0.00  0.00    -0.048 C 
ATOM     27  C   UNL     1      -0.692   0.755  25.748  0.00  0.00    +0.026 C 
ENDROOT
BRANCH  11  12
ATOM     12  C   UNL     1      -3.701   1.081  24.430  0.00  0.00    +0.000 C 
ATOM     13  C   UNL     1      -4.354   1.197  24.919  0.00  0.00    +0.000 C 
ATOM     14  C   UNL     1      -3.797   1.047  23.612  0.00  0.00    +0.000 C 
ENDBRANCH  11  12
BRANCH   9   8
ATOM      8  C   UNL     1      -1.693  -0.552  25.645  0.00  0.00    +0.091 C 
BRANCH   8   7
ATOM      4  C   UNL     1      -2.492  -2.298  24.712  0.00  0.00    +0.226 A 
ATOM      5  N   UNL     1      -1.738  -2.271  24.379  0.00  0.00    -0.112 NA
ATOM      6  N   UNL     1      -1.347  -1.613  24.688  0.00  0.00    -0.112 NA
ATOM      7  C   UNL     1      -1.859  -1.234  25.212  0.00  0.00    +0.226 A 
ATOM     28  O   UNL     1      -2.567  -1.658  25.227  0.00  0.00    -0.423 OA
BRANCH   4   3
ATOM      3  C   UNL     1      -3.070  -2.867  24.558  0.00  0.00    +0.087 C 
BRANCH   3   2
ATOM      1  C   UNL     1      -4.337  -3.161  23.967  0.00  0.00    +0.001 C 
ATOM      2  C   UNL     1      -3.631  -2.734  23.968  0.00  0.00    +0.010 C 
ENDBRANCH   3   2
ENDBRANCH   4   3
ENDBRANCH   8   7
ENDBRANCH   9   8
BRANCH  15  16
ATOM     16  C   UNL     1      -2.699   2.388  24.533  0.00  0.00    +0.076 C 
BRANCH  16  17
ATOM     17  N   UNL     1      -2.240   3.061  24.673  0.00  0.00    -0.272 NA
ATOM     18  C   UNL     1      -2.416   3.556  25.308  0.00  0.00    +0.072 C 
ATOM     19  C   UNL     1      -1.958   4.227  25.447  0.00  0.00    +0.020 C 
ATOM     20  C   UNL     1      -1.323   4.404  24.950  0.00  0.00    +0.036 C 
ATOM     23  C   UNL     1      -1.148   3.909  24.315  0.00  0.00    +0.020 C 
ATOM     24  C   UNL     1      -1.606   3.237  24.175  0.00  0.00    +0.072 C 
BRANCH  20  21
ATOM     21  C   UNL     1      -0.866   5.075  25.089  0.00  0.00    +0.182 C 
ATOM     22  O   UNL     1      -1.214   5.824  25.072  0.00  0.00    -0.220 OA
ENDBRANCH  20  21
ENDBRANCH  16  17
ENDBRANCH  15  16
TORSDOF 8
ENDMDL
