MODEL 1
REMARK VINA RESULT:     -11.5      0.000      0.000
REMARK  Name = 
REMARK  4 active torsions:
REMARK  status: ('A' for Active; 'I' for Inactive)
REMARK    1  A    between atoms: O_2  and  C_3
REMARK    2  A    between atoms: C_6  and  C_7
REMARK    3  A    between atoms: C_7  and  N_8
REMARK    4  A    between atoms: N_12  and  C_18
REMARK                            x       y       z     vdW  Elec       q    Type
REMARK                         _______ _______ _______ _____ _____    ______ ____
ROOT
ATOM      8  N   UNL     1      -4.286   1.063  24.927  0.00  0.00    -0.258 N 
ATOM      9  C   UNL     1      -3.485   1.215  25.057  0.00  0.00    +0.116 C 
ATOM     10  C   UNL     1      -3.356   2.021  24.935  0.00  0.00    +0.113 C 
ATOM     11  C   UNL     1      -2.676   2.485  24.984  0.00  0.00    +0.094 C 
ATOM     12  N   UNL     1      -2.715   3.293  24.828  0.00  0.00    -0.271 NA
ATOM     13  C   UNL     1      -3.436   3.639  24.624  0.00  0.00    +0.094 C 
ATOM     14  C   UNL     1      -4.117   3.176  24.574  0.00  0.00    +0.112 C 
ATOM     15  N   UNL     1      -4.077   2.366  24.730  0.00  0.00    -0.261 N 
ATOM     16  C   UNL     1      -4.651   1.775  24.725  0.00  0.00    +0.308 C 
ATOM     17  O   UNL     1      -5.451   1.877  24.549  0.00  0.00    -0.252 OA
ENDROOT
BRANCH  12  18
ATOM     18  C   UNL     1      -2.035   3.758  24.877  0.00  0.00    +0.063 C 
ATOM     19  C   UNL     1      -1.311   3.455  24.622  0.00  0.00    +0.048 C 
ATOM     20  C   UNL     1      -0.630   3.918  24.671  0.00  0.00    +0.144 C 
ATOM     21  O   UNL     1      -0.673   4.685  24.975  0.00  0.00    -0.354 OA
ATOM     22  C   UNL     1      -1.397   4.987  25.230  0.00  0.00    +0.144 C 
ATOM     23  C   UNL     1      -2.078   4.523  25.181  0.00  0.00    +0.048 C 
ENDBRANCH  12  18
BRANCH   8   7
ATOM      7  C   UNL     1      -4.656   0.328  24.989  0.00  0.00    +0.122 C 
BRANCH   7   6
ATOM      3  C   UNL     1      -3.363  -1.746  24.603  0.00  0.00    +0.139 A 
ATOM      4  C   UNL     1      -3.396  -1.416  25.357  0.00  0.00    +0.037 A 
ATOM      5  C   UNL     1      -3.827  -0.724  25.487  0.00  0.00    +0.001 A 
ATOM      6  C   UNL     1      -4.225  -0.363  24.860  0.00  0.00    -0.002 A 
ATOM     24  C   UNL     1      -4.191  -0.694  24.105  0.00  0.00    +0.001 A 
ATOM     25  C   UNL     1      -3.760  -1.385  23.977  0.00  0.00    +0.037 A 
BRANCH   3   2
ATOM      1  C   UNL     1      -2.111  -2.433  24.546  0.00  0.00    +0.252 C 
ATOM      2  O   UNL     1      -2.932  -2.438  24.474  0.00  0.00    -0.471 OA
ENDBRANCH   3   2
ENDBRANCH   7   6
ENDBRANCH   8   7
TORSDOF 4
ENDMDL
MODEL 2
REMARK VINA RESULT:     -10.4      0.857      4.816
REMARK  Name = 
REMARK  4 active torsions:
REMARK  status: ('A' for Active; 'I' for Inactive)
REMARK    1  A    between atoms: O_2  and  C_3
REMARK    2  A    between atoms: C_6  and  C_7
REMARK    3  A    between atoms: C_7  and  N_8
REMARK    4  A    between atoms: N_12  and  C_18
REMARK                            x       y       z     vdW  Elec       q    Type
REMARK                         _______ _______ _______ _____ _____    ______ ____
ROOT
ATOM      8  N   UNL     1      -4.004   2.019  24.857  0.00  0.00    -0.258 N 
ATOM      9  C   UNL     1      -3.310   1.626  24.642  0.00  0.00    +0.116 C 
ATOM     10  C   UNL     1      -3.420   0.821  24.784  0.00  0.00    +0.113 C 
ATOM     11  C   UNL     1      -2.925   0.169  24.677  0.00  0.00    +0.094 C 
ATOM     12  N   UNL     1      -3.190  -0.587  24.872  0.00  0.00    -0.271 NA
ATOM     13  C   UNL     1      -3.951  -0.692  25.173  0.00  0.00    +0.094 C 
ATOM     14  C   UNL     1      -4.446  -0.041  25.280  0.00  0.00    +0.112 C 
ATOM     15  N   UNL     1      -4.180   0.716  25.085  0.00  0.00    -0.261 N 
ATOM     16  C   UNL     1      -4.541   1.456  25.131  0.00  0.00    +0.308 C 
ATOM     17  O   UNL     1      -5.306   1.607  25.402  0.00  0.00    -0.252 OA
ENDROOT
BRANCH  12  18
ATOM     18  C   UNL     1      -2.696  -1.238  24.765  0.00  0.00    +0.063 C 
ATOM     19  C   UNL     1      -1.904  -1.196  24.992  0.00  0.00    +0.048 C 
ATOM     20  C   UNL     1      -1.408  -1.847  24.886  0.00  0.00    +0.144 C 
ATOM     21  O   UNL     1      -1.706  -2.541  24.552  0.00  0.00    -0.354 OA
ATOM     22  C   UNL     1      -2.497  -2.583  24.325  0.00  0.00    +0.144 C 
ATOM     23  C   UNL     1      -2.992  -1.931  24.431  0.00  0.00    +0.048 C 
ENDBRANCH  12  18
BRANCH   8   7
ATOM      7  C   UNL     1      -4.137   2.831  24.806  0.00  0.00    +0.122 C 
BRANCH   7   6
ATOM      3  C   UNL     1      -2.311   4.419  25.326  0.00  0.00    +0.139 A 
ATOM      4  C   UNL     1      -2.450   4.192  24.546  0.00  0.00    +0.037 A 
ATOM      5  C   UNL     1      -3.059   3.663  24.372  0.00  0.00    +0.001 A 
ATOM      6  C   UNL     1      -3.528   3.361  24.979  0.00  0.00    -0.002 A 
ATOM     24  C   UNL     1      -3.389   3.588  25.761  0.00  0.00    +0.001 A 
ATOM     25  C   UNL     1      -2.780   4.117  25.933  0.00  0.00    +0.037 A 
BRANCH   3   2
ATOM      1  C   UNL     1      -1.022   4.964  25.034  0.00  0.00    +0.252 C 
ATOM      2  O   UNL     1      -1.702   4.948  25.500  0.00  0.00    -0.471 OA
ENDBRANCH   3   2
ENDBRANCH   7   6
ENDBRANCH   8   7
TORSDOF 4
ENDMDL
MODEL 3
REMARK VINA RESULT:     -10.1      1.932      2.681
REMARK  Name = 
REMARK  4 active torsions:
REMARK  status: ('A' for Active; 'I' for Inactive)
REMARK    1  A    between atoms: O_2  and  C_3
REMARK    2  A    between atoms: C_6  and  C_7
REMARK    3  A    between atoms: C_7  and  N_8
REMARK    4  A    between atoms: N_12  and  C_18
REMARK                            x       y       z     vdW  Elec       q    Type
REMARK                         _______ _______ _______ _____ _____    ______ ____
ROOT
ATOM      8  N   UNL     1      -0.983  -0.079  25.215  0.00  0.00    -0.258 N 
ATOM      9  C   UNL     1      -1.429   0.533  25.543  0.00  0.00    +0.116 C 
ATOM     10  C   UNL     1      -1.154   1.244  25.231  0.00  0.00    +0.113 C 
ATOM     11  C   UNL     1      -1.384   2.027  25.353  0.00  0.00    +0.094 C 
ATOM     12  N   UNL     1      -0.998   2.638  24.955  0.00  0.00    -0.271 NA
ATOM     13  C   UNL     1      -0.382   2.466  24.434  0.00  0.00    +0.094 C 
ATOM     14  C   UNL     1      -0.151   1.684  24.311  0.00  0.00    +0.112 C 
ATOM     15  N   UNL     1      -0.537   1.072  24.710  0.00  0.00    -0.261 N 
ATOM     16  C   UNL     1      -0.432   0.255  24.700  0.00  0.00    +0.308 C 
ATOM     17  O   UNL     1       0.126  -0.157  24.254  0.00  0.00    -0.252 OA
ENDROOT
BRANCH  12  18
ATOM     18  C   UNL     1      -1.228   3.421  25.077  0.00  0.00    +0.063 C 
ATOM     19  C   UNL     1      -1.975   3.588  25.385  0.00  0.00    +0.048 C 
ATOM     20  C   UNL     1      -2.206   4.370  25.508  0.00  0.00    +0.144 C 
ATOM     21  O   UNL     1      -1.689   4.986  25.322  0.00  0.00    -0.354 OA
ATOM     22  C   UNL     1      -0.942   4.820  25.013  0.00  0.00    +0.144 C 
ATOM     23  C   UNL     1      -0.712   4.036  24.891  0.00  0.00    +0.048 C 
ENDBRANCH  12  18
BRANCH   8   7
ATOM      7  C   UNL     1      -1.073  -0.884  25.374  0.00  0.00    +0.122 C 
BRANCH   7   6
ATOM      3  C   UNL     1      -3.201  -2.024  24.831  0.00  0.00    +0.139 A 
ATOM      4  C   UNL     1      -2.541  -2.133  24.350  0.00  0.00    +0.037 A 
ATOM      5  C   UNL     1      -1.831  -1.753  24.530  0.00  0.00    +0.001 A 
ATOM      6  C   UNL     1      -1.782  -1.264  25.193  0.00  0.00    -0.002 A 
ATOM     24  C   UNL     1      -2.443  -1.155  25.675  0.00  0.00    +0.001 A 
ATOM     25  C   UNL     1      -3.153  -1.535  25.494  0.00  0.00    +0.037 A 
BRANCH   3   2
ATOM      1  C   UNL     1      -4.271  -2.282  23.919  0.00  0.00    +0.252 C 
ATOM      2  O   UNL     1      -3.911  -2.404  24.651  0.00  0.00    -0.471 OA
ENDBRANCH   3   2
ENDBRANCH   7   6
ENDBRANCH   8   7
TORSDOF 4
ENDMDL
MODEL 4
REMARK VINA RESULT:     -10.0      1.620      5.142
REMARK  Name = 
REMARK  4 active torsions:
REMARK  status: ('A' for Active; 'I' for Inactive)
REMARK    1  A    between atoms: O_2  and  C_3
REMARK    2  A    between atoms: C_6  and  C_7
REMARK    3  A    between atoms: C_7  and  N_8
REMARK    4  A    between atoms: N_12  and  C_18
REMARK                            x       y       z     vdW  Elec       q    Type
REMARK                         _______ _______ _______ _____ _____    ______ ____
ROOT
ATOM      8  N   UNL     1      -1.938   1.910  24.924  0.00  0.00    -0.258 N 
ATOM      9  C   UNL     1      -2.482   1.351  24.654  0.00  0.00    +0.116 C 
ATOM     10  C   UNL     1      -2.199   0.603  24.853  0.00  0.00    +0.113 C 
ATOM     11  C   UNL     1      -2.502  -0.155  24.729  0.00  0.00    +0.094 C 
ATOM     12  N   UNL     1      -2.087  -0.815  24.995  0.00  0.00    -0.271 NA
ATOM     13  C   UNL     1      -1.368  -0.719  25.388  0.00  0.00    +0.094 C 
ATOM     14  C   UNL     1      -1.063   0.037  25.513  0.00  0.00    +0.112 C 
ATOM     15  N   UNL     1      -1.479   0.699  25.246  0.00  0.00    -0.261 N 
ATOM     16  C   UNL     1      -1.318   1.506  25.289  0.00  0.00    +0.308 C 
ATOM     17  O   UNL     1      -0.654   1.850  25.637  0.00  0.00    -0.252 OA
ENDROOT
BRANCH  12  18
ATOM     18  C   UNL     1      -2.391  -1.572  24.871  0.00  0.00    +0.063 C 
ATOM     19  C   UNL     1      -3.141  -1.766  25.152  0.00  0.00    +0.048 C 
ATOM     20  C   UNL     1      -3.446  -2.523  25.028  0.00  0.00    +0.144 C 
ATOM     21  O   UNL     1      -2.998  -3.086  24.622  0.00  0.00    -0.354 OA
ATOM     22  C   UNL     1      -2.247  -2.891  24.341  0.00  0.00    +0.144 C 
ATOM     23  C   UNL     1      -1.944  -2.134  24.466  0.00  0.00    +0.048 C 
ENDBRANCH  12  18
BRANCH   8   7
ATOM      7  C   UNL     1      -2.002   2.728  24.842  0.00  0.00    +0.122 C 
BRANCH   7   6
ATOM      3  C   UNL     1      -4.184   3.841  25.197  0.00  0.00    +0.139 A 
ATOM      4  C   UNL     1      -3.976   3.573  24.446  0.00  0.00    +0.037 A 
ATOM      5  C   UNL     1      -3.248   3.201  24.327  0.00  0.00    +0.001 A 
ATOM      6  C   UNL     1      -2.729   3.099  24.960  0.00  0.00    -0.002 A 
ATOM     24  C   UNL     1      -2.938   3.367  25.712  0.00  0.00    +0.001 A 
ATOM     25  C   UNL     1      -3.665   3.738  25.830  0.00  0.00    +0.037 A 
BRANCH   3   2
ATOM      1  C   UNL     1      -5.565   3.772  25.558  0.00  0.00    +0.252 C 
ATOM      2  O   UNL     1      -4.911   4.212  25.317  0.00  0.00    -0.471 OA
ENDBRANCH   3   2
ENDBRANCH   7   6
ENDBRANCH   8   7
TORSDOF 4
ENDMDL
MODEL 5
REMARK VINA RESULT:      -9.7      2.298      4.455
REMARK  Name = 
REMARK  4 active torsions:
REMARK  status: ('A' for Active; 'I' for Inactive)
REMARK    1  A    between atoms: O_2  and  C_3
REMARK    2  A    between atoms: C_6  and  C_7
REMARK    3  A    between atoms: C_7  and  N_8
REMARK    4  A    between atoms: N_12  and  C_18
REMARK                            x       y       z     vdW  Elec       q    Type
REMARK                         _______ _______ _______ _____ _____    ______ ____
ROOT
ATOM      8  N   UNL     1      -2.109   3.455  24.753  0.00  0.00    -0.258 N 
ATOM      9  C   UNL     1      -2.194   2.696  24.440  0.00  0.00    +0.116 C 
ATOM     10  C   UNL     1      -1.457   2.326  24.465  0.00  0.00    +0.113 C 
ATOM     11  C   UNL     1      -1.207   1.576  24.232  0.00  0.00    +0.094 C 
ATOM     12  N   UNL     1      -0.419   1.355  24.327  0.00  0.00    -0.271 NA
ATOM     13  C   UNL     1       0.121   1.885  24.656  0.00  0.00    +0.094 C 
ATOM     14  C   UNL     1      -0.127   2.635  24.890  0.00  0.00    +0.112 C 
ATOM     15  N   UNL     1      -0.917   2.856  24.795  0.00  0.00    -0.261 N 
ATOM     16  C   UNL     1      -1.320   3.553  24.972  0.00  0.00    +0.308 C 
ATOM     17  O   UNL     1      -0.992   4.231  25.310  0.00  0.00    -0.252 OA
ENDROOT
BRANCH  12  18
ATOM     18  C   UNL     1      -0.169   0.604  24.093  0.00  0.00    +0.063 C 
ATOM     19  C   UNL     1      -0.443  -0.064  24.491  0.00  0.00    +0.048 C 
ATOM     20  C   UNL     1      -0.194  -0.815  24.259  0.00  0.00    +0.144 C 
ATOM     21  O   UNL     1       0.331  -0.898  23.626  0.00  0.00    -0.354 OA
ATOM     22  C   UNL     1       0.605  -0.230  23.228  0.00  0.00    +0.144 C 
ATOM     23  C   UNL     1       0.355   0.521  23.462  0.00  0.00    +0.048 C 
ENDBRANCH  12  18
BRANCH   8   7
ATOM      7  C   UNL     1      -2.709   4.016  24.834  0.00  0.00    +0.122 C 
BRANCH   7   6
ATOM      3  C   UNL     1      -5.001   3.302  25.437  0.00  0.00    +0.139 A 
ATOM      4  C   UNL     1      -4.779   3.349  24.644  0.00  0.00    +0.037 A 
ATOM      5  C   UNL     1      -4.015   3.587  24.442  0.00  0.00    +0.001 A 
ATOM      6  C   UNL     1      -3.473   3.778  25.034  0.00  0.00    -0.002 A 
ATOM     24  C   UNL     1      -3.695   3.731  25.828  0.00  0.00    +0.001 A 
ATOM     25  C   UNL     1      -4.459   3.493  26.029  0.00  0.00    +0.037 A 
BRANCH   3   2
ATOM      1  C   UNL     1      -5.935   2.264  25.738  0.00  0.00    +0.252 C 
ATOM      2  O   UNL     1      -5.765   3.065  25.638  0.00  0.00    -0.471 OA
ENDBRANCH   3   2
ENDBRANCH   7   6
ENDBRANCH   8   7
TORSDOF 4
ENDMDL
