MODEL 1
REMARK VINA RESULT:      -8.4      0.000      0.000
REMARK  Name = 
REMARK  10 active torsions:
REMARK  status: ('A' for Active; 'I' for Inactive)
REMARK    1  A    between atoms: O_2  and  C_3
REMARK    2  A    between atoms: C_6  and  N_7
REMARK    3  A    between atoms: N_10  and  C_11
REMARK    4  A    between atoms: C_13  and  C_21
REMARK    5  A    between atoms: C_16  and  C_18
REMARK    6  A    between atoms: C_18  and  S_19
REMARK    7  A    between atoms: N_23  and  C_24
REMARK    8  A    between atoms: C_24  and  C_25
REMARK    9  A    between atoms: C_24  and  C_31
REMARK   10  A    between atoms: C_25  and  C_26
REMARK                            x       y       z     vdW  Elec       q    Type
REMARK                         _______ _______ _______ _____ _____    ______ ____
ROOT
ATOM     11  C   UNL     1       0.279   0.074  23.384  0.00  0.00    +0.119 C 
ATOM     12  C   UNL     1      -0.019   0.765  23.722  0.00  0.00    +0.053 C 
ATOM     13  C   UNL     1      -0.598   0.551  24.271  0.00  0.00    +0.155 C 
ATOM     14  N   UNL     1      -0.657  -0.271  24.271  0.00  0.00    -0.270 N 
ATOM     15  C   UNL     1      -0.116  -0.566  23.723  0.00  0.00    +0.116 C 
ATOM     16  C   UNL     1      -1.169  -0.720  24.738  0.00  0.00    +0.237 C 
ATOM     17  O   UNL     1      -1.166  -1.543  24.678  0.00  0.00    -0.274 OA
ENDROOT
BRANCH  11  10
ATOM      7  N   UNL     1       2.248   0.085  22.441  0.00  0.00    -0.161 NA
ATOM      8  C   UNL     1       1.659   0.128  23.019  0.00  0.00    +0.343 C 
ATOM      9  O   UNL     1       1.862   0.267  23.805  0.00  0.00    -0.249 OA
ATOM     10  N   UNL     1       0.867   0.031  22.808  0.00  0.00    -0.187 NA
BRANCH   7   6
ATOM      3  C   UNL     1       4.623   0.375  23.074  0.00  0.00    +0.139 A 
ATOM      4  C   UNL     1       4.201   1.007  22.754  0.00  0.00    +0.038 A 
ATOM      5  C   UNL     1       3.409   0.910  22.544  0.00  0.00    +0.020 A 
ATOM      6  C   UNL     1       3.040   0.181  22.652  0.00  0.00    +0.075 A 
ATOM     34  C   UNL     1       3.461  -0.452  22.972  0.00  0.00    +0.020 A 
ATOM     35  C   UNL     1       4.253  -0.355  23.183  0.00  0.00    +0.038 A 
BRANCH   3   2
ATOM      1  C   UNL     1       5.753  -0.021  23.854  0.00  0.00    +0.252 C 
ATOM      2  O   UNL     1       5.415   0.472  23.285  0.00  0.00    -0.471 OA
ENDBRANCH   3   2
ENDBRANCH   7   6
ENDBRANCH  11  10
BRANCH  13  21
ATOM     21  C   UNL     1      -1.038   1.070  24.736  0.00  0.00    +0.260 C 
ATOM     22  O   UNL     1      -1.138   0.918  25.542  0.00  0.00    -0.272 OA
ATOM     23  N   UNL     1      -1.379   1.741  24.398  0.00  0.00    -0.196 NA
BRANCH  23  24
ATOM     24  C   UNL     1      -1.820   2.259  24.865  0.00  0.00    +0.179 C 
BRANCH  24  31
ATOM     31  C   UNL     1      -1.443   2.864  25.280  0.00  0.00    +0.281 C 
ATOM     32  N   UNL     1      -1.588   2.965  26.086  0.00  0.00    -0.086 NA
ATOM     33  O   UNL     1      -0.920   3.368  24.890  0.00  0.00    -0.270 OA
ENDBRANCH  24  31
BRANCH  24  25
ATOM     25  C   UNL     1      -2.639   2.172  24.917  0.00  0.00    +0.064 C 
BRANCH  25  26
ATOM     26  C   UNL     1      -3.129   2.538  24.363  0.00  0.00    +0.010 A 
ATOM     27  C   UNL     1      -3.179   2.351  23.561  0.00  0.00    +0.003 A 
ATOM     28  C   UNL     1      -3.736   2.853  23.217  0.00  0.00    +0.007 A 
ATOM     29  C   UNL     1      -4.030   3.351  23.806  0.00  0.00    +0.035 A 
ATOM     30  S   UNL     1      -3.655   3.156  24.515  0.00  0.00    -0.091 S 
ENDBRANCH  25  26
ENDBRANCH  24  25
ENDBRANCH  23  24
ENDBRANCH  13  21
BRANCH  16  18
ATOM     18  C   UNL     1      -1.682  -0.346  25.264  0.00  0.00    +0.143 C 
BRANCH  18  19
ATOM     19  S   UNL     1      -2.088  -0.789  25.828  0.00  0.00    -0.130 S 
ATOM     20  C   UNL     1      -2.882  -0.979  25.711  0.00  0.00    +0.070 C 
ENDBRANCH  18  19
ENDBRANCH  16  18
TORSDOF 10
ENDMDL
MODEL 2
REMARK VINA RESULT:      -8.3      3.390      4.956
REMARK  Name = 
REMARK  10 active torsions:
REMARK  status: ('A' for Active; 'I' for Inactive)
REMARK    1  A    between atoms: O_2  and  C_3
REMARK    2  A    between atoms: C_6  and  N_7
REMARK    3  A    between atoms: N_10  and  C_11
REMARK    4  A    between atoms: C_13  and  C_21
REMARK    5  A    between atoms: C_16  and  C_18
REMARK    6  A    between atoms: C_18  and  S_19
REMARK    7  A    between atoms: N_23  and  C_24
REMARK    8  A    between atoms: C_24  and  C_25
REMARK    9  A    between atoms: C_24  and  C_31
REMARK   10  A    between atoms: C_25  and  C_26
REMARK                            x       y       z     vdW  Elec       q    Type
REMARK                         _______ _______ _______ _____ _____    ______ ____
ROOT
ATOM     11  C   UNL     1      -1.299   1.165  25.474  0.00  0.00    +0.119 C 
ATOM     12  C   UNL     1      -2.040   1.504  25.347  0.00  0.00    +0.053 C 
ATOM     13  C   UNL     1      -1.933   2.312  25.220  0.00  0.00    +0.155 C 
ATOM     14  N   UNL     1      -1.126   2.474  25.268  0.00  0.00    -0.270 N 
ATOM     15  C   UNL     1      -0.733   1.765  25.425  0.00  0.00    +0.116 C 
ATOM     16  C   UNL     1      -0.773   3.213  25.176  0.00  0.00    +0.237 C 
ATOM     17  O   UNL     1       0.046   3.290  25.240  0.00  0.00    -0.274 OA
ENDROOT
BRANCH  11  10
ATOM      7  N   UNL     1      -1.511  -1.007  25.483  0.00  0.00    -0.161 NA
ATOM      8  C   UNL     1      -1.662  -0.209  25.334  0.00  0.00    +0.343 C 
ATOM      9  O   UNL     1      -2.325   0.010  24.896  0.00  0.00    -0.249 OA
ATOM     10  N   UNL     1      -1.149   0.369  25.623  0.00  0.00    -0.187 NA
BRANCH   7   6
ATOM      3  C   UNL     1      -3.052  -2.740  24.617  0.00  0.00    +0.139 A 
ATOM      4  C   UNL     1      -3.285  -2.257  25.243  0.00  0.00    +0.038 A 
ATOM      5  C   UNL     1      -2.771  -1.679  25.532  0.00  0.00    +0.020 A 
ATOM      6  C   UNL     1      -2.025  -1.585  25.194  0.00  0.00    +0.075 A 
ATOM     34  C   UNL     1      -1.791  -2.068  24.568  0.00  0.00    +0.020 A 
ATOM     35  C   UNL     1      -2.305  -2.646  24.279  0.00  0.00    +0.038 A 
BRANCH   3   2
ATOM      1  C   UNL     1      -4.195  -3.102  23.839  0.00  0.00    +0.252 C 
ATOM      2  O   UNL     1      -3.565  -3.317  24.328  0.00  0.00    -0.471 OA
ENDBRANCH   3   2
ENDBRANCH   7   6
ENDBRANCH  11  10
BRANCH  13  21
ATOM     21  C   UNL     1      -2.530   2.862  25.071  0.00  0.00    +0.260 C 
ATOM     22  O   UNL     1      -2.458   3.635  25.354  0.00  0.00    -0.272 OA
ATOM     23  N   UNL     1      -3.198   2.641  24.641  0.00  0.00    -0.196 NA
BRANCH  23  24
ATOM     24  C   UNL     1      -3.794   3.192  24.492  0.00  0.00    +0.179 C 
BRANCH  24  31
ATOM     31  C   UNL     1      -3.856   3.543  23.749  0.00  0.00    +0.281 C 
ATOM     32  N   UNL     1      -3.744   3.091  23.068  0.00  0.00    -0.086 NA
ATOM     33  O   UNL     1      -4.030   4.347  23.686  0.00  0.00    -0.270 OA
ENDBRANCH  24  31
BRANCH  24  25
ATOM     25  C   UNL     1      -4.328   3.391  25.089  0.00  0.00    +0.064 C 
BRANCH  25  26
ATOM     26  C   UNL     1      -4.978   2.906  25.240  0.00  0.00    +0.010 A 
ATOM     27  C   UNL     1      -5.247   2.292  24.760  0.00  0.00    +0.003 A 
ATOM     28  C   UNL     1      -5.908   1.957  25.122  0.00  0.00    +0.007 A 
ATOM     29  C   UNL     1      -6.049   2.365  25.826  0.00  0.00    +0.035 A 
ATOM     30  S   UNL     1      -5.473   2.952  25.899  0.00  0.00    -0.091 S 
ENDBRANCH  25  26
ENDBRANCH  24  25
ENDBRANCH  23  24
ENDBRANCH  13  21
BRANCH  16  18
ATOM     18  C   UNL     1      -1.238   3.876  25.020  0.00  0.00    +0.143 C 
BRANCH  18  19
ATOM     19  S   UNL     1      -0.884   4.582  24.785  0.00  0.00    -0.130 S 
ATOM     20  C   UNL     1      -1.123   5.296  25.123  0.00  0.00    +0.070 C 
ENDBRANCH  18  19
ENDBRANCH  16  18
TORSDOF 10
ENDMDL
MODEL 3
REMARK VINA RESULT:      -8.1      1.157      2.750
REMARK  Name = 
REMARK  10 active torsions:
REMARK  status: ('A' for Active; 'I' for Inactive)
REMARK    1  A    between atoms: O_2  and  C_3
REMARK    2  A    between atoms: C_6  and  N_7
REMARK    3  A    between atoms: N_10  and  C_11
REMARK    4  A    between atoms: C_13  and  C_21
REMARK    5  A    between atoms: C_16  and  C_18
REMARK    6  A    between atoms: C_18  and  S_19
REMARK    7  A    between atoms: N_23  and  C_24
REMARK    8  A    between atoms: C_24  and  C_25
REMARK    9  A    between atoms: C_24  and  C_31
REMARK   10  A    between atoms: C_25  and  C_26
REMARK                            x       y       z     vdW  Elec       q    Type
REMARK                         _______ _______ _______ _____ _____    ______ ____
ROOT
ATOM     11  C   UNL     1       0.176   0.376  23.247  0.00  0.00    +0.119 C 
ATOM     12  C   UNL     1      -0.222  -0.096  23.795  0.00  0.00    +0.053 C 
ATOM     13  C   UNL     1      -0.788   0.372  24.171  0.00  0.00    +0.155 C 
ATOM     14  N   UNL     1      -0.740   1.133  23.856  0.00  0.00    -0.270 N 
ATOM     15  C   UNL     1      -0.145   1.136  23.286  0.00  0.00    +0.116 C 
ATOM     16  C   UNL     1      -1.206   1.778  24.074  0.00  0.00    +0.237 C 
ATOM     17  O   UNL     1      -1.094   2.509  23.709  0.00  0.00    -0.274 OA
ENDROOT
BRANCH  11  10
ATOM      7  N   UNL     1       2.183   0.013  22.470  0.00  0.00    -0.161 NA
ATOM      8  C   UNL     1       1.572   0.258  22.968  0.00  0.00    +0.343 C 
ATOM      9  O   UNL     1       1.747   0.628  23.684  0.00  0.00    -0.249 OA
ATOM     10  N   UNL     1       0.786   0.132  22.750  0.00  0.00    -0.187 NA
BRANCH   7   6
ATOM      3  C   UNL     1       4.540   0.390  23.125  0.00  0.00    +0.139 A 
ATOM      4  C   UNL     1       4.170  -0.324  23.308  0.00  0.00    +0.038 A 
ATOM      5  C   UNL     1       3.384  -0.449  23.090  0.00  0.00    +0.020 A 
ATOM      6  C   UNL     1       2.969   0.139  22.688  0.00  0.00    +0.075 A 
ATOM     34  C   UNL     1       3.338   0.853  22.505  0.00  0.00    +0.020 A 
ATOM     35  C   UNL     1       4.124   0.979  22.723  0.00  0.00    +0.038 A 
BRANCH   3   2
ATOM      1  C   UNL     1       5.697  -0.008  23.863  0.00  0.00    +0.252 C 
ATOM      2  O   UNL     1       5.325   0.516  23.344  0.00  0.00    -0.471 OA
ENDBRANCH   3   2
ENDBRANCH   7   6
ENDBRANCH  11  10
BRANCH  13  21
ATOM     21  C   UNL     1      -1.311   0.122  24.758  0.00  0.00    +0.260 C 
ATOM     22  O   UNL     1      -1.431   0.589  25.429  0.00  0.00    -0.272 OA
ATOM     23  N   UNL     1      -1.713  -0.593  24.677  0.00  0.00    -0.196 NA
BRANCH  23  24
ATOM     24  C   UNL     1      -2.235  -0.842  25.265  0.00  0.00    +0.179 C 
BRANCH  24  31
ATOM     31  C   UNL     1      -1.944  -1.158  25.969  0.00  0.00    +0.281 C 
ATOM     32  N   UNL     1      -2.296  -0.959  26.688  0.00  0.00    -0.086 NA
ATOM     33  O   UNL     1      -1.300  -1.674  25.954  0.00  0.00    -0.270 OA
ENDBRANCH  24  31
BRANCH  24  25
ATOM     25  C   UNL     1      -3.049  -0.775  25.149  0.00  0.00    +0.064 C 
BRANCH  25  26
ATOM     26  C   UNL     1      -3.446  -1.326  24.681  0.00  0.00    +0.010 A 
ATOM     27  C   UNL     1      -3.330  -2.143  24.689  0.00  0.00    +0.003 A 
ATOM     28  C   UNL     1      -3.842  -2.479  24.136  0.00  0.00    +0.007 A 
ATOM     29  C   UNL     1      -4.274  -1.869  23.786  0.00  0.00    +0.035 A 
ATOM     30  S   UNL     1      -4.030  -1.157  24.123  0.00  0.00    -0.091 S 
ENDBRANCH  25  26
ENDBRANCH  24  25
ENDBRANCH  23  24
ENDBRANCH  13  21
BRANCH  16  18
ATOM     18  C   UNL     1      -1.783   1.692  24.656  0.00  0.00    +0.143 C 
BRANCH  18  19
ATOM     19  S   UNL     1      -2.137   2.359  24.988  0.00  0.00    -0.130 S 
ATOM     20  C   UNL     1      -2.918   2.548  24.803  0.00  0.00    +0.070 C 
ENDBRANCH  18  19
ENDBRANCH  16  18
TORSDOF 10
ENDMDL
MODEL 4
REMARK VINA RESULT:      -7.2      2.279      5.896
REMARK  Name = 
REMARK  10 active torsions:
REMARK  status: ('A' for Active; 'I' for Inactive)
REMARK    1  A    between atoms: O_2  and  C_3
REMARK    2  A    between atoms: C_6  and  N_7
REMARK    3  A    between atoms: N_10  and  C_11
REMARK    4  A    between atoms: C_13  and  C_21
REMARK    5  A    between atoms: C_16  and  C_18
REMARK    6  A    between atoms: C_18  and  S_19
REMARK    7  A    between atoms: N_23  and  C_24
REMARK    8  A    between atoms: C_24  and  C_25
REMARK    9  A    between atoms: C_24  and  C_31
REMARK   10  A    between atoms: C_25  and  C_26
REMARK                            x       y       z     vdW  Elec       q    Type
REMARK                         _______ _______ _______ _____ _____    ______ ____
ROOT
ATOM     11  C   UNL     1      -0.784   2.068  24.881  0.00  0.00    +0.119 C 
ATOM     12  C   UNL     1      -0.988   1.295  25.083  0.00  0.00    +0.053 C 
ATOM     13  C   UNL     1      -0.520   0.782  24.637  0.00  0.00    +0.155 C 
ATOM     14  N   UNL     1      -0.026   1.238  24.159  0.00  0.00    -0.270 N 
ATOM     15  C   UNL     1      -0.189   2.033  24.309  0.00  0.00    +0.116 C 
ATOM     16  C   UNL     1       0.532   0.951  23.624  0.00  0.00    +0.237 C 
ATOM     17  O   UNL     1       0.988   1.477  23.182  0.00  0.00    -0.274 OA
ENDROOT
BRANCH  11  10
ATOM      7  N   UNL     1      -2.265   3.552  25.489  0.00  0.00    -0.161 NA
ATOM      8  C   UNL     1      -1.934   2.864  25.176  0.00  0.00    +0.343 C 
ATOM      9  O   UNL     1      -2.419   2.286  24.845  0.00  0.00    -0.249 OA
ATOM     10  N   UNL     1      -1.116   2.755  25.194  0.00  0.00    -0.187 NA
BRANCH   7   6
ATOM      3  C   UNL     1      -4.719   3.877  25.436  0.00  0.00    +0.139 A 
ATOM      4  C   UNL     1      -4.341   3.700  26.147  0.00  0.00    +0.038 A 
ATOM      5  C   UNL     1      -3.524   3.591  26.165  0.00  0.00    +0.020 A 
ATOM      6  C   UNL     1      -3.083   3.660  25.471  0.00  0.00    +0.075 A 
ATOM     34  C   UNL     1      -3.459   3.838  24.759  0.00  0.00    +0.020 A 
ATOM     35  C   UNL     1      -4.277   3.947  24.741  0.00  0.00    +0.038 A 
BRANCH   3   2
ATOM      1  C   UNL     1      -6.039   3.356  25.596  0.00  0.00    +0.252 C 
ATOM      2  O   UNL     1      -5.536   3.986  25.418  0.00  0.00    -0.471 OA
ENDBRANCH   3   2
ENDBRANCH   7   6
ENDBRANCH  11  10
BRANCH  13  21
ATOM     21  C   UNL     1      -0.542  -0.042  24.665  0.00  0.00    +0.260 C 
ATOM     22  O   UNL     1       0.129  -0.479  24.463  0.00  0.00    -0.272 OA
ATOM     23  N   UNL     1      -1.233  -0.429  24.894  0.00  0.00    -0.196 NA
BRANCH  23  24
ATOM     24  C   UNL     1      -1.254  -1.253  24.922  0.00  0.00    +0.179 C 
BRANCH  24  31
ATOM     31  C   UNL     1      -0.887  -1.655  25.541  0.00  0.00    +0.281 C 
ATOM     32  N   UNL     1      -0.410  -2.310  25.384  0.00  0.00    -0.086 NA
ATOM     33  O   UNL     1      -0.997  -1.403  26.319  0.00  0.00    -0.270 OA
ENDBRANCH  24  31
BRANCH  24  25
ATOM     25  C   UNL     1      -1.642  -1.676  24.329  0.00  0.00    +0.064 C 
BRANCH  25  26
ATOM     26  C   UNL     1      -2.458  -1.785  24.367  0.00  0.00    +0.010 A 
ATOM     27  C   UNL     1      -3.032  -1.213  24.218  0.00  0.00    +0.003 A 
ATOM     28  C   UNL     1      -3.773  -1.561  24.320  0.00  0.00    +0.007 A 
ATOM     29  C   UNL     1      -3.657  -2.350  24.532  0.00  0.00    +0.035 A 
ATOM     30  S   UNL     1      -2.844  -2.489  24.561  0.00  0.00    -0.091 S 
ENDBRANCH  25  26
ENDBRANCH  24  25
ENDBRANCH  23  24
ENDBRANCH  13  21
BRANCH  16  18
ATOM     18  C   UNL     1       0.634   0.138  23.533  0.00  0.00    +0.143 C 
BRANCH  18  19
ATOM     19  S   UNL     1       1.273  -0.151  23.098  0.00  0.00    -0.130 S 
ATOM     20  C   UNL     1       1.164  -0.401  22.320  0.00  0.00    +0.070 C 
ENDBRANCH  18  19
ENDBRANCH  16  18
TORSDOF 10
ENDMDL
MODEL 5
REMARK VINA RESULT:      -6.8      2.736      5.488
REMARK  Name = 
REMARK  10 active torsions:
REMARK  status: ('A' for Active; 'I' for Inactive)
REMARK    1  A    between atoms: O_2  and  C_3
REMARK    2  A    between atoms: C_6  and  N_7
REMARK    3  A    between atoms: N_10  and  C_11
REMARK    4  A    between atoms: C_13  and  C_21
REMARK    5  A    between atoms: C_16  and  C_18
REMARK    6  A    between atoms: C_18  and  S_19
REMARK    7  A    between atoms: N_23  and  C_24
REMARK    8  A    between atoms: C_24  and  C_25
REMARK    9  A    between atoms: C_24  and  C_31
REMARK   10  A    between atoms: C_25  and  C_26
REMARK                            x       y       z     vdW  Elec       q    Type
REMARK                         _______ _______ _______ _____ _____    ______ ____
ROOT
ATOM     11  C   UNL     1      -3.895   0.827  24.893  0.00  0.00    +0.119 C 
ATOM     12  C   UNL     1      -3.123   0.551  24.980  0.00  0.00    +0.053 C 
ATOM     13  C   UNL     1      -3.109  -0.244  24.757  0.00  0.00    +0.155 C 
ATOM     14  N   UNL     1      -3.873  -0.459  24.532  0.00  0.00    -0.270 N 
ATOM     15  C   UNL     1      -4.359   0.203  24.616  0.00  0.00    +0.116 C 
ATOM     16  C   UNL     1      -4.109  -1.204  24.270  0.00  0.00    +0.237 C 
ATOM     17  O   UNL     1      -4.897  -1.338  24.064  0.00  0.00    -0.274 OA
ENDROOT
BRANCH  11  10
ATOM      7  N   UNL     1      -3.884   2.983  25.236  0.00  0.00    -0.161 NA
ATOM      8  C   UNL     1      -3.620   2.217  25.075  0.00  0.00    +0.343 C 
ATOM      9  O   UNL     1      -2.819   2.078  24.935  0.00  0.00    -0.249 OA
ATOM     10  N   UNL     1      -4.158   1.592  25.054  0.00  0.00    -0.187 NA
BRANCH   7   6
ATOM      3  C   UNL     1      -2.269   4.858  25.300  0.00  0.00    +0.139 A 
ATOM      4  C   UNL     1      -2.482   4.473  25.997  0.00  0.00    +0.038 A 
ATOM      5  C   UNL     1      -3.020   3.848  25.976  0.00  0.00    +0.020 A 
ATOM      6  C   UNL     1      -3.345   3.608  25.257  0.00  0.00    +0.075 A 
ATOM     34  C   UNL     1      -3.134   3.993  24.559  0.00  0.00    +0.020 A 
ATOM     35  C   UNL     1      -2.595   4.618  24.580  0.00  0.00    +0.038 A 
BRANCH   3   2
ATOM      1  C   UNL     1      -0.988   5.400  24.972  0.00  0.00    +0.252 C 
ATOM      2  O   UNL     1      -1.731   5.483  25.321  0.00  0.00    -0.471 OA
ENDBRANCH   3   2
ENDBRANCH   7   6
ENDBRANCH  11  10
BRANCH  13  21
ATOM     21  C   UNL     1      -2.447  -0.736  24.759  0.00  0.00    +0.260 C 
ATOM     22  O   UNL     1      -2.542  -1.555  24.721  0.00  0.00    -0.272 OA
ATOM     23  N   UNL     1      -1.690  -0.410  24.798  0.00  0.00    -0.196 NA
BRANCH  23  24
ATOM     24  C   UNL     1      -1.029  -0.903  24.799  0.00  0.00    +0.179 C 
BRANCH  24  31
ATOM     31  C   UNL     1      -0.769  -1.242  25.504  0.00  0.00    +0.281 C 
ATOM     32  N   UNL     1      -0.490  -2.019  25.511  0.00  0.00    -0.086 NA
ATOM     33  O   UNL     1      -0.786  -0.805  26.204  0.00  0.00    -0.270 OA
ENDBRANCH  24  31
BRANCH  24  25
ATOM     25  C   UNL     1      -0.627  -1.057  24.095  0.00  0.00    +0.064 C 
BRANCH  25  26
ATOM     26  C   UNL     1      -0.103  -0.499  23.788  0.00  0.00    +0.010 A 
ATOM     27  C   UNL     1      -0.147   0.318  23.895  0.00  0.00    +0.003 A 
ATOM     28  C   UNL     1       0.487   0.662  23.494  0.00  0.00    +0.007 A 
ATOM     29  C   UNL     1       0.922   0.057  23.138  0.00  0.00    +0.035 A 
ATOM     30  S   UNL     1       0.558  -0.660  23.321  0.00  0.00    -0.091 S 
ENDBRANCH  25  26
ENDBRANCH  24  25
ENDBRANCH  23  24
ENDBRANCH  13  21
BRANCH  16  18
ATOM     18  C   UNL     1      -3.559  -1.815  24.214  0.00  0.00    +0.143 C 
BRANCH  18  19
ATOM     19  S   UNL     1      -3.772  -2.532  23.867  0.00  0.00    -0.130 S 
ATOM     20  C   UNL     1      -3.705  -3.234  24.295  0.00  0.00    +0.070 C 
ENDBRANCH  18  19
ENDBRANCH  16  18
TORSDOF 10
ENDMDL
MODEL 6
REMARK VINA RESULT:      -6.7      2.545      5.683
REMARK  Name = 
REMARK  10 active torsions:
REMARK  status: ('A' for Active; 'I' for Inactive)
REMARK    1  A    between atoms: O_2  and  C_3
REMARK    2  A    between atoms: C_6  and  N_7
REMARK    3  A    between atoms: N_10  and  C_11
REMARK    4  A    between atoms: C_13  and  C_21
REMARK    5  A    between atoms: C_16  and  C_18
REMARK    6  A    between atoms: C_18  and  S_19
REMARK    7  A    between atoms: N_23  and  C_24
REMARK    8  A    between atoms: C_24  and  C_25
REMARK    9  A    between atoms: C_24  and  C_31
REMARK   10  A    between atoms: C_25  and  C_26
REMARK                            x       y       z     vdW  Elec       q    Type
REMARK                         _______ _______ _______ _____ _____    ______ ____
ROOT
ATOM     11  C   UNL     1      -3.627   1.854  24.888  0.00  0.00    +0.119 C 
ATOM     12  C   UNL     1      -2.812   1.756  24.812  0.00  0.00    +0.053 C 
ATOM     13  C   UNL     1      -2.456   2.494  24.916  0.00  0.00    +0.155 C 
ATOM     14  N   UNL     1      -3.051   3.047  25.056  0.00  0.00    -0.270 N 
ATOM     15  C   UNL     1      -3.775   2.652  25.040  0.00  0.00    +0.116 C 
ATOM     16  C   UNL     1      -2.941   3.853  25.190  0.00  0.00    +0.237 C 
ATOM     17  O   UNL     1      -3.593   4.341  25.324  0.00  0.00    -0.274 OA
ENDROOT
BRANCH  11  10
ATOM      7  N   UNL     1      -4.530  -0.121  24.667  0.00  0.00    -0.161 NA
ATOM      8  C   UNL     1      -3.961   0.474  24.730  0.00  0.00    +0.343 C 
ATOM      9  O   UNL     1      -3.160   0.283  24.698  0.00  0.00    -0.249 OA
ATOM     10  N   UNL     1      -4.195   1.260  24.825  0.00  0.00    -0.187 NA
BRANCH   7   6
ATOM      3  C   UNL     1      -3.828  -2.478  24.382  0.00  0.00    +0.139 A 
ATOM      4  C   UNL     1      -3.710  -2.096  25.104  0.00  0.00    +0.038 A 
ATOM      5  C   UNL     1      -3.944  -1.310  25.198  0.00  0.00    +0.020 A 
ATOM      6  C   UNL     1      -4.296  -0.907  24.572  0.00  0.00    +0.075 A 
ATOM     34  C   UNL     1      -4.415  -1.287  23.850  0.00  0.00    +0.020 A 
ATOM     35  C   UNL     1      -4.181  -2.073  23.755  0.00  0.00    +0.038 A 
BRANCH   3   2
ATOM      1  C   UNL     1      -2.791  -3.453  24.258  0.00  0.00    +0.252 C 
ATOM      2  O   UNL     1      -3.594  -3.263  24.288  0.00  0.00    -0.471 OA
ENDBRANCH   3   2
ENDBRANCH   7   6
ENDBRANCH  11  10
BRANCH  13  21
ATOM     21  C   UNL     1      -1.646   2.649  24.884  0.00  0.00    +0.260 C 
ATOM     22  O   UNL     1      -1.377   3.382  24.615  0.00  0.00    -0.272 OA
ATOM     23  N   UNL     1      -1.105   2.073  25.121  0.00  0.00    -0.196 NA
BRANCH  23  24
ATOM     24  C   UNL     1      -0.296   2.229  25.089  0.00  0.00    +0.179 C 
BRANCH  24  31
ATOM     31  C   UNL     1       0.121   2.390  25.782  0.00  0.00    +0.281 C 
ATOM     32  N   UNL     1      -0.041   1.965  26.470  0.00  0.00    -0.086 NA
ATOM     33  O   UNL     1       0.702   2.976  25.786  0.00  0.00    -0.270 OA
ENDBRANCH  24  31
BRANCH  24  25
ATOM     25  C   UNL     1       0.096   2.225  24.363  0.00  0.00    +0.064 C 
BRANCH  25  26
ATOM     26  C   UNL     1       0.364   1.513  24.043  0.00  0.00    +0.010 A 
ATOM     27  C   UNL     1      -0.087   0.833  23.927  0.00  0.00    +0.003 A 
ATOM     28  C   UNL     1       0.401   0.257  23.595  0.00  0.00    +0.007 A 
ATOM     29  C   UNL     1       1.155   0.582  23.505  0.00  0.00    +0.035 A 
ATOM     30  S   UNL     1       1.132   1.359  23.782  0.00  0.00    -0.091 S 
ENDBRANCH  25  26
ENDBRANCH  24  25
ENDBRANCH  23  24
ENDBRANCH  13  21
BRANCH  16  18
ATOM     18  C   UNL     1      -2.180   4.171  25.191  0.00  0.00    +0.143 C 
BRANCH  18  19
ATOM     19  S   UNL     1      -2.056   4.943  25.454  0.00  0.00    -0.130 S 
ATOM     20  C   UNL     1      -1.568   5.452  25.027  0.00  0.00    +0.070 C 
ENDBRANCH  18  19
ENDBRANCH  16  18
TORSDOF 10
ENDMDL
MODEL 7
REMARK VINA RESULT:      -6.7      1.465      2.273
REMARK  Name = 
REMARK  10 active torsions:
REMARK  status: ('A' for Active; 'I' for Inactive)
REMARK    1  A    between atoms: O_2  and  C_3
REMARK    2  A    between atoms: C_6  and  N_7
REMARK    3  A    between atoms: N_10  and  C_11
REMARK    4  A    between atoms: C_13  and  C_21
REMARK    5  A    between atoms: C_16  and  C_18
REMARK    6  A    between atoms: C_18  and  S_19
REMARK    7  A    between atoms: N_23  and  C_24
REMARK    8  A    between atoms: C_24  and  C_25
REMARK    9  A    between atoms: C_24  and  C_31
REMARK   10  A    between atoms: C_25  and  C_26
REMARK                            x       y       z     vdW  Elec       q    Type
REMARK                         _______ _______ _______ _____ _____    ______ ____
ROOT
ATOM     11  C   UNL     1       0.330   0.786  23.509  0.00  0.00    +0.119 C 
ATOM     12  C   UNL     1      -0.458   0.924  23.306  0.00  0.00    +0.053 C 
ATOM     13  C   UNL     1      -0.777   1.445  23.862  0.00  0.00    +0.155 C 
ATOM     14  N   UNL     1      -0.186   1.629  24.407  0.00  0.00    -0.270 N 
ATOM     15  C   UNL     1       0.498   1.222  24.189  0.00  0.00    +0.116 C 
ATOM     16  C   UNL     1      -0.265   2.132  25.056  0.00  0.00    +0.237 C 
ATOM     17  O   UNL     1       0.378   2.264  25.556  0.00  0.00    -0.274 OA
ENDROOT
BRANCH  11  10
ATOM      7  N   UNL     1       2.197  -0.071  22.771  0.00  0.00    -0.161 NA
ATOM      8  C   UNL     1       1.670   0.418  23.178  0.00  0.00    +0.343 C 
ATOM      9  O   UNL     1       1.956   1.023  23.659  0.00  0.00    -0.249 OA
ATOM     10  N   UNL     1       0.857   0.299  23.103  0.00  0.00    -0.187 NA
BRANCH   7   6
ATOM      3  C   UNL     1       4.636   0.286  22.997  0.00  0.00    +0.139 A 
ATOM      4  C   UNL     1       4.179   0.818  22.563  0.00  0.00    +0.038 A 
ATOM      5  C   UNL     1       3.367   0.699  22.488  0.00  0.00    +0.020 A 
ATOM      6  C   UNL     1       3.010   0.048  22.847  0.00  0.00    +0.075 A 
ATOM     34  C   UNL     1       3.466  -0.485  23.280  0.00  0.00    +0.020 A 
ATOM     35  C   UNL     1       4.280  -0.366  23.356  0.00  0.00    +0.038 A 
BRANCH   3   2
ATOM      1  C   UNL     1       5.819   0.280  23.799  0.00  0.00    +0.252 C 
ATOM      2  O   UNL     1       5.449   0.405  23.071  0.00  0.00    -0.471 OA
ENDBRANCH   3   2
ENDBRANCH   7   6
ENDBRANCH  11  10
BRANCH  13  21
ATOM     21  C   UNL     1      -1.550   1.731  23.869  0.00  0.00    +0.260 C 
ATOM     22  O   UNL     1      -1.692   2.532  24.010  0.00  0.00    -0.272 OA
ATOM     23  N   UNL     1      -2.182   1.217  23.736  0.00  0.00    -0.196 NA
BRANCH  23  24
ATOM     24  C   UNL     1      -2.955   1.504  23.743  0.00  0.00    +0.179 C 
BRANCH  24  31
ATOM     31  C   UNL     1      -3.224   1.983  23.128  0.00  0.00    +0.281 C 
ATOM     32  N   UNL     1      -3.704   2.634  23.291  0.00  0.00    -0.086 NA
ATOM     33  O   UNL     1      -3.013   1.811  22.350  0.00  0.00    -0.270 OA
ENDBRANCH  24  31
BRANCH  24  25
ATOM     25  C   UNL     1      -3.460   1.312  24.367  0.00  0.00    +0.064 C 
BRANCH  25  26
ATOM     26  C   UNL     1      -3.700   0.531  24.478  0.00  0.00    +0.010 A 
ATOM     27  C   UNL     1      -3.937   0.007  23.887  0.00  0.00    +0.003 A 
ATOM     28  C   UNL     1      -4.129  -0.712  24.244  0.00  0.00    +0.007 A 
ATOM     29  C   UNL     1      -4.010  -0.632  25.057  0.00  0.00    +0.035 A 
ATOM     30  S   UNL     1      -3.745   0.136  25.202  0.00  0.00    -0.091 S 
ENDBRANCH  25  26
ENDBRANCH  24  25
ENDBRANCH  23  24
ENDBRANCH  13  21
BRANCH  16  18
ATOM     18  C   UNL     1      -0.987   2.502  25.205  0.00  0.00    +0.143 C 
BRANCH  18  19
ATOM     19  S   UNL     1      -1.020   3.150  25.715  0.00  0.00    -0.130 S 
ATOM     20  C   UNL     1      -1.521   3.134  26.370  0.00  0.00    +0.070 C 
ENDBRANCH  18  19
ENDBRANCH  16  18
TORSDOF 10
ENDMDL
MODEL 8
REMARK VINA RESULT:      -6.6      1.804      3.051
REMARK  Name = 
REMARK  10 active torsions:
REMARK  status: ('A' for Active; 'I' for Inactive)
REMARK    1  A    between atoms: O_2  and  C_3
REMARK    2  A    between atoms: C_6  and  N_7
REMARK    3  A    between atoms: N_10  and  C_11
REMARK    4  A    between atoms: C_13  and  C_21
REMARK    5  A    between atoms: C_16  and  C_18
REMARK    6  A    between atoms: C_18  and  S_19
REMARK    7  A    between atoms: N_23  and  C_24
REMARK    8  A    between atoms: C_24  and  C_25
REMARK    9  A    between atoms: C_24  and  C_31
REMARK   10  A    between atoms: C_25  and  C_26
REMARK                            x       y       z     vdW  Elec       q    Type
REMARK                         _______ _______ _______ _____ _____    ______ ____
ROOT
ATOM     11  C   UNL     1      -2.109   0.465  24.735  0.00  0.00    +0.119 C 
ATOM     12  C   UNL     1      -2.050   1.280  24.849  0.00  0.00    +0.053 C 
ATOM     13  C   UNL     1      -2.815   1.590  24.872  0.00  0.00    +0.155 C 
ATOM     14  N   UNL     1      -3.346   0.967  24.772  0.00  0.00    -0.270 N 
ATOM     15  C   UNL     1      -2.910   0.271  24.688  0.00  0.00    +0.116 C 
ATOM     16  C   UNL     1      -4.168   1.028  24.760  0.00  0.00    +0.237 C 
ATOM     17  O   UNL     1      -4.630   0.352  24.654  0.00  0.00    -0.274 OA
ENDROOT
BRANCH  11  10
ATOM      7  N   UNL     1      -0.218  -0.431  24.112  0.00  0.00    -0.161 NA
ATOM      8  C   UNL     1      -0.850   0.098  24.168  0.00  0.00    +0.343 C 
ATOM      9  O   UNL     1      -0.852   0.787  23.715  0.00  0.00    -0.249 OA
ATOM     10  N   UNL     1      -1.478  -0.063  24.678  0.00  0.00    -0.187 NA
BRANCH   7   6
ATOM      3  C   UNL     1       1.667   0.052  22.581  0.00  0.00    +0.139 A 
ATOM      4  C   UNL     1       1.634   0.412  23.323  0.00  0.00    +0.038 A 
ATOM      5  C   UNL     1       1.006   0.250  23.833  0.00  0.00    +0.020 A 
ATOM      6  C   UNL     1       0.410  -0.270  23.601  0.00  0.00    +0.075 A 
ATOM     34  C   UNL     1       0.441  -0.630  22.860  0.00  0.00    +0.020 A 
ATOM     35  C   UNL     1       1.070  -0.469  22.350  0.00  0.00    +0.038 A 
BRANCH   3   2
ATOM      1  C   UNL     1       3.057   0.310  22.374  0.00  0.00    +0.252 C 
ATOM      2  O   UNL     1       2.295   0.213  22.072  0.00  0.00    -0.471 OA
ENDBRANCH   3   2
ENDBRANCH   7   6
ENDBRANCH  11  10
BRANCH  13  21
ATOM     21  C   UNL     1      -3.013   2.384  24.977  0.00  0.00    +0.260 C 
ATOM     22  O   UNL     1      -3.668   2.700  24.586  0.00  0.00    -0.272 OA
ATOM     23  N   UNL     1      -2.557   2.861  25.472  0.00  0.00    -0.196 NA
BRANCH  23  24
ATOM     24  C   UNL     1      -2.756   3.655  25.576  0.00  0.00    +0.179 C 
BRANCH  24  31
ATOM     31  C   UNL     1      -3.122   3.901  26.272  0.00  0.00    +0.281 C 
ATOM     32  N   UNL     1      -3.770   4.412  26.241  0.00  0.00    -0.086 NA
ATOM     33  O   UNL     1      -2.840   3.638  27.002  0.00  0.00    -0.270 OA
ENDBRANCH  24  31
BRANCH  24  25
ATOM     25  C   UNL     1      -2.588   4.203  24.982  0.00  0.00    +0.064 C 
BRANCH  25  26
ATOM     26  C   UNL     1      -1.850   4.571  24.956  0.00  0.00    +0.010 A 
ATOM     27  C   UNL     1      -1.121   4.192  24.892  0.00  0.00    +0.003 A 
ATOM     28  C   UNL     1      -0.532   4.770  24.886  0.00  0.00    +0.007 A 
ATOM     29  C   UNL     1      -0.899   5.507  24.946  0.00  0.00    +0.035 A 
ATOM     30  S   UNL     1      -1.713   5.384  24.989  0.00  0.00    -0.091 S 
ENDBRANCH  25  26
ENDBRANCH  24  25
ENDBRANCH  23  24
ENDBRANCH  13  21
BRANCH  16  18
ATOM     18  C   UNL     1      -4.528   1.763  24.852  0.00  0.00    +0.143 C 
BRANCH  18  19
ATOM     19  S   UNL     1      -5.334   1.851  24.697  0.00  0.00    -0.130 S 
ATOM     20  C   UNL     1      -5.867   1.938  25.320  0.00  0.00    +0.070 C 
ENDBRANCH  18  19
ENDBRANCH  16  18
TORSDOF 10
ENDMDL
MODEL 9
REMARK VINA RESULT:      -6.5      2.710      6.054
REMARK  Name = 
REMARK  10 active torsions:
REMARK  status: ('A' for Active; 'I' for Inactive)
REMARK    1  A    between atoms: O_2  and  C_3
REMARK    2  A    between atoms: C_6  and  N_7
REMARK    3  A    between atoms: N_10  and  C_11
REMARK    4  A    between atoms: C_13  and  C_21
REMARK    5  A    between atoms: C_16  and  C_18
REMARK    6  A    between atoms: C_18  and  S_19
REMARK    7  A    between atoms: N_23  and  C_24
REMARK    8  A    between atoms: C_24  and  C_25
REMARK    9  A    between atoms: C_24  and  C_31
REMARK   10  A    between atoms: C_25  and  C_26
REMARK                            x       y       z     vdW  Elec       q    Type
REMARK                         _______ _______ _______ _____ _____    ______ ____
ROOT
ATOM     11  C   UNL     1      -3.457  -0.256  24.507  0.00  0.00    +0.119 C 
ATOM     12  C   UNL     1      -2.780   0.170  24.305  0.00  0.00    +0.053 C 
ATOM     13  C   UNL     1      -2.124  -0.310  24.449  0.00  0.00    +0.155 C 
ATOM     14  N   UNL     1      -2.395  -1.032  24.740  0.00  0.00    -0.270 N 
ATOM     15  C   UNL     1      -3.219  -0.999  24.776  0.00  0.00    +0.116 C 
ATOM     16  C   UNL     1      -1.926  -1.675  24.957  0.00  0.00    +0.237 C 
ATOM     17  O   UNL     1      -2.278  -2.365  25.241  0.00  0.00    -0.274 OA
ENDROOT
BRANCH  11  10
ATOM      7  N   UNL     1      -5.219   1.017  24.708  0.00  0.00    -0.161 NA
ATOM      8  C   UNL     1      -4.440   0.748  24.765  0.00  0.00    +0.343 C 
ATOM      9  O   UNL     1      -3.869   1.213  25.135  0.00  0.00    -0.249 OA
ATOM     10  N   UNL     1      -4.234   0.013  24.451  0.00  0.00    -0.187 NA
BRANCH   7   6
ATOM      3  C   UNL     1      -5.837   3.221  25.651  0.00  0.00    +0.139 A 
ATOM      4  C   UNL     1      -6.048   2.528  26.047  0.00  0.00    +0.038 A 
ATOM      5  C   UNL     1      -5.841   1.794  25.732  0.00  0.00    +0.020 A 
ATOM      6  C   UNL     1      -5.425   1.752  25.022  0.00  0.00    +0.075 A 
ATOM     34  C   UNL     1      -5.214   2.443  24.626  0.00  0.00    +0.020 A 
ATOM     35  C   UNL     1      -5.420   3.178  24.940  0.00  0.00    +0.038 A 
BRANCH   3   2
ATOM      1  C   UNL     1      -5.771   4.648  25.608  0.00  0.00    +0.252 C 
ATOM      2  O   UNL     1      -6.043   3.955  25.966  0.00  0.00    -0.471 OA
ENDBRANCH   3   2
ENDBRANCH   7   6
ENDBRANCH  11  10
BRANCH  13  21
ATOM     21  C   UNL     1      -1.336  -0.103  24.324  0.00  0.00    +0.260 C 
ATOM     22  O   UNL     1      -0.769  -0.691  24.204  0.00  0.00    -0.272 OA
ATOM     23  N   UNL     1      -1.113   0.692  24.317  0.00  0.00    -0.196 NA
BRANCH  23  24
ATOM     24  C   UNL     1      -0.324   0.898  24.192  0.00  0.00    +0.179 C 
BRANCH  24  31
ATOM     31  C   UNL     1       0.008   0.821  23.441  0.00  0.00    +0.281 C 
ATOM     32  N   UNL     1       0.765   0.503  23.355  0.00  0.00    -0.086 NA
ATOM     33  O   UNL     1      -0.416   1.062  22.776  0.00  0.00    -0.270 OA
ENDBRANCH  24  31
BRANCH  24  25
ATOM     25  C   UNL     1       0.132   1.181  24.818  0.00  0.00    +0.064 C 
BRANCH  25  26
ATOM     26  C   UNL     1      -0.046   1.909  25.163  0.00  0.00    +0.010 A 
ATOM     27  C   UNL     1      -0.156   2.621  24.762  0.00  0.00    +0.003 A 
ATOM     28  C   UNL     1      -0.323   3.205  25.321  0.00  0.00    +0.007 A 
ATOM     29  C   UNL     1      -0.317   2.852  26.068  0.00  0.00    +0.035 A 
ATOM     30  S   UNL     1      -0.145   2.051  25.970  0.00  0.00    -0.091 S 
ENDBRANCH  25  26
ENDBRANCH  24  25
ENDBRANCH  23  24
ENDBRANCH  13  21
BRANCH  16  18
ATOM     18  C   UNL     1      -1.106  -1.627  24.890  0.00  0.00    +0.143 C 
BRANCH  18  19
ATOM     19  S   UNL     1      -0.644  -2.303  24.992  0.00  0.00    -0.130 S 
ATOM     20  C   UNL     1      -0.054  -2.317  25.568  0.00  0.00    +0.070 C 
ENDBRANCH  18  19
ENDBRANCH  16  18
TORSDOF 10
ENDMDL
MODEL 10
REMARK VINA RESULT:      -6.0      3.661      5.246
REMARK  Name = 
REMARK  10 active torsions:
REMARK  status: ('A' for Active; 'I' for Inactive)
REMARK    1  A    between atoms: O_2  and  C_3
REMARK    2  A    between atoms: C_6  and  N_7
REMARK    3  A    between atoms: N_10  and  C_11
REMARK    4  A    between atoms: C_13  and  C_21
REMARK    5  A    between atoms: C_16  and  C_18
REMARK    6  A    between atoms: C_18  and  S_19
REMARK    7  A    between atoms: N_23  and  C_24
REMARK    8  A    between atoms: C_24  and  C_25
REMARK    9  A    between atoms: C_24  and  C_31
REMARK   10  A    between atoms: C_25  and  C_26
REMARK                            x       y       z     vdW  Elec       q    Type
REMARK                         _______ _______ _______ _____ _____    ______ ____
ROOT
ATOM     11  C   UNL     1      -4.497   1.093  24.588  0.00  0.00    +0.119 C 
ATOM     12  C   UNL     1      -3.824   1.540  24.755  0.00  0.00    +0.053 C 
ATOM     13  C   UNL     1      -4.070   2.266  25.063  0.00  0.00    +0.155 C 
ATOM     14  N   UNL     1      -4.894   2.267  25.085  0.00  0.00    -0.270 N 
ATOM     15  C   UNL     1      -5.159   1.543  24.792  0.00  0.00    +0.116 C 
ATOM     16  C   UNL     1      -5.371   2.885  25.354  0.00  0.00    +0.237 C 
ATOM     17  O   UNL     1      -6.192   2.806  25.343  0.00  0.00    -0.274 OA
ENDROOT
BRANCH  11  10
ATOM      7  N   UNL     1      -3.918  -0.965  24.147  0.00  0.00    -0.161 NA
ATOM      8  C   UNL     1      -3.907  -0.202  24.463  0.00  0.00    +0.343 C 
ATOM      9  O   UNL     1      -3.298   0.026  24.969  0.00  0.00    -0.249 OA
ATOM     10  N   UNL     1      -4.508   0.331  24.273  0.00  0.00    -0.187 NA
BRANCH   7   6
ATOM      3  C   UNL     1      -2.118  -2.565  24.719  0.00  0.00    +0.139 A 
ATOM      4  C   UNL     1      -1.960  -1.925  24.224  0.00  0.00    +0.038 A 
ATOM      5  C   UNL     1      -2.559  -1.392  24.034  0.00  0.00    +0.020 A 
ATOM      6  C   UNL     1      -3.318  -1.499  24.338  0.00  0.00    +0.075 A 
ATOM     34  C   UNL     1      -3.478  -2.138  24.833  0.00  0.00    +0.020 A 
ATOM     35  C   UNL     1      -2.878  -2.672  25.024  0.00  0.00    +0.038 A 
BRANCH   3   2
ATOM      1  C   UNL     1      -0.756  -2.823  25.063  0.00  0.00    +0.252 C 
ATOM      2  O   UNL     1      -1.518  -3.098  24.910  0.00  0.00    -0.471 OA
ENDBRANCH   3   2
ENDBRANCH   7   6
ENDBRANCH  11  10
BRANCH  13  21
ATOM     21  C   UNL     1      -3.577   2.881  25.304  0.00  0.00    +0.260 C 
ATOM     22  O   UNL     1      -3.806   3.373  25.927  0.00  0.00    -0.272 OA
ATOM     23  N   UNL     1      -2.855   3.005  24.925  0.00  0.00    -0.196 NA
BRANCH  23  24
ATOM     24  C   UNL     1      -2.362   3.621  25.168  0.00  0.00    +0.179 C 
BRANCH  24  31
ATOM     31  C   UNL     1      -2.390   4.349  24.781  0.00  0.00    +0.281 C 
ATOM     32  N   UNL     1      -2.257   5.046  25.203  0.00  0.00    -0.086 NA
ATOM     33  O   UNL     1      -2.549   4.380  23.972  0.00  0.00    -0.270 OA
ENDBRANCH  24  31
BRANCH  24  25
ATOM     25  C   UNL     1      -1.842   3.508  25.798  0.00  0.00    +0.064 C 
BRANCH  25  26
ATOM     26  C   UNL     1      -1.129   3.111  25.679  0.00  0.00    +0.010 A 
ATOM     27  C   UNL     1      -0.692   3.098  24.979  0.00  0.00    +0.003 A 
ATOM     28  C   UNL     1      -0.020   2.636  25.107  0.00  0.00    +0.007 A 
ATOM     29  C   UNL     1      -0.042   2.364  25.886  0.00  0.00    +0.035 A 
ATOM     30  S   UNL     1      -0.727   2.658  26.240  0.00  0.00    -0.091 S 
ENDBRANCH  25  26
ENDBRANCH  24  25
ENDBRANCH  23  24
ENDBRANCH  13  21
BRANCH  16  18
ATOM     18  C   UNL     1      -5.026   3.580  25.633  0.00  0.00    +0.143 C 
BRANCH  18  19
ATOM     19  S   UNL     1      -5.493   4.154  25.998  0.00  0.00    -0.130 S 
ATOM     20  C   UNL     1      -5.796   4.781  25.556  0.00  0.00    +0.070 C 
ENDBRANCH  18  19
ENDBRANCH  16  18
TORSDOF 10
ENDMDL
