MODEL 1
REMARK VINA RESULT:     -10.1      0.000      0.000
REMARK  Name = 
REMARK  6 active torsions:
REMARK  status: ('A' for Active; 'I' for Inactive)
REMARK    1  A    between atoms: O_2  and  C_3
REMARK    2  A    between atoms: C_3  and  C_4
REMARK    3  A    between atoms: N_6  and  C_7
REMARK    4  A    between atoms: C_7  and  C_8
REMARK    5  A    between atoms: C_15  and  C_16
REMARK    6  A    between atoms: C_18  and  C_23
REMARK                            x       y       z     vdW  Elec       q    Type
REMARK                         _______ _______ _______ _____ _____    ______ ____
ROOT
ATOM      8  C   UNL     1       0.052   0.404  23.689  0.00  0.00    +0.079 C 
ATOM      9  C   UNL     1      -0.253   0.380  24.404  0.00  0.00    +0.018 C 
ATOM     10  C   UNL     1      -0.813   0.886  24.696  0.00  0.00    +0.010 C 
ATOM     11  C   UNL     1      -1.032   0.690  25.543  0.00  0.00    +0.018 C 
ATOM     12  C   UNL     1      -0.712   0.615  24.978  0.00  0.00    +0.072 C 
ATOM     13  N   UNL     1      -0.520   0.916  23.993  0.00  0.00    -0.272 NA
ATOM     14  C   UNL     1      -0.957   1.629  23.628  0.00  0.00    +0.078 C 
ATOM     15  C   UNL     1      -1.230   1.571  24.338  0.00  0.00    +0.056 C 
ENDROOT
BRANCH  15  16
ATOM     16  C   UNL     1      -1.799   2.051  24.695  0.00  0.00    +0.063 A 
ATOM     17  C   UNL     1      -2.599   1.863  24.627  0.00  0.00    +0.034 A 
ATOM     18  C   UNL     1      -3.167   2.343  24.983  0.00  0.00    +0.084 A 
ATOM     19  N   UNL     1      -2.935   3.011  25.409  0.00  0.00    -0.231 NA
ATOM     20  C   UNL     1      -2.135   3.199  25.477  0.00  0.00    +0.139 A 
ATOM     21  C   UNL     1      -1.902   3.866  25.902  0.00  0.00    +0.074 C 
ATOM     22  N   UNL     1      -1.566   2.718  25.120  0.00  0.00    -0.235 NA
BRANCH  18  23
ATOM     23  C   UNL     1      -3.968   2.156  24.915  0.00  0.00    +0.024 A 
ATOM     24  C   UNL     1      -4.444   2.571  24.384  0.00  0.00    +0.036 A 
ATOM     25 BR   UNL     1      -4.120   3.172  23.922  0.00  0.00    -0.049 Br
ATOM     26  C   UNL     1      -5.244   2.384  24.316  0.00  0.00    +0.007 A 
ATOM     27  C   UNL     1      -5.569   1.782  24.779  0.00  0.00    +0.001 A 
ATOM     28  C   UNL     1      -5.092   1.368  25.309  0.00  0.00    +0.000 A 
ATOM     29  C   UNL     1      -4.291   1.555  25.378  0.00  0.00    +0.002 A 
ENDBRANCH  18  23
ENDBRANCH  15  16
BRANCH   8   7
ATOM      7  C   UNL     1       0.552   0.132  23.093  0.00  0.00    +0.131 C 
BRANCH   7   6
ATOM      4  C   UNL     1       1.877  -0.032  22.579  0.00  0.00    +0.272 C 
ATOM      5  O   UNL     1       1.568  -0.185  21.830  0.00  0.00    -0.271 OA
ATOM      6  N   UNL     1       1.369   0.126  23.211  0.00  0.00    -0.202 NA
BRANCH   4   3
ATOM      3  C   UNL     1       2.693  -0.038  22.698  0.00  0.00    +0.229 C 
BRANCH   3   2
ATOM      1  C   UNL     1       3.942   0.652  22.615  0.00  0.00    +0.175 C 
ATOM      2  O   UNL     1       3.162   0.556  22.367  0.00  0.00    -0.342 OA
ENDBRANCH   3   2
ENDBRANCH   4   3
ENDBRANCH   7   6
ENDBRANCH   8   7
TORSDOF 6
ENDMDL
MODEL 2
REMARK VINA RESULT:     -10.0      1.017      1.658
REMARK  Name = 
REMARK  6 active torsions:
REMARK  status: ('A' for Active; 'I' for Inactive)
REMARK    1  A    between atoms: O_2  and  C_3
REMARK    2  A    between atoms: C_3  and  C_4
REMARK    3  A    between atoms: N_6  and  C_7
REMARK    4  A    between atoms: C_7  and  C_8
REMARK    5  A    between atoms: C_15  and  C_16
REMARK    6  A    between atoms: C_18  and  C_23
REMARK                            x       y       z     vdW  Elec       q    Type
REMARK                         _______ _______ _______ _____ _____    ______ ____
ROOT
ATOM      8  C   UNL     1       0.171   0.153  23.527  0.00  0.00    +0.079 C 
ATOM      9  C   UNL     1      -0.108   0.117  24.253  0.00  0.00    +0.018 C 
ATOM     10  C   UNL     1      -0.839   0.373  24.490  0.00  0.00    +0.010 C 
ATOM     11  C   UNL     1      -0.969   0.243  25.367  0.00  0.00    +0.018 C 
ATOM     12  C   UNL     1      -0.636   0.222  24.806  0.00  0.00    +0.072 C 
ATOM     13  N   UNL     1      -0.572   0.412  23.777  0.00  0.00    -0.272 NA
ATOM     14  C   UNL     1      -1.266   0.797  23.328  0.00  0.00    +0.078 C 
ATOM     15  C   UNL     1      -1.503   0.744  24.052  0.00  0.00    +0.056 C 
ENDROOT
BRANCH  15  16
ATOM     16  C   UNL     1      -2.231   0.984  24.358  0.00  0.00    +0.063 A 
ATOM     17  C   UNL     1      -2.352   1.775  24.560  0.00  0.00    +0.034 A 
ATOM     18  C   UNL     1      -3.079   2.014  24.866  0.00  0.00    +0.084 A 
ATOM     19  N   UNL     1      -3.685   1.464  24.971  0.00  0.00    -0.231 NA
ATOM     20  C   UNL     1      -3.563   0.674  24.769  0.00  0.00    +0.139 A 
ATOM     21  C   UNL     1      -4.169   0.123  24.873  0.00  0.00    +0.074 C 
ATOM     22  N   UNL     1      -2.835   0.434  24.462  0.00  0.00    -0.235 NA
BRANCH  18  23
ATOM     23  C   UNL     1      -3.202   2.805  25.068  0.00  0.00    +0.024 A 
ATOM     24  C   UNL     1      -3.620   3.300  24.558  0.00  0.00    +0.036 A 
ATOM     25 BR   UNL     1      -3.916   3.006  23.847  0.00  0.00    -0.049 Br
ATOM     26  C   UNL     1      -3.743   4.090  24.760  0.00  0.00    +0.007 A 
ATOM     27  C   UNL     1      -3.447   4.385  25.472  0.00  0.00    +0.001 A 
ATOM     28  C   UNL     1      -3.030   3.890  25.981  0.00  0.00    +0.000 A 
ATOM     29  C   UNL     1      -2.906   3.099  25.780  0.00  0.00    +0.002 A 
ENDBRANCH  18  23
ENDBRANCH  15  16
BRANCH   8   7
ATOM      7  C   UNL     1       0.753   0.030  22.956  0.00  0.00    +0.131 C 
BRANCH   7   6
ATOM      4  C   UNL     1       2.133   0.006  22.581  0.00  0.00    +0.272 C 
ATOM      5  O   UNL     1       1.917  -0.127  21.796  0.00  0.00    -0.271 OA
ATOM      6  N   UNL     1       1.551   0.085  23.161  0.00  0.00    -0.202 NA
BRANCH   4   3
ATOM      3  C   UNL     1       2.930   0.061  22.787  0.00  0.00    +0.229 C 
BRANCH   3   2
ATOM      1  C   UNL     1       4.158   0.791  22.762  0.00  0.00    +0.175 C 
ATOM      2  O   UNL     1       3.396   0.666  22.474  0.00  0.00    -0.342 OA
ENDBRANCH   3   2
ENDBRANCH   4   3
ENDBRANCH   7   6
ENDBRANCH   8   7
TORSDOF 6
ENDMDL
MODEL 3
REMARK VINA RESULT:      -9.9      2.438      3.000
REMARK  Name = 
REMARK  6 active torsions:
REMARK  status: ('A' for Active; 'I' for Inactive)
REMARK    1  A    between atoms: O_2  and  C_3
REMARK    2  A    between atoms: C_3  and  C_4
REMARK    3  A    between atoms: N_6  and  C_7
REMARK    4  A    between atoms: C_7  and  C_8
REMARK    5  A    between atoms: C_15  and  C_16
REMARK    6  A    between atoms: C_18  and  C_23
REMARK                            x       y       z     vdW  Elec       q    Type
REMARK                         _______ _______ _______ _____ _____    ______ ____
ROOT
ATOM      8  C   UNL     1       0.928   0.233  23.158  0.00  0.00    +0.079 C 
ATOM      9  C   UNL     1       0.351   0.661  23.458  0.00  0.00    +0.018 C 
ATOM     10  C   UNL     1      -0.248   0.383  23.927  0.00  0.00    +0.010 C 
ATOM     11  C   UNL     1      -0.813   1.036  24.169  0.00  0.00    +0.018 C 
ATOM     12  C   UNL     1      -0.291   0.781  23.869  0.00  0.00    +0.072 C 
ATOM     13  N   UNL     1       0.315  -0.043  23.638  0.00  0.00    -0.272 NA
ATOM     14  C   UNL     1       0.116  -0.874  23.957  0.00  0.00    +0.078 C 
ATOM     15  C   UNL     1      -0.433  -0.419  24.231  0.00  0.00    +0.056 C 
ENDROOT
BRANCH  15  16
ATOM     16  C   UNL     1      -1.067  -0.637  24.712  0.00  0.00    +0.063 A 
ATOM     17  C   UNL     1      -1.768  -0.910  24.372  0.00  0.00    +0.034 A 
ATOM     18  C   UNL     1      -2.401  -1.127  24.853  0.00  0.00    +0.084 A 
ATOM     19  N   UNL     1      -2.336  -1.072  25.673  0.00  0.00    -0.231 NA
ATOM     20  C   UNL     1      -1.635  -0.799  26.013  0.00  0.00    +0.139 A 
ATOM     21  C   UNL     1      -1.568  -0.743  26.833  0.00  0.00    +0.074 C 
ATOM     22  N   UNL     1      -1.001  -0.581  25.532  0.00  0.00    -0.235 NA
BRANCH  18  23
ATOM     23  C   UNL     1      -3.103  -1.400  24.513  0.00  0.00    +0.024 A 
ATOM     24  C   UNL     1      -3.220  -2.210  24.405  0.00  0.00    +0.036 A 
ATOM     25 BR   UNL     1      -2.637  -2.746  24.636  0.00  0.00    -0.049 Br
ATOM     26  C   UNL     1      -3.920  -2.483  24.066  0.00  0.00    +0.007 A 
ATOM     27  C   UNL     1      -4.504  -1.947  23.835  0.00  0.00    +0.001 A 
ATOM     28  C   UNL     1      -4.386  -1.138  23.944  0.00  0.00    +0.000 A 
ATOM     29  C   UNL     1      -3.685  -0.864  24.283  0.00  0.00    +0.002 A 
ENDBRANCH  18  23
ENDBRANCH  15  16
BRANCH   8   7
ATOM      7  C   UNL     1       1.614   0.132  22.712  0.00  0.00    +0.131 C 
BRANCH   7   6
ATOM      4  C   UNL     1       2.998   0.415  22.492  0.00  0.00    +0.272 C 
ATOM      5  O   UNL     1       2.963   0.026  21.766  0.00  0.00    -0.271 OA
ATOM      6  N   UNL     1       2.324   0.468  22.966  0.00  0.00    -0.202 NA
BRANCH   4   3
ATOM      3  C   UNL     1       3.708   0.751  22.747  0.00  0.00    +0.229 C 
BRANCH   3   2
ATOM      1  C   UNL     1       5.006   0.512  23.294  0.00  0.00    +0.175 C 
ATOM      2  O   UNL     1       4.389   0.287  22.795  0.00  0.00    -0.342 OA
ENDBRANCH   3   2
ENDBRANCH   4   3
ENDBRANCH   7   6
ENDBRANCH   8   7
TORSDOF 6
ENDMDL
MODEL 4
REMARK VINA RESULT:      -9.4      2.969      4.228
REMARK  Name = 
REMARK  6 active torsions:
REMARK  status: ('A' for Active; 'I' for Inactive)
REMARK    1  A    between atoms: O_2  and  C_3
REMARK    2  A    between atoms: C_3  and  C_4
REMARK    3  A    between atoms: N_6  and  C_7
REMARK    4  A    between atoms: C_7  and  C_8
REMARK    5  A    between atoms: C_15  and  C_16
REMARK    6  A    between atoms: C_18  and  C_23
REMARK                            x       y       z     vdW  Elec       q    Type
REMARK                         _______ _______ _______ _____ _____    ______ ____
ROOT
ATOM      8  C   UNL     1      -1.486   2.470  24.003  0.00  0.00    +0.079 C 
ATOM      9  C   UNL     1      -1.974   2.141  23.493  0.00  0.00    +0.018 C 
ATOM     10  C   UNL     1      -2.582   1.640  23.679  0.00  0.00    +0.010 C 
ATOM     11  C   UNL     1      -3.026   1.369  22.948  0.00  0.00    +0.018 C 
ATOM     12  C   UNL     1      -2.567   1.696  23.278  0.00  0.00    +0.072 C 
ATOM     13  N   UNL     1      -2.108   1.958  24.184  0.00  0.00    -0.272 NA
ATOM     14  C   UNL     1      -2.415   1.627  24.977  0.00  0.00    +0.078 C 
ATOM     15  C   UNL     1      -2.872   1.325  24.445  0.00  0.00    +0.056 C 
ENDROOT
BRANCH  15  16
ATOM     16  C   UNL     1      -3.506   0.810  24.565  0.00  0.00    +0.063 A 
ATOM     17  C   UNL     1      -3.397  -0.004  24.485  0.00  0.00    +0.034 A 
ATOM     18  C   UNL     1      -4.030  -0.517  24.605  0.00  0.00    +0.084 A 
ATOM     19  N   UNL     1      -4.772  -0.219  24.806  0.00  0.00    -0.231 NA
ATOM     20  C   UNL     1      -4.881   0.595  24.887  0.00  0.00    +0.139 A 
ATOM     21  C   UNL     1      -5.623   0.895  25.088  0.00  0.00    +0.074 C 
ATOM     22  N   UNL     1      -4.247   1.110  24.766  0.00  0.00    -0.235 NA
BRANCH  18  23
ATOM     23  C   UNL     1      -3.922  -1.332  24.525  0.00  0.00    +0.024 A 
ATOM     24  C   UNL     1      -3.580  -1.764  25.138  0.00  0.00    +0.036 A 
ATOM     25 BR   UNL     1      -3.345  -1.384  25.831  0.00  0.00    -0.049 Br
ATOM     26  C   UNL     1      -3.472  -2.578  25.058  0.00  0.00    +0.007 A 
ATOM     27  C   UNL     1      -3.706  -2.959  24.365  0.00  0.00    +0.001 A 
ATOM     28  C   UNL     1      -4.048  -2.527  23.752  0.00  0.00    +0.000 A 
ATOM     29  C   UNL     1      -4.156  -1.713  23.832  0.00  0.00    +0.002 A 
ENDBRANCH  18  23
ENDBRANCH  15  16
BRANCH   8   7
ATOM      7  C   UNL     1      -0.848   2.952  24.205  0.00  0.00    +0.131 C 
BRANCH   7   6
ATOM      4  C   UNL     1      -0.520   4.223  24.773  0.00  0.00    +0.272 C 
ATOM      5  O   UNL     1      -0.009   3.854  25.304  0.00  0.00    -0.271 OA
ATOM      6  N   UNL     1      -0.940   3.772  24.223  0.00  0.00    -0.202 NA
BRANCH   4   3
ATOM      3  C   UNL     1      -0.613   5.043  24.790  0.00  0.00    +0.229 C 
BRANCH   3   2
ATOM      1  C   UNL     1      -1.573   6.085  24.975  0.00  0.00    +0.175 C 
ATOM      2  O   UNL     1      -1.230   5.378  25.224  0.00  0.00    -0.342 OA
ENDBRANCH   3   2
ENDBRANCH   4   3
ENDBRANCH   7   6
ENDBRANCH   8   7
TORSDOF 6
ENDMDL
MODEL 5
REMARK VINA RESULT:      -9.1      1.348      1.827
REMARK  Name = 
REMARK  6 active torsions:
REMARK  status: ('A' for Active; 'I' for Inactive)
REMARK    1  A    between atoms: O_2  and  C_3
REMARK    2  A    between atoms: C_3  and  C_4
REMARK    3  A    between atoms: N_6  and  C_7
REMARK    4  A    between atoms: C_7  and  C_8
REMARK    5  A    between atoms: C_15  and  C_16
REMARK    6  A    between atoms: C_18  and  C_23
REMARK                            x       y       z     vdW  Elec       q    Type
REMARK                         _______ _______ _______ _____ _____    ______ ____
ROOT
ATOM      8  C   UNL     1       0.082   0.230  23.681  0.00  0.00    +0.079 C 
ATOM      9  C   UNL     1      -0.122   0.465  24.394  0.00  0.00    +0.018 C 
ATOM     10  C   UNL     1      -0.864   0.411  24.714  0.00  0.00    +0.010 C 
ATOM     11  C   UNL     1      -0.893   0.737  25.549  0.00  0.00    +0.018 C 
ATOM     12  C   UNL     1      -0.611   0.580  24.981  0.00  0.00    +0.072 C 
ATOM     13  N   UNL     1      -0.671   0.179  24.014  0.00  0.00    -0.272 NA
ATOM     14  C   UNL     1      -1.461  -0.144  23.690  0.00  0.00    +0.078 C 
ATOM     15  C   UNL     1      -1.620   0.099  24.396  0.00  0.00    +0.056 C 
ENDROOT
BRANCH  15  16
ATOM     16  C   UNL     1      -2.351   0.073  24.779  0.00  0.00    +0.063 A 
ATOM     17  C   UNL     1      -2.869   0.713  24.722  0.00  0.00    +0.034 A 
ATOM     18  C   UNL     1      -3.598   0.687  25.106  0.00  0.00    +0.084 A 
ATOM     19  N   UNL     1      -3.811   0.022  25.546  0.00  0.00    -0.231 NA
ATOM     20  C   UNL     1      -3.292  -0.617  25.603  0.00  0.00    +0.139 A 
ATOM     21  C   UNL     1      -3.504  -1.282  26.043  0.00  0.00    +0.074 C 
ATOM     22  N   UNL     1      -2.562  -0.591  25.219  0.00  0.00    -0.235 NA
BRANCH  18  23
ATOM     23  C   UNL     1      -4.118   1.326  25.049  0.00  0.00    +0.024 A 
ATOM     24  C   UNL     1      -4.845   1.234  24.670  0.00  0.00    +0.036 A 
ATOM     25 BR   UNL     1      -5.053   0.503  24.349  0.00  0.00    -0.049 Br
ATOM     26  C   UNL     1      -5.364   1.872  24.614  0.00  0.00    +0.007 A 
ATOM     27  C   UNL     1      -5.156   2.603  24.936  0.00  0.00    +0.001 A 
ATOM     28  C   UNL     1      -4.429   2.695  25.314  0.00  0.00    +0.000 A 
ATOM     29  C   UNL     1      -3.909   2.056  25.371  0.00  0.00    +0.002 A 
ENDBRANCH  18  23
ENDBRANCH  15  16
BRANCH   8   7
ATOM      7  C   UNL     1       0.626   0.120  23.071  0.00  0.00    +0.131 C 
BRANCH   7   6
ATOM      4  C   UNL     1       1.979   0.042  22.617  0.00  0.00    +0.272 C 
ATOM      5  O   UNL     1       1.714  -0.121  21.853  0.00  0.00    -0.271 OA
ATOM      6  N   UNL     1       1.435   0.163  23.226  0.00  0.00    -0.202 NA
BRANCH   4   3
ATOM      3  C   UNL     1       2.789   0.085  22.773  0.00  0.00    +0.229 C 
BRANCH   3   2
ATOM      1  C   UNL     1       4.027   0.775  22.595  0.00  0.00    +0.175 C 
ATOM      2  O   UNL     1       3.266   0.596  22.334  0.00  0.00    -0.342 OA
ENDBRANCH   3   2
ENDBRANCH   4   3
ENDBRANCH   7   6
ENDBRANCH   8   7
TORSDOF 6
ENDMDL
MODEL 6
REMARK VINA RESULT:      -9.1      3.142      4.281
REMARK  Name = 
REMARK  6 active torsions:
REMARK  status: ('A' for Active; 'I' for Inactive)
REMARK    1  A    between atoms: O_2  and  C_3
REMARK    2  A    between atoms: C_3  and  C_4
REMARK    3  A    between atoms: N_6  and  C_7
REMARK    4  A    between atoms: C_7  and  C_8
REMARK    5  A    between atoms: C_15  and  C_16
REMARK    6  A    between atoms: C_18  and  C_23
REMARK                            x       y       z     vdW  Elec       q    Type
REMARK                         _______ _______ _______ _____ _____    ______ ____
ROOT
ATOM      8  C   UNL     1      -4.350  -0.387  24.503  0.00  0.00    +0.079 C 
ATOM      9  C   UNL     1      -4.633   0.220  24.900  0.00  0.00    +0.018 C 
ATOM     10  C   UNL     1      -4.403   0.991  24.811  0.00  0.00    +0.010 C 
ATOM     11  C   UNL     1      -4.850   1.538  25.363  0.00  0.00    +0.018 C 
ATOM     12  C   UNL     1      -4.690   0.964  25.095  0.00  0.00    +0.072 C 
ATOM     13  N   UNL     1      -4.121   0.402  24.418  0.00  0.00    -0.272 NA
ATOM     14  C   UNL     1      -3.508   0.804  23.875  0.00  0.00    +0.078 C 
ATOM     15  C   UNL     1      -3.812   1.371  24.286  0.00  0.00    +0.056 C 
ENDROOT
BRANCH  15  16
ATOM     16  C   UNL     1      -3.624   2.174  24.245  0.00  0.00    +0.063 A 
ATOM     17  C   UNL     1      -2.896   2.441  24.528  0.00  0.00    +0.034 A 
ATOM     18  C   UNL     1      -2.708   3.243  24.487  0.00  0.00    +0.084 A 
ATOM     19  N   UNL     1      -3.247   3.778  24.164  0.00  0.00    -0.231 NA
ATOM     20  C   UNL     1      -3.974   3.510  23.881  0.00  0.00    +0.139 A 
ATOM     21  C   UNL     1      -4.514   4.044  23.558  0.00  0.00    +0.074 C 
ATOM     22  N   UNL     1      -4.163   2.707  23.922  0.00  0.00    -0.235 NA
BRANCH  18  23
ATOM     23  C   UNL     1      -1.981   3.512  24.769  0.00  0.00    +0.024 A 
ATOM     24  C   UNL     1      -1.943   3.922  25.485  0.00  0.00    +0.036 A 
ATOM     25 BR   UNL     1      -2.631   4.063  25.917  0.00  0.00    -0.049 Br
ATOM     26  C   UNL     1      -1.216   4.191  25.767  0.00  0.00    +0.007 A 
ATOM     27  C   UNL     1      -0.527   4.050  25.335  0.00  0.00    +0.001 A 
ATOM     28  C   UNL     1      -0.566   3.641  24.620  0.00  0.00    +0.000 A 
ATOM     29  C   UNL     1      -1.293   3.371  24.337  0.00  0.00    +0.002 A 
ENDBRANCH  18  23
ENDBRANCH  15  16
BRANCH   8   7
ATOM      7  C   UNL     1      -4.309  -1.188  24.314  0.00  0.00    +0.131 C 
BRANCH   7   6
ATOM      4  C   UNL     1      -3.584  -2.420  24.312  0.00  0.00    +0.272 C 
ATOM      5  O   UNL     1      -4.133  -2.744  23.790  0.00  0.00    -0.271 OA
ATOM      6  N   UNL     1      -3.671  -1.642  24.575  0.00  0.00    -0.202 NA
BRANCH   4   3
ATOM      3  C   UNL     1      -2.945  -2.873  24.574  0.00  0.00    +0.229 C 
BRANCH   3   2
ATOM      1  C   UNL     1      -1.518  -2.824  24.631  0.00  0.00    +0.175 C 
ATOM      2  O   UNL     1      -2.215  -2.815  24.191  0.00  0.00    -0.342 OA
ENDBRANCH   3   2
ENDBRANCH   4   3
ENDBRANCH   7   6
ENDBRANCH   8   7
TORSDOF 6
ENDMDL
MODEL 7
REMARK VINA RESULT:      -8.5      2.215      2.875
REMARK  Name = 
REMARK  6 active torsions:
REMARK  status: ('A' for Active; 'I' for Inactive)
REMARK    1  A    between atoms: O_2  and  C_3
REMARK    2  A    between atoms: C_3  and  C_4
REMARK    3  A    between atoms: N_6  and  C_7
REMARK    4  A    between atoms: C_7  and  C_8
REMARK    5  A    between atoms: C_15  and  C_16
REMARK    6  A    between atoms: C_18  and  C_23
REMARK                            x       y       z     vdW  Elec       q    Type
REMARK                         _______ _______ _______ _____ _____    ______ ____
ROOT
ATOM      8  C   UNL     1      -0.746   0.042  24.956  0.00  0.00    +0.079 C 
ATOM      9  C   UNL     1      -0.600   0.599  25.480  0.00  0.00    +0.018 C 
ATOM     10  C   UNL     1      -0.886   1.356  25.455  0.00  0.00    +0.010 C 
ATOM     11  C   UNL     1      -0.601   1.843  26.153  0.00  0.00    +0.018 C 
ATOM     12  C   UNL     1      -0.653   1.307  25.783  0.00  0.00    +0.072 C 
ATOM     13  N   UNL     1      -1.033   0.816  24.938  0.00  0.00    -0.272 NA
ATOM     14  C   UNL     1      -1.576   1.252  24.348  0.00  0.00    +0.078 C 
ATOM     15  C   UNL     1      -1.408   1.769  24.884  0.00  0.00    +0.056 C 
ENDROOT
BRANCH  15  16
ATOM     16  C   UNL     1      -1.665   2.553  24.919  0.00  0.00    +0.063 A 
ATOM     17  C   UNL     1      -2.455   2.721  25.088  0.00  0.00    +0.034 A 
ATOM     18  C   UNL     1      -2.711   3.504  25.122  0.00  0.00    +0.084 A 
ATOM     19  N   UNL     1      -2.178   4.120  24.988  0.00  0.00    -0.231 NA
ATOM     20  C   UNL     1      -1.388   3.951  24.819  0.00  0.00    +0.139 A 
ATOM     21  C   UNL     1      -0.855   4.566  24.684  0.00  0.00    +0.074 C 
ATOM     22  N   UNL     1      -1.132   3.167  24.784  0.00  0.00    -0.235 NA
BRANCH  18  23
ATOM     23  C   UNL     1      -3.501   3.673  25.292  0.00  0.00    +0.024 A 
ATOM     24  C   UNL     1      -4.057   3.694  24.682  0.00  0.00    +0.036 A 
ATOM     25 BR   UNL     1      -3.824   3.545  23.905  0.00  0.00    -0.049 Br
ATOM     26  C   UNL     1      -4.846   3.863  24.851  0.00  0.00    +0.007 A 
ATOM     27  C   UNL     1      -5.080   4.011  25.629  0.00  0.00    +0.001 A 
ATOM     28  C   UNL     1      -4.524   3.991  26.237  0.00  0.00    +0.000 A 
ATOM     29  C   UNL     1      -3.733   3.822  26.069  0.00  0.00    +0.002 A 
ENDBRANCH  18  23
ENDBRANCH  15  16
BRANCH   8   7
ATOM      7  C   UNL     1      -0.672  -0.722  24.654  0.00  0.00    +0.131 C 
BRANCH   7   6
ATOM      4  C   UNL     1      -1.319  -1.973  24.411  0.00  0.00    +0.272 C 
ATOM      5  O   UNL     1      -0.911  -2.046  23.698  0.00  0.00    -0.271 OA
ATOM      6  N   UNL     1      -1.201  -1.311  24.889  0.00  0.00    -0.202 NA
BRANCH   4   3
ATOM      3  C   UNL     1      -1.848  -2.562  24.646  0.00  0.00    +0.229 C 
BRANCH   3   2
ATOM      1  C   UNL     1      -3.213  -2.985  24.648  0.00  0.00    +0.175 C 
ATOM      2  O   UNL     1      -2.571  -2.645  24.257  0.00  0.00    -0.342 OA
ENDBRANCH   3   2
ENDBRANCH   4   3
ENDBRANCH   7   6
ENDBRANCH   8   7
TORSDOF 6
ENDMDL
