REMARK  Name = 
REMARK  5 active torsions:
REMARK  status: ('A' for Active; 'I' for Inactive)
REMARK    1  A    between atoms: C_2  and  C_5
REMARK    2  A    between atoms: C_8  and  C_11
REMARK    3  A    between atoms: N_13  and  C_14
REMARK    4  A    between atoms: C_18  and  N_22
REMARK    5  A    between atoms: C_25  and  C_29
REMARK                            x       y       z     vdW  Elec       q    Type
REMARK                         _______ _______ _______ _____ _____    ______ ____
ROOT
ATOM     14  C   UNL     1       1.270  -0.922   0.000  0.00  0.00    +0.155 C 
ATOM     15  C   UNL     1       0.785  -0.255   0.000  0.00  0.00    +0.166 C 
ATOM     16  O   UNL     1       1.270   0.412   0.000  0.00  0.00    -0.350 OA
ATOM     17  C   UNL     1       2.054   0.158   0.000  0.00  0.00    +0.166 C 
ATOM     18  C   UNL     1       2.839   0.412   0.000  0.00  0.00    +0.154 C 
ATOM     19  C   UNL     1       3.324  -0.255   0.000  0.00  0.00    +0.166 C 
ATOM     20  O   UNL     1       2.839  -0.922   0.000  0.00  0.00    -0.350 OA
ATOM     21  C   UNL     1       2.054  -0.667   0.000  0.00  0.00    +0.166 C 
ENDROOT
BRANCH  18  22
ATOM     22  N   UNL     1       3.094   1.197   0.000  0.00  0.00    -0.200 NA
ATOM     23  C   UNL     1       3.901   1.369   0.000  0.00  0.00    +0.237 A 
ATOM     24  N   UNL     1       4.156   2.153   0.000  0.00  0.00    -0.209 NA
ATOM     25  C   UNL     1       4.963   2.325   0.000  0.00  0.00    +0.120 A 
ATOM     26  C   UNL     1       5.515   1.712   0.000  0.00  0.00    +0.043 A 
ATOM     27  C   UNL     1       5.260   0.927   0.000  0.00  0.00    +0.104 A 
ATOM     28  N   UNL     1       4.453   0.756   0.000  0.00  0.00    -0.211 NA
BRANCH  25  29
ATOM     29  C   UNL     1       5.218   3.109   0.000  0.00  0.00    +0.163 A 
ATOM     30  C   UNL     1       4.733   3.777   0.000  0.00  0.00    +0.042 A 
ATOM     31  C   UNL     1       5.218   4.444   0.000  0.00  0.00    +0.044 A 
ATOM     32  C   UNL     1       6.002   4.189   0.000  0.00  0.00    +0.180 A 
ATOM     33  O   UNL     1       6.002   3.364   0.000  0.00  0.00    -0.449 OA
ENDBRANCH  25  29
ENDBRANCH  18  22
BRANCH  14  13
ATOM     11  C   UNL     1       0.208  -1.879   0.000  0.00  0.00    +0.265 C 
ATOM     12  O   UNL     1      -0.344  -1.265   0.000  0.00  0.00    -0.268 OA
ATOM     13  N   UNL     1       1.015  -1.707   0.000  0.00  0.00    -0.198 NA
BRANCH  11   8
ATOM      5  C   UNL     1      -0.557  -4.232   0.000  0.00  0.00    +0.071 A 
ATOM      6  C   UNL     1      -1.109  -3.619   0.000  0.00  0.00    +0.004 A 
ATOM      7  C   UNL     1      -0.854  -2.835   0.000  0.00  0.00    +0.005 A 
ATOM      8  C   UNL     1      -0.047  -2.663   0.000  0.00  0.00    +0.055 A 
ATOM      9  C   UNL     1       0.505  -3.276   0.000  0.00  0.00    +0.005 A 
ATOM     10  C   UNL     1       0.250  -4.061   0.000  0.00  0.00    +0.004 A 
BRANCH   5   2
ATOM      1  F   UNL     1      -1.067  -5.802   0.000  0.00  0.00    -0.166 F 
ATOM      2  C   UNL     1      -0.812  -5.017   0.000  0.00  0.00    +0.419 C 
ATOM      3  F   UNL     1      -0.028  -5.272   0.000  0.00  0.00    -0.166 F 
ATOM      4  F   UNL     1      -1.597  -4.762   0.000  0.00  0.00    -0.166 F 
ENDBRANCH   5   2
ENDBRANCH  11   8
ENDBRANCH  14  13
TORSDOF 5
