MODEL 1
REMARK VINA RESULT:     -11.0      0.000      0.000
REMARK  Name = 
REMARK  6 active torsions:
REMARK  status: ('A' for Active; 'I' for Inactive)
REMARK    1  A    between atoms: C_2  and  C_5
REMARK    2  A    between atoms: C_9  and  N_10
REMARK    3  A    between atoms: C_11  and  O_13
REMARK    4  A    between atoms: O_13  and  C_14
REMARK    5  A    between atoms: C_18  and  N_22
REMARK    6  A    between atoms: C_23  and  C_25
REMARK                            x       y       z     vdW  Elec       q    Type
REMARK                         _______ _______ _______ _____ _____    ______ ____
ROOT
ATOM     14  C   UNL     1      -0.535   0.165  24.635  0.00  0.00    +0.229 C 
ATOM     15  C   UNL     1      -0.523   0.471  23.869  0.00  0.00    +0.188 C 
ATOM     16  O   UNL     1      -0.549   1.294  23.924  0.00  0.00    -0.348 OA
ATOM     17  C   UNL     1      -0.578   1.497  24.722  0.00  0.00    +0.168 C 
ATOM     18  C   UNL     1      -0.611   2.129  25.250  0.00  0.00    +0.155 C 
ATOM     19  C   UNL     1      -0.623   1.824  26.016  0.00  0.00    +0.166 C 
ATOM     20  O   UNL     1      -0.597   1.001  25.962  0.00  0.00    -0.348 OA
ATOM     21  C   UNL     1      -0.569   0.799  25.162  0.00  0.00    +0.186 C 
ENDROOT
BRANCH  18  22
ATOM     22  N   UNL     1      -0.630   2.929  25.047  0.00  0.00    -0.198 NA
ATOM     23  C   UNL     1      -1.153   3.440  25.430  0.00  0.00    +0.268 C 
ATOM     24  O   UNL     1      -1.658   3.152  26.015  0.00  0.00    -0.268 OA
BRANCH  23  25
ATOM     25  C   UNL     1      -1.171   4.240  25.226  0.00  0.00    +0.093 A 
ATOM     26  C   UNL     1      -0.520   4.587  24.857  0.00  0.00    +0.107 A 
ATOM     27  N   UNL     1      -0.538   5.386  24.654  0.00  0.00    -0.222 NA
ATOM     28  C   UNL     1      -1.208   5.838  24.821  0.00  0.00    +0.199 A 
ATOM     29  N   UNL     1      -1.858   5.491  25.190  0.00  0.00    -0.222 NA
ATOM     30  C   UNL     1      -1.841   4.692  25.393  0.00  0.00    +0.107 A 
ENDBRANCH  23  25
ENDBRANCH  18  22
BRANCH  14  13
ATOM     13  O   UNL     1      -0.517  -0.634  24.838  0.00  0.00    -0.432 OA
BRANCH  13  11
ATOM     10  N   UNL     1      -1.734  -1.346  25.072  0.00  0.00    -0.142 NA
ATOM     11  C   UNL     1      -1.110  -1.142  24.572  0.00  0.00    +0.425 C 
ATOM     12  O   UNL     1      -1.080  -1.445  23.805  0.00  0.00    -0.224 OA
BRANCH  10   9
ATOM      5  C   UNL     1      -3.651  -2.056  24.307  0.00  0.00    +0.073 A 
ATOM      6  C   UNL     1      -3.514  -2.869  24.273  0.00  0.00    +0.004 A 
ATOM      7  C   UNL     1      -2.783  -3.174  24.506  0.00  0.00    +0.001 A 
ATOM      8  C   UNL     1      -2.190  -2.666  24.772  0.00  0.00    +0.017 A 
ATOM      9  C   UNL     1      -2.327  -1.853  24.805  0.00  0.00    +0.077 A 
ATOM     31  C   UNL     1      -3.057  -1.549  24.573  0.00  0.00    +0.021 A 
BRANCH   5   2
ATOM      1  F   UNL     1      -5.112  -1.446  23.841  0.00  0.00    -0.166 F 
ATOM      2  C   UNL     1      -4.381  -1.751  24.074  0.00  0.00    +0.419 C 
ATOM      3  F   UNL     1      -4.318  -2.150  23.355  0.00  0.00    -0.166 F 
ATOM      4  F   UNL     1      -4.445  -1.352  24.794  0.00  0.00    -0.166 F 
ENDBRANCH   5   2
ENDBRANCH  10   9
ENDBRANCH  13  11
ENDBRANCH  14  13
TORSDOF 6
ENDMDL
MODEL 2
REMARK VINA RESULT:     -10.7      2.079      2.469
REMARK  Name = 
REMARK  6 active torsions:
REMARK  status: ('A' for Active; 'I' for Inactive)
REMARK    1  A    between atoms: C_2  and  C_5
REMARK    2  A    between atoms: C_9  and  N_10
REMARK    3  A    between atoms: C_11  and  O_13
REMARK    4  A    between atoms: O_13  and  C_14
REMARK    5  A    between atoms: C_18  and  N_22
REMARK    6  A    between atoms: C_23  and  C_25
REMARK                            x       y       z     vdW  Elec       q    Type
REMARK                         _______ _______ _______ _____ _____    ______ ____
ROOT
ATOM     14  C   UNL     1      -3.937   1.112  24.133  0.00  0.00    +0.229 C 
ATOM     15  C   UNL     1      -3.437   1.227  23.487  0.00  0.00    +0.188 C 
ATOM     16  O   UNL     1      -3.051   1.948  23.588  0.00  0.00    -0.348 OA
ATOM     17  C   UNL     1      -3.311   2.280  24.297  0.00  0.00    +0.168 C 
ATOM     18  C   UNL     1      -3.234   2.930  24.798  0.00  0.00    +0.155 C 
ATOM     19  C   UNL     1      -3.733   2.816  25.445  0.00  0.00    +0.166 C 
ATOM     20  O   UNL     1      -4.119   2.094  25.343  0.00  0.00    -0.348 OA
ATOM     21  C   UNL     1      -3.859   1.763  24.634  0.00  0.00    +0.186 C 
ENDROOT
BRANCH  18  22
ATOM     22  N   UNL     1      -2.743   3.582  24.674  0.00  0.00    -0.198 NA
ATOM     23  C   UNL     1      -2.196   3.802  25.252  0.00  0.00    +0.268 C 
ATOM     24  O   UNL     1      -2.140   3.372  25.953  0.00  0.00    -0.268 OA
BRANCH  23  25
ATOM     25  C   UNL     1      -1.705   4.454  25.128  0.00  0.00    +0.093 A 
ATOM     26  C   UNL     1      -0.922   4.341  24.893  0.00  0.00    +0.107 A 
ATOM     27  N   UNL     1      -0.430   4.992  24.769  0.00  0.00    -0.222 NA
ATOM     28  C   UNL     1      -0.723   5.756  24.880  0.00  0.00    +0.199 A 
ATOM     29  N   UNL     1      -1.505   5.868  25.115  0.00  0.00    -0.222 NA
ATOM     30  C   UNL     1      -1.997   5.217  25.239  0.00  0.00    +0.107 A 
ENDBRANCH  23  25
ENDBRANCH  18  22
BRANCH  14  13
ATOM     13  O   UNL     1      -4.428   0.461  24.257  0.00  0.00    -0.432 OA
BRANCH  13  11
ATOM     10  N   UNL     1      -4.049  -0.835  24.724  0.00  0.00    -0.142 NA
ATOM     11  C   UNL     1      -4.150  -0.301  24.104  0.00  0.00    +0.425 C 
ATOM     12  O   UNL     1      -3.974  -0.528  23.330  0.00  0.00    -0.224 OA
BRANCH  10   9
ATOM      5  C   UNL     1      -2.705  -2.549  24.571  0.00  0.00    +0.073 A 
ATOM      6  C   UNL     1      -3.216  -3.121  24.266  0.00  0.00    +0.004 A 
ATOM      7  C   UNL     1      -4.004  -2.930  24.113  0.00  0.00    +0.001 A 
ATOM      8  C   UNL     1      -4.281  -2.168  24.266  0.00  0.00    +0.017 A 
ATOM      9  C   UNL     1      -3.771  -1.597  24.571  0.00  0.00    +0.077 A 
ATOM     31  C   UNL     1      -2.983  -1.787  24.724  0.00  0.00    +0.021 A 
BRANCH   5   2
ATOM      1  F   UNL     1      -1.129  -2.930  24.876  0.00  0.00    -0.166 F 
ATOM      2  C   UNL     1      -1.918  -2.739  24.723  0.00  0.00    +0.419 C 
ATOM      3  F   UNL     1      -2.055  -2.661  25.532  0.00  0.00    -0.166 F 
ATOM      4  F   UNL     1      -1.779  -2.818  23.914  0.00  0.00    -0.166 F 
ENDBRANCH   5   2
ENDBRANCH  10   9
ENDBRANCH  13  11
ENDBRANCH  14  13
TORSDOF 6
ENDMDL
MODEL 3
REMARK VINA RESULT:     -10.6      2.312      5.789
REMARK  Name = 
REMARK  6 active torsions:
REMARK  status: ('A' for Active; 'I' for Inactive)
REMARK    1  A    between atoms: C_2  and  C_5
REMARK    2  A    between atoms: C_9  and  N_10
REMARK    3  A    between atoms: C_11  and  O_13
REMARK    4  A    between atoms: O_13  and  C_14
REMARK    5  A    between atoms: C_18  and  N_22
REMARK    6  A    between atoms: C_23  and  C_25
REMARK                            x       y       z     vdW  Elec       q    Type
REMARK                         _______ _______ _______ _____ _____    ______ ____
ROOT
ATOM     14  C   UNL     1      -0.454   1.090  24.458  0.00  0.00    +0.229 C 
ATOM     15  C   UNL     1      -0.575   0.876  23.671  0.00  0.00    +0.188 C 
ATOM     16  O   UNL     1      -1.032   0.190  23.661  0.00  0.00    -0.348 OA
ATOM     17  C   UNL     1      -1.193  -0.021  24.441  0.00  0.00    +0.168 C 
ATOM     18  C   UNL     1      -1.575  -0.575  24.919  0.00  0.00    +0.155 C 
ATOM     19  C   UNL     1      -1.454  -0.361  25.706  0.00  0.00    +0.166 C 
ATOM     20  O   UNL     1      -0.997   0.325  25.716  0.00  0.00    -0.348 OA
ATOM     21  C   UNL     1      -0.836   0.536  24.934  0.00  0.00    +0.186 C 
ENDROOT
BRANCH  18  22
ATOM     22  N   UNL     1      -2.004  -1.229  24.655  0.00  0.00    -0.198 NA
ATOM     23  C   UNL     1      -2.788  -1.330  24.889  0.00  0.00    +0.268 C 
ATOM     24  O   UNL     1      -3.145  -0.778  25.388  0.00  0.00    -0.268 OA
BRANCH  23  25
ATOM     25  C   UNL     1      -3.217  -1.984  24.625  0.00  0.00    +0.093 A 
ATOM     26  C   UNL     1      -3.849  -1.880  24.106  0.00  0.00    +0.107 A 
ATOM     27  N   UNL     1      -4.278  -2.533  23.841  0.00  0.00    -0.222 NA
ATOM     28  C   UNL     1      -4.073  -3.292  24.096  0.00  0.00    +0.199 A 
ATOM     29  N   UNL     1      -3.441  -3.395  24.615  0.00  0.00    -0.222 NA
ATOM     30  C   UNL     1      -3.012  -2.742  24.880  0.00  0.00    +0.107 A 
ENDBRANCH  23  25
ENDBRANCH  18  22
BRANCH  14  13
ATOM     13  O   UNL     1      -0.025   1.744  24.722  0.00  0.00    -0.432 OA
BRANCH  13  11
ATOM     10  N   UNL     1      -0.544   2.927  25.333  0.00  0.00    -0.142 NA
ATOM     11  C   UNL     1      -0.345   2.501  24.656  0.00  0.00    +0.425 C 
ATOM     12  O   UNL     1      -0.465   2.833  23.909  0.00  0.00    -0.224 OA
BRANCH  10   9
ATOM      5  C   UNL     1      -1.974   4.575  25.390  0.00  0.00    +0.073 A 
ATOM      6  C   UNL     1      -1.502   5.200  25.132  0.00  0.00    +0.004 A 
ATOM      7  C   UNL     1      -0.710   5.068  24.941  0.00  0.00    +0.001 A 
ATOM      8  C   UNL     1      -0.391   4.310  25.009  0.00  0.00    +0.017 A 
ATOM      9  C   UNL     1      -0.864   3.684  25.266  0.00  0.00    +0.077 A 
ATOM     31  C   UNL     1      -1.655   3.817  25.457  0.00  0.00    +0.021 A 
BRANCH   5   2
ATOM      1  F   UNL     1      -3.557   4.840  25.772  0.00  0.00    -0.166 F 
ATOM      2  C   UNL     1      -2.765   4.707  25.581  0.00  0.00    +0.419 C 
ATOM      3  F   UNL     1      -2.972   4.612  24.789  0.00  0.00    -0.166 F 
ATOM      4  F   UNL     1      -2.560   4.803  26.374  0.00  0.00    -0.166 F 
ENDBRANCH   5   2
ENDBRANCH  10   9
ENDBRANCH  13  11
ENDBRANCH  14  13
TORSDOF 6
ENDMDL
MODEL 4
REMARK VINA RESULT:     -10.2      3.151      6.411
REMARK  Name = 
REMARK  6 active torsions:
REMARK  status: ('A' for Active; 'I' for Inactive)
REMARK    1  A    between atoms: C_2  and  C_5
REMARK    2  A    between atoms: C_9  and  N_10
REMARK    3  A    between atoms: C_11  and  O_13
REMARK    4  A    between atoms: O_13  and  C_14
REMARK    5  A    between atoms: C_18  and  N_22
REMARK    6  A    between atoms: C_23  and  C_25
REMARK                            x       y       z     vdW  Elec       q    Type
REMARK                         _______ _______ _______ _____ _____    ______ ____
ROOT
ATOM     14  C   UNL     1      -4.115   2.306  24.348  0.00  0.00    +0.229 C 
ATOM     15  C   UNL     1      -3.765   2.073  23.639  0.00  0.00    +0.188 C 
ATOM     16  O   UNL     1      -3.787   1.249  23.603  0.00  0.00    -0.348 OA
ATOM     17  C   UNL     1      -4.151   0.973  24.289  0.00  0.00    +0.168 C 
ATOM     18  C   UNL     1      -4.390   0.295  24.693  0.00  0.00    +0.155 C 
ATOM     19  C   UNL     1      -4.741   0.528  25.402  0.00  0.00    +0.166 C 
ATOM     20  O   UNL     1      -4.719   1.352  25.437  0.00  0.00    -0.348 OA
ATOM     21  C   UNL     1      -4.354   1.627  24.750  0.00  0.00    +0.186 C 
ENDROOT
BRANCH  18  22
ATOM     22  N   UNL     1      -4.295  -0.483  24.432  0.00  0.00    -0.198 NA
ATOM     23  C   UNL     1      -3.953  -1.045  24.928  0.00  0.00    +0.268 C 
ATOM     24  O   UNL     1      -3.706  -0.832  25.686  0.00  0.00    -0.268 OA
BRANCH  23  25
ATOM     25  C   UNL     1      -3.857  -1.823  24.668  0.00  0.00    +0.093 A 
ATOM     26  C   UNL     1      -3.393  -2.349  25.101  0.00  0.00    +0.107 A 
ATOM     27  N   UNL     1      -3.297  -3.126  24.841  0.00  0.00    -0.222 NA
ATOM     28  C   UNL     1      -3.667  -3.376  24.146  0.00  0.00    +0.199 A 
ATOM     29  N   UNL     1      -4.131  -2.850  23.713  0.00  0.00    -0.222 NA
ATOM     30  C   UNL     1      -4.226  -2.072  23.973  0.00  0.00    +0.107 A 
ENDBRANCH  23  25
ENDBRANCH  18  22
BRANCH  14  13
ATOM     13  O   UNL     1      -4.211   3.083  24.608  0.00  0.00    -0.432 OA
BRANCH  13  11
ATOM     10  N   UNL     1      -3.094   3.717  25.235  0.00  0.00    -0.142 NA
ATOM     11  C   UNL     1      -3.577   3.611  24.576  0.00  0.00    +0.425 C 
ATOM     12  O   UNL     1      -3.427   4.032  23.882  0.00  0.00    -0.224 OA
BRANCH  10   9
ATOM      5  C   UNL     1      -1.062   4.491  25.037  0.00  0.00    +0.073 A 
ATOM      6  C   UNL     1      -1.193   5.299  25.137  0.00  0.00    +0.004 A 
ATOM      7  C   UNL     1      -1.957   5.580  25.269  0.00  0.00    +0.001 A 
ATOM      8  C   UNL     1      -2.591   5.052  25.302  0.00  0.00    +0.017 A 
ATOM      9  C   UNL     1      -2.460   4.244  25.202  0.00  0.00    +0.077 A 
ATOM     31  C   UNL     1      -1.696   3.963  25.070  0.00  0.00    +0.021 A 
BRANCH   5   2
ATOM      1  F   UNL     1       0.467   3.929  24.773  0.00  0.00    -0.166 F 
ATOM      2  C   UNL     1      -0.298   4.210  24.905  0.00  0.00    +0.419 C 
ATOM      3  F   UNL     1      -0.304   3.846  25.644  0.00  0.00    -0.166 F 
ATOM      4  F   UNL     1      -0.291   4.574  24.165  0.00  0.00    -0.166 F 
ENDBRANCH   5   2
ENDBRANCH  10   9
ENDBRANCH  13  11
ENDBRANCH  14  13
TORSDOF 6
ENDMDL
MODEL 5
REMARK VINA RESULT:      -9.9      3.236      4.768
REMARK  Name = 
REMARK  6 active torsions:
REMARK  status: ('A' for Active; 'I' for Inactive)
REMARK    1  A    between atoms: C_2  and  C_5
REMARK    2  A    between atoms: C_9  and  N_10
REMARK    3  A    between atoms: C_11  and  O_13
REMARK    4  A    between atoms: O_13  and  C_14
REMARK    5  A    between atoms: C_18  and  N_22
REMARK    6  A    between atoms: C_23  and  C_25
REMARK                            x       y       z     vdW  Elec       q    Type
REMARK                         _______ _______ _______ _____ _____    ______ ____
ROOT
ATOM     14  C   UNL     1      -0.984   0.855  24.027  0.00  0.00    +0.229 C 
ATOM     15  C   UNL     1      -0.613   1.456  24.452  0.00  0.00    +0.188 C 
ATOM     16  O   UNL     1       0.199   1.393  24.327  0.00  0.00    -0.348 OA
ATOM     17  C   UNL     1       0.332   0.754  23.824  0.00  0.00    +0.168 C 
ATOM     18  C   UNL     1       0.915   0.319  23.435  0.00  0.00    +0.155 C 
ATOM     19  C   UNL     1       0.544  -0.282  23.009  0.00  0.00    +0.166 C 
ATOM     20  O   UNL     1      -0.268  -0.220  23.135  0.00  0.00    -0.348 OA
ATOM     21  C   UNL     1      -0.400   0.421  23.638  0.00  0.00    +0.186 C 
ENDROOT
BRANCH  18  22
ATOM     22  N   UNL     1       1.727   0.461  23.466  0.00  0.00    -0.198 NA
ATOM     23  C   UNL     1       2.215   0.205  22.853  0.00  0.00    +0.268 C 
ATOM     24  O   UNL     1       1.891  -0.193  22.207  0.00  0.00    -0.268 OA
BRANCH  23  25
ATOM     25  C   UNL     1       3.027   0.347  22.884  0.00  0.00    +0.093 A 
ATOM     26  C   UNL     1       3.317   1.111  22.769  0.00  0.00    +0.107 A 
ATOM     27  N   UNL     1       4.129   1.254  22.800  0.00  0.00    -0.222 NA
ATOM     28  C   UNL     1       4.651   0.631  22.947  0.00  0.00    +0.199 A 
ATOM     29  N   UNL     1       4.361  -0.131  23.063  0.00  0.00    -0.222 NA
ATOM     30  C   UNL     1       3.549  -0.275  23.031  0.00  0.00    +0.107 A 
ENDBRANCH  23  25
ENDBRANCH  18  22
BRANCH  14  13
ATOM     13  O   UNL     1      -1.796   0.713  23.995  0.00  0.00    -0.432 OA
BRANCH  13  11
ATOM     10  N   UNL     1      -2.999   1.469  23.847  0.00  0.00    -0.142 NA
ATOM     11  C   UNL     1      -2.325   1.277  24.281  0.00  0.00    +0.425 C 
ATOM     12  O   UNL     1      -2.180   1.650  25.003  0.00  0.00    -0.224 OA
BRANCH  10   9
ATOM      5  C   UNL     1      -4.748   2.360  24.802  0.00  0.00    +0.073 A 
ATOM      6  C   UNL     1      -4.587   3.163  24.705  0.00  0.00    +0.004 A 
ATOM      7  C   UNL     1      -3.896   3.401  24.321  0.00  0.00    +0.001 A 
ATOM      8  C   UNL     1      -3.368   2.836  24.035  0.00  0.00    +0.017 A 
ATOM      9  C   UNL     1      -3.529   2.033  24.133  0.00  0.00    +0.077 A 
ATOM     31  C   UNL     1      -4.219   1.795  24.516  0.00  0.00    +0.021 A 
BRANCH   5   2
ATOM      1  F   UNL     1      -6.129   1.883  25.569  0.00  0.00    -0.166 F 
ATOM      2  C   UNL     1      -5.438   2.122  25.185  0.00  0.00    +0.419 C 
ATOM      3  F   UNL     1      -5.100   2.312  25.913  0.00  0.00    -0.166 F 
ATOM      4  F   UNL     1      -5.778   1.931  24.458  0.00  0.00    -0.166 F 
ENDBRANCH   5   2
ENDBRANCH  10   9
ENDBRANCH  13  11
ENDBRANCH  14  13
TORSDOF 6
ENDMDL
MODEL 6
REMARK VINA RESULT:      -9.8      2.914      4.319
REMARK  Name = 
REMARK  6 active torsions:
REMARK  status: ('A' for Active; 'I' for Inactive)
REMARK    1  A    between atoms: C_2  and  C_5
REMARK    2  A    between atoms: C_9  and  N_10
REMARK    3  A    between atoms: C_11  and  O_13
REMARK    4  A    between atoms: O_13  and  C_14
REMARK    5  A    between atoms: C_18  and  N_22
REMARK    6  A    between atoms: C_23  and  C_25
REMARK                            x       y       z     vdW  Elec       q    Type
REMARK                         _______ _______ _______ _____ _____    ______ ____
ROOT
ATOM     14  C   UNL     1      -0.574   1.103  23.653  0.00  0.00    +0.229 C 
ATOM     15  C   UNL     1      -0.198   1.539  24.244  0.00  0.00    +0.188 C 
ATOM     16  O   UNL     1       0.607   1.363  24.217  0.00  0.00    -0.348 OA
ATOM     17  C   UNL     1       0.730   0.819  23.610  0.00  0.00    +0.168 C 
ATOM     18  C   UNL     1       1.302   0.373  23.217  0.00  0.00    +0.155 C 
ATOM     19  C   UNL     1       0.926  -0.063  22.626  0.00  0.00    +0.166 C 
ATOM     20  O   UNL     1       0.121   0.113  22.653  0.00  0.00    -0.348 OA
ATOM     21  C   UNL     1      -0.001   0.658  23.261  0.00  0.00    +0.186 C 
ENDROOT
BRANCH  18  22
ATOM     22  N   UNL     1       2.110   0.365  23.386  0.00  0.00    -0.198 NA
ATOM     23  C   UNL     1       2.656   0.214  22.786  0.00  0.00    +0.268 C 
ATOM     24  O   UNL     1       2.394   0.071  22.017  0.00  0.00    -0.268 OA
BRANCH  23  25
ATOM     25  C   UNL     1       3.463   0.205  22.956  0.00  0.00    +0.093 A 
ATOM     26  C   UNL     1       3.808  -0.466  23.289  0.00  0.00    +0.107 A 
ATOM     27  N   UNL     1       4.616  -0.475  23.458  0.00  0.00    -0.222 NA
ATOM     28  C   UNL     1       5.078   0.189  23.294  0.00  0.00    +0.199 A 
ATOM     29  N   UNL     1       4.733   0.860  22.961  0.00  0.00    -0.222 NA
ATOM     30  C   UNL     1       3.925   0.869  22.792  0.00  0.00    +0.107 A 
ENDBRANCH  23  25
ENDBRANCH  18  22
BRANCH  14  13
ATOM     13  O   UNL     1      -1.381   1.111  23.483  0.00  0.00    -0.432 OA
BRANCH  13  11
ATOM     10  N   UNL     1      -2.571   0.384  23.797  0.00  0.00    -0.142 NA
ATOM     11  C   UNL     1      -1.923   0.832  24.040  0.00  0.00    +0.425 C 
ATOM     12  O   UNL     1      -1.815   1.001  24.841  0.00  0.00    -0.224 OA
BRANCH  10   9
ATOM      5  C   UNL     1      -3.631  -0.964  25.147  0.00  0.00    +0.073 A 
ATOM      6  C   UNL     1      -4.195  -0.453  25.466  0.00  0.00    +0.004 A 
ATOM      7  C   UNL     1      -4.218   0.337  25.228  0.00  0.00    +0.001 A 
ATOM      8  C   UNL     1      -3.676   0.615  24.672  0.00  0.00    +0.017 A 
ATOM      9  C   UNL     1      -3.112   0.105  24.353  0.00  0.00    +0.077 A 
ATOM     31  C   UNL     1      -3.090  -0.684  24.591  0.00  0.00    +0.021 A 
BRANCH   5   2
ATOM      1  F   UNL     1      -3.586  -2.543  25.623  0.00  0.00    -0.166 F 
ATOM      2  C   UNL     1      -3.609  -1.753  25.385  0.00  0.00    +0.419 C 
ATOM      3  F   UNL     1      -3.226  -1.532  26.081  0.00  0.00    -0.166 F 
ATOM      4  F   UNL     1      -3.992  -1.975  24.689  0.00  0.00    -0.166 F 
ENDBRANCH   5   2
ENDBRANCH  10   9
ENDBRANCH  13  11
ENDBRANCH  14  13
TORSDOF 6
ENDMDL
MODEL 7
REMARK VINA RESULT:      -9.6      2.843      4.683
REMARK  Name = 
REMARK  6 active torsions:
REMARK  status: ('A' for Active; 'I' for Inactive)
REMARK    1  A    between atoms: C_2  and  C_5
REMARK    2  A    between atoms: C_9  and  N_10
REMARK    3  A    between atoms: C_11  and  O_13
REMARK    4  A    between atoms: O_13  and  C_14
REMARK    5  A    between atoms: C_18  and  N_22
REMARK    6  A    between atoms: C_23  and  C_25
REMARK                            x       y       z     vdW  Elec       q    Type
REMARK                         _______ _______ _______ _____ _____    ______ ____
ROOT
ATOM     14  C   UNL     1      -1.464   3.295  25.119  0.00  0.00    +0.229 C 
ATOM     15  C   UNL     1      -1.281   3.629  24.387  0.00  0.00    +0.188 C 
ATOM     16  O   UNL     1      -0.701   3.162  24.032  0.00  0.00    -0.348 OA
ATOM     17  C   UNL     1      -0.525   2.541  24.543  0.00  0.00    +0.168 C 
ATOM     18  C   UNL     1      -0.058   1.867  24.641  0.00  0.00    +0.155 C 
ATOM     19  C   UNL     1      -0.240   1.533  25.373  0.00  0.00    +0.166 C 
ATOM     20  O   UNL     1      -0.820   2.000  25.728  0.00  0.00    -0.348 OA
ATOM     21  C   UNL     1      -0.996   2.623  25.215  0.00  0.00    +0.186 C 
ENDROOT
BRANCH  18  22
ATOM     22  N   UNL     1       0.495   1.579  24.100  0.00  0.00    -0.198 NA
ATOM     23  C   UNL     1       0.504   0.777  23.907  0.00  0.00    +0.268 C 
ATOM     24  O   UNL     1      -0.040   0.263  24.254  0.00  0.00    -0.268 OA
BRANCH  23  25
ATOM     25  C   UNL     1       1.057   0.489  23.367  0.00  0.00    +0.093 A 
ATOM     26  C   UNL     1       1.839   0.747  23.399  0.00  0.00    +0.107 A 
ATOM     27  N   UNL     1       2.393   0.460  22.860  0.00  0.00    -0.222 NA
ATOM     28  C   UNL     1       2.162  -0.088  22.286  0.00  0.00    +0.199 A 
ATOM     29  N   UNL     1       1.380  -0.346  22.254  0.00  0.00    -0.222 NA
ATOM     30  C   UNL     1       0.826  -0.058  22.794  0.00  0.00    +0.107 A 
ENDBRANCH  23  25
ENDBRANCH  18  22
BRANCH  14  13
ATOM     13  O   UNL     1      -2.017   3.583  25.659  0.00  0.00    -0.432 OA
BRANCH  13  11
ATOM     10  N   UNL     1      -3.373   3.223  25.929  0.00  0.00    -0.142 NA
ATOM     11  C   UNL     1      -2.816   3.608  25.458  0.00  0.00    +0.425 C 
ATOM     12  O   UNL     1      -3.059   4.019  24.785  0.00  0.00    -0.224 OA
BRANCH  10   9
ATOM      5  C   UNL     1      -5.353   2.591  25.264  0.00  0.00    +0.073 A 
ATOM      6  C   UNL     1      -5.772   3.299  25.326  0.00  0.00    +0.004 A 
ATOM      7  C   UNL     1      -5.391   3.982  25.590  0.00  0.00    +0.001 A 
ATOM      8  C   UNL     1      -4.591   3.956  25.791  0.00  0.00    +0.017 A 
ATOM      9  C   UNL     1      -4.173   3.248  25.728  0.00  0.00    +0.077 A 
ATOM     31  C   UNL     1      -4.553   2.566  25.465  0.00  0.00    +0.021 A 
BRANCH   5   2
ATOM      1  F   UNL     1      -6.116   1.226  24.737  0.00  0.00    -0.166 F 
ATOM      2  C   UNL     1      -5.734   1.908  25.001  0.00  0.00    +0.419 C 
ATOM      3  F   UNL     1      -5.552   2.107  24.222  0.00  0.00    -0.166 F 
ATOM      4  F   UNL     1      -5.917   1.708  25.780  0.00  0.00    -0.166 F 
ENDBRANCH   5   2
ENDBRANCH  10   9
ENDBRANCH  13  11
ENDBRANCH  14  13
TORSDOF 6
ENDMDL
