MODEL 1
REMARK VINA RESULT:     -11.0      0.000      0.000
REMARK  Name = 
REMARK  10 active torsions:
REMARK  status: ('A' for Active; 'I' for Inactive)
REMARK    1  A    between atoms: N_2  and  C_3
REMARK    2  A    between atoms: N_2  and  C_29
REMARK    3  A    between atoms: C_3  and  C_4
REMARK    4  A    between atoms: C_6  and  C_7
REMARK    5  A    between atoms: C_7  and  C_8
REMARK    6  A    between atoms: C_10  and  N_11
REMARK    7  A    between atoms: N_11  and  C_12
REMARK    8  A    between atoms: N_11  and  C_18
REMARK    9  A    between atoms: C_12  and  C_13
REMARK   10  A    between atoms: C_18  and  C_19
REMARK                            x       y       z     vdW  Elec       q    Type
REMARK                         _______ _______ _______ _____ _____    ______ ____
ROOT
ATOM      8  C   UNL     1      -4.191   0.961  24.670  0.00  0.00    +0.009 C 
ATOM      9  C   UNL     1      -3.808   0.558  25.279  0.00  0.00    +0.016 C 
ATOM     10  C   UNL     1      -3.418   0.089  24.723  0.00  0.00    +0.058 C 
ATOM     24  C   UNL     1      -3.801   0.493  24.113  0.00  0.00    +0.014 C 
ATOM     25  C   UNL     1      -3.512   0.132  23.431  0.00  0.00    +0.001 C 
ATOM     26  C   UNL     1      -4.083   0.776  23.392  0.00  0.00    +0.001 C 
ENDROOT
BRANCH   8   7
ATOM      7  C   UNL     1      -4.738   1.578  24.632  0.00  0.00    +0.049 C 
BRANCH   7   6
ATOM      4  C   UNL     1      -4.034   3.458  25.360  0.00  0.00    +0.174 A 
ATOM      5  C   UNL     1      -3.989   2.828  24.829  0.00  0.00    +0.055 A 
ATOM      6  C   UNL     1      -4.584   2.289  25.022  0.00  0.00    +0.100 A 
ATOM     27  N   UNL     1      -4.996   2.587  25.672  0.00  0.00    -0.082 NA
ATOM     28  O   UNL     1      -4.657   3.309  25.881  0.00  0.00    -0.356 OA
BRANCH   4   3
ATOM      3  C   UNL     1      -3.543   4.121  25.369  0.00  0.00    +0.159 C 
BRANCH   3   2
ATOM      1  C   UNL     1      -2.902   3.878  26.622  0.00  0.00    +0.113 C 
ATOM      2  N   UNL     1      -2.864   4.125  25.837  0.00  0.00    -0.299 N 
BRANCH   2  29
ATOM     29  C   UNL     1      -2.145   4.377  25.518  0.00  0.00    +0.048 A 
ATOM     30  C   UNL     1      -2.051   5.162  25.283  0.00  0.00    +0.015 A 
ATOM     31  C   UNL     1      -1.332   5.413  24.965  0.00  0.00    +0.001 A 
ATOM     32  C   UNL     1      -0.709   4.880  24.882  0.00  0.00    +0.000 A 
ATOM     33  C   UNL     1      -0.803   4.094  25.118  0.00  0.00    +0.001 A 
ATOM     34  C   UNL     1      -1.522   3.844  25.436  0.00  0.00    +0.015 A 
ENDBRANCH   2  29
ENDBRANCH   3   2
ENDBRANCH   4   3
ENDBRANCH   7   6
ENDBRANCH   8   7
BRANCH  10  11
ATOM     11  N   UNL     1      -2.872  -0.528  24.760  0.00  0.00    -0.261 NA
BRANCH  11  12
ATOM     12  C   UNL     1      -2.966  -1.192  24.279  0.00  0.00    +0.138 C 
BRANCH  12  13
ATOM     13  C   UNL     1      -3.167  -1.918  24.614  0.00  0.00    +0.139 A 
ATOM     14  C   UNL     1      -3.323  -2.616  24.201  0.00  0.00    +0.038 A 
ATOM     15  C   UNL     1      -3.500  -3.204  24.753  0.00  0.00    +0.043 A 
ATOM     16  C   UNL     1      -3.453  -2.870  25.505  0.00  0.00    +0.179 A 
ATOM     17  O   UNL     1      -3.247  -2.076  25.420  0.00  0.00    -0.453 OA
ENDBRANCH  12  13
ENDBRANCH  11  12
BRANCH  11  18
ATOM     18  C   UNL     1      -2.232  -0.481  25.278  0.00  0.00    +0.138 C 
BRANCH  18  19
ATOM     19  C   UNL     1      -1.492  -0.242  25.002  0.00  0.00    +0.139 A 
ATOM     20  C   UNL     1      -1.019   0.348  25.329  0.00  0.00    +0.038 A 
ATOM     21  C   UNL     1      -0.331   0.402  24.878  0.00  0.00    +0.043 A 
ATOM     22  C   UNL     1      -0.379  -0.154  24.271  0.00  0.00    +0.179 A 
ATOM     23  O   UNL     1      -1.097  -0.553  24.347  0.00  0.00    -0.453 OA
ENDBRANCH  18  19
ENDBRANCH  11  18
ENDBRANCH  10  11
TORSDOF 10
ENDMDL
MODEL 2
REMARK VINA RESULT:     -11.0      0.062      2.127
REMARK  Name = 
REMARK  10 active torsions:
REMARK  status: ('A' for Active; 'I' for Inactive)
REMARK    1  A    between atoms: N_2  and  C_3
REMARK    2  A    between atoms: N_2  and  C_29
REMARK    3  A    between atoms: C_3  and  C_4
REMARK    4  A    between atoms: C_6  and  C_7
REMARK    5  A    between atoms: C_7  and  C_8
REMARK    6  A    between atoms: C_10  and  N_11
REMARK    7  A    between atoms: N_11  and  C_12
REMARK    8  A    between atoms: N_11  and  C_18
REMARK    9  A    between atoms: C_12  and  C_13
REMARK   10  A    between atoms: C_18  and  C_19
REMARK                            x       y       z     vdW  Elec       q    Type
REMARK                         _______ _______ _______ _____ _____    ______ ____
ROOT
ATOM      8  C   UNL     1      -4.129   0.968  24.636  0.00  0.00    +0.009 C 
ATOM      9  C   UNL     1      -3.733   0.578  25.245  0.00  0.00    +0.016 C 
ATOM     10  C   UNL     1      -3.358   0.094  24.692  0.00  0.00    +0.058 C 
ATOM     24  C   UNL     1      -3.754   0.484  24.082  0.00  0.00    +0.014 C 
ATOM     25  C   UNL     1      -3.481   0.105  23.402  0.00  0.00    +0.001 C 
ATOM     26  C   UNL     1      -4.051   0.751  23.360  0.00  0.00    +0.001 C 
ENDROOT
BRANCH   8   7
ATOM      7  C   UNL     1      -4.674   1.586  24.596  0.00  0.00    +0.049 C 
BRANCH   7   6
ATOM      4  C   UNL     1      -3.993   3.462  25.353  0.00  0.00    +0.174 A 
ATOM      5  C   UNL     1      -3.943   2.844  24.809  0.00  0.00    +0.055 A 
ATOM      6  C   UNL     1      -4.527   2.291  24.998  0.00  0.00    +0.100 A 
ATOM     27  N   UNL     1      -4.937   2.569  25.657  0.00  0.00    -0.082 NA
ATOM     28  O   UNL     1      -4.607   3.293  25.877  0.00  0.00    -0.356 OA
BRANCH   4   3
ATOM      3  C   UNL     1      -3.512   4.133  25.370  0.00  0.00    +0.159 C 
BRANCH   3   2
ATOM      1  C   UNL     1      -2.868   3.896  26.623  0.00  0.00    +0.113 C 
ATOM      2  N   UNL     1      -2.832   4.141  25.836  0.00  0.00    -0.299 N 
BRANCH   2  29
ATOM     29  C   UNL     1      -2.115   4.396  25.516  0.00  0.00    +0.048 A 
ATOM     30  C   UNL     1      -1.484   3.870  25.449  0.00  0.00    +0.015 A 
ATOM     31  C   UNL     1      -0.767   4.124  25.129  0.00  0.00    +0.001 A 
ATOM     32  C   UNL     1      -0.683   4.904  24.875  0.00  0.00    +0.000 A 
ATOM     33  C   UNL     1      -1.315   5.431  24.942  0.00  0.00    +0.001 A 
ATOM     34  C   UNL     1      -2.031   5.176  25.263  0.00  0.00    +0.015 A 
ENDBRANCH   2  29
ENDBRANCH   3   2
ENDBRANCH   4   3
ENDBRANCH   7   6
ENDBRANCH   8   7
BRANCH  10  11
ATOM     11  N   UNL     1      -2.813  -0.524  24.732  0.00  0.00    -0.261 NA
BRANCH  11  12
ATOM     12  C   UNL     1      -2.165  -0.470  25.240  0.00  0.00    +0.138 C 
BRANCH  12  13
ATOM     13  C   UNL     1      -1.427  -0.247  24.945  0.00  0.00    +0.139 A 
ATOM     14  C   UNL     1      -0.956   0.367  25.232  0.00  0.00    +0.038 A 
ATOM     15  C   UNL     1      -0.269   0.396  24.776  0.00  0.00    +0.043 A 
ATOM     16  C   UNL     1      -0.316  -0.200  24.207  0.00  0.00    +0.179 A 
ATOM     17  O   UNL     1      -1.032  -0.597  24.312  0.00  0.00    -0.453 OA
ENDBRANCH  12  13
ENDBRANCH  11  12
BRANCH  11  18
ATOM     18  C   UNL     1      -2.916  -1.195  24.264  0.00  0.00    +0.138 C 
BRANCH  18  19
ATOM     19  C   UNL     1      -3.129  -1.913  24.612  0.00  0.00    +0.139 A 
ATOM     20  C   UNL     1      -3.282  -2.618  24.214  0.00  0.00    +0.038 A 
ATOM     21  C   UNL     1      -3.474  -3.191  24.776  0.00  0.00    +0.043 A 
ATOM     22  C   UNL     1      -3.439  -2.840  25.521  0.00  0.00    +0.179 A 
ATOM     23  O   UNL     1      -3.226  -2.049  25.420  0.00  0.00    -0.453 OA
ENDBRANCH  18  19
ENDBRANCH  11  18
ENDBRANCH  10  11
TORSDOF 10
ENDMDL
MODEL 3
REMARK VINA RESULT:     -10.7      1.377      5.322
REMARK  Name = 
REMARK  10 active torsions:
REMARK  status: ('A' for Active; 'I' for Inactive)
REMARK    1  A    between atoms: N_2  and  C_3
REMARK    2  A    between atoms: N_2  and  C_29
REMARK    3  A    between atoms: C_3  and  C_4
REMARK    4  A    between atoms: C_6  and  C_7
REMARK    5  A    between atoms: C_7  and  C_8
REMARK    6  A    between atoms: C_10  and  N_11
REMARK    7  A    between atoms: N_11  and  C_12
REMARK    8  A    between atoms: N_11  and  C_18
REMARK    9  A    between atoms: C_12  and  C_13
REMARK   10  A    between atoms: C_18  and  C_19
REMARK                            x       y       z     vdW  Elec       q    Type
REMARK                         _______ _______ _______ _____ _____    ______ ____
ROOT
ATOM      8  C   UNL     1      -1.094   1.421  24.835  0.00  0.00    +0.009 C 
ATOM      9  C   UNL     1      -1.493   1.813  25.441  0.00  0.00    +0.016 C 
ATOM     10  C   UNL     1      -1.716   2.405  24.912  0.00  0.00    +0.058 C 
ATOM     24  C   UNL     1      -1.317   2.013  24.305  0.00  0.00    +0.014 C 
ATOM     25  C   UNL     1      -1.440   2.497  23.649  0.00  0.00    +0.001 C 
ATOM     26  C   UNL     1      -0.981   1.769  23.592  0.00  0.00    +0.001 C 
ENDROOT
BRANCH   8   7
ATOM      7  C   UNL     1      -0.655   0.725  24.781  0.00  0.00    +0.049 C 
BRANCH   7   6
ATOM      4  C   UNL     1      -1.581  -1.121  25.322  0.00  0.00    +0.174 A 
ATOM      5  C   UNL     1      -1.446  -0.515  24.779  0.00  0.00    +0.055 A 
ATOM      6  C   UNL     1      -0.936   0.032  25.129  0.00  0.00    +0.100 A 
ATOM     27  N   UNL     1      -0.757  -0.237  25.889  0.00  0.00    -0.082 NA
ATOM     28  O   UNL     1      -1.156  -0.949  26.008  0.00  0.00    -0.356 OA
BRANCH   4   3
ATOM      3  C   UNL     1      -2.059  -1.783  25.201  0.00  0.00    +0.159 C 
BRANCH   3   2
ATOM      1  C   UNL     1      -3.151  -1.421  26.049  0.00  0.00    +0.113 C 
ATOM      2  N   UNL     1      -2.871  -1.737  25.340  0.00  0.00    -0.299 N 
BRANCH   2  29
ATOM     29  C   UNL     1      -3.403  -2.006  24.770  0.00  0.00    +0.048 A 
ATOM     30  C   UNL     1      -3.930  -1.480  24.416  0.00  0.00    +0.015 A 
ATOM     31  C   UNL     1      -4.463  -1.749  23.846  0.00  0.00    +0.001 A 
ATOM     32  C   UNL     1      -4.467  -2.545  23.630  0.00  0.00    +0.000 A 
ATOM     33  C   UNL     1      -3.940  -3.072  23.984  0.00  0.00    +0.001 A 
ATOM     34  C   UNL     1      -3.408  -2.802  24.554  0.00  0.00    +0.015 A 
ENDBRANCH   2  29
ENDBRANCH   3   2
ENDBRANCH   4   3
ENDBRANCH   7   6
ENDBRANCH   8   7
BRANCH  10  11
ATOM     11  N   UNL     1      -2.155   3.101  24.967  0.00  0.00    -0.261 NA
BRANCH  11  12
ATOM     12  C   UNL     1      -2.789   3.229  24.455  0.00  0.00    +0.138 C 
BRANCH  12  13
ATOM     13  C   UNL     1      -3.560   3.079  24.708  0.00  0.00    +0.139 A 
ATOM     14  C   UNL     1      -4.202   2.894  24.223  0.00  0.00    +0.038 A 
ATOM     15  C   UNL     1      -4.863   2.788  24.706  0.00  0.00    +0.043 A 
ATOM     16  C   UNL     1      -4.630   2.907  25.488  0.00  0.00    +0.179 A 
ATOM     17  O   UNL     1      -3.824   3.087  25.489  0.00  0.00    -0.453 OA
ENDBRANCH  12  13
ENDBRANCH  11  12
BRANCH  11  18
ATOM     18  C   UNL     1      -1.960   3.668  25.533  0.00  0.00    +0.138 C 
BRANCH  18  19
ATOM     19  C   UNL     1      -1.604   4.376  25.303  0.00  0.00    +0.139 A 
ATOM     20  C   UNL     1      -1.976   5.108  25.237  0.00  0.00    +0.038 A 
ATOM     21  C   UNL     1      -1.414   5.660  24.992  0.00  0.00    +0.043 A 
ATOM     22  C   UNL     1      -0.694   5.269  24.906  0.00  0.00    +0.179 A 
ATOM     23  O   UNL     1      -0.810   4.475  25.098  0.00  0.00    -0.453 OA
ENDBRANCH  18  19
ENDBRANCH  11  18
ENDBRANCH  10  11
TORSDOF 10
ENDMDL
MODEL 4
REMARK VINA RESULT:     -10.7      1.375      5.720
REMARK  Name = 
REMARK  10 active torsions:
REMARK  status: ('A' for Active; 'I' for Inactive)
REMARK    1  A    between atoms: N_2  and  C_3
REMARK    2  A    between atoms: N_2  and  C_29
REMARK    3  A    between atoms: C_3  and  C_4
REMARK    4  A    between atoms: C_6  and  C_7
REMARK    5  A    between atoms: C_7  and  C_8
REMARK    6  A    between atoms: C_10  and  N_11
REMARK    7  A    between atoms: N_11  and  C_12
REMARK    8  A    between atoms: N_11  and  C_18
REMARK    9  A    between atoms: C_12  and  C_13
REMARK   10  A    between atoms: C_18  and  C_19
REMARK                            x       y       z     vdW  Elec       q    Type
REMARK                         _______ _______ _______ _____ _____    ______ ____
ROOT
ATOM      8  C   UNL     1      -1.111   1.423  24.828  0.00  0.00    +0.009 C 
ATOM      9  C   UNL     1      -1.508   1.813  25.436  0.00  0.00    +0.016 C 
ATOM     10  C   UNL     1      -1.729   2.409  24.910  0.00  0.00    +0.058 C 
ATOM     24  C   UNL     1      -1.331   2.018  24.301  0.00  0.00    +0.014 C 
ATOM     25  C   UNL     1      -1.453   2.506  23.647  0.00  0.00    +0.001 C 
ATOM     26  C   UNL     1      -0.996   1.778  23.587  0.00  0.00    +0.001 C 
ENDROOT
BRANCH   8   7
ATOM      7  C   UNL     1      -0.673   0.725  24.770  0.00  0.00    +0.049 C 
BRANCH   7   6
ATOM      4  C   UNL     1      -1.597  -1.119  25.319  0.00  0.00    +0.174 A 
ATOM      5  C   UNL     1      -1.463  -0.515  24.774  0.00  0.00    +0.055 A 
ATOM      6  C   UNL     1      -0.953   0.033  25.121  0.00  0.00    +0.100 A 
ATOM     27  N   UNL     1      -0.772  -0.233  25.881  0.00  0.00    -0.082 NA
ATOM     28  O   UNL     1      -1.170  -0.945  26.004  0.00  0.00    -0.356 OA
BRANCH   4   3
ATOM      3  C   UNL     1      -2.075  -1.782  25.202  0.00  0.00    +0.159 C 
BRANCH   3   2
ATOM      1  C   UNL     1      -3.171  -1.412  26.039  0.00  0.00    +0.113 C 
ATOM      2  N   UNL     1      -2.887  -1.734  25.335  0.00  0.00    -0.299 N 
BRANCH   2  29
ATOM     29  C   UNL     1      -3.416  -2.008  24.764  0.00  0.00    +0.048 A 
ATOM     30  C   UNL     1      -3.416  -2.805  24.551  0.00  0.00    +0.015 A 
ATOM     31  C   UNL     1      -3.946  -3.079  23.981  0.00  0.00    +0.001 A 
ATOM     32  C   UNL     1      -4.474  -2.556  23.623  0.00  0.00    +0.000 A 
ATOM     33  C   UNL     1      -4.474  -1.759  23.837  0.00  0.00    +0.001 A 
ATOM     34  C   UNL     1      -3.944  -1.485  24.407  0.00  0.00    +0.015 A 
ENDBRANCH   2  29
ENDBRANCH   3   2
ENDBRANCH   4   3
ENDBRANCH   7   6
ENDBRANCH   8   7
BRANCH  10  11
ATOM     11  N   UNL     1      -2.167   3.106  24.968  0.00  0.00    -0.261 NA
BRANCH  11  12
ATOM     12  C   UNL     1      -1.965   3.672  25.533  0.00  0.00    +0.138 C 
BRANCH  12  13
ATOM     13  C   UNL     1      -1.611   4.380  25.299  0.00  0.00    +0.139 A 
ATOM     14  C   UNL     1      -1.988   5.111  25.230  0.00  0.00    +0.038 A 
ATOM     15  C   UNL     1      -1.428   5.664  24.982  0.00  0.00    +0.043 A 
ATOM     16  C   UNL     1      -0.706   5.275  24.897  0.00  0.00    +0.179 A 
ATOM     17  O   UNL     1      -0.819   4.481  25.094  0.00  0.00    -0.453 OA
ENDBRANCH  12  13
ENDBRANCH  11  12
BRANCH  11  18
ATOM     18  C   UNL     1      -2.804   3.236  24.462  0.00  0.00    +0.138 C 
BRANCH  18  19
ATOM     19  C   UNL     1      -3.574   3.095  24.722  0.00  0.00    +0.139 A 
ATOM     20  C   UNL     1      -4.209   2.858  24.253  0.00  0.00    +0.038 A 
ATOM     21  C   UNL     1      -4.871   2.783  24.739  0.00  0.00    +0.043 A 
ATOM     22  C   UNL     1      -4.646   2.974  25.508  0.00  0.00    +0.179 A 
ATOM     23  O   UNL     1      -3.844   3.167  25.499  0.00  0.00    -0.453 OA
ENDBRANCH  18  19
ENDBRANCH  11  18
ENDBRANCH  10  11
TORSDOF 10
ENDMDL
MODEL 5
REMARK VINA RESULT:     -10.6      1.352      3.400
REMARK  Name = 
REMARK  10 active torsions:
REMARK  status: ('A' for Active; 'I' for Inactive)
REMARK    1  A    between atoms: N_2  and  C_3
REMARK    2  A    between atoms: N_2  and  C_29
REMARK    3  A    between atoms: C_3  and  C_4
REMARK    4  A    between atoms: C_6  and  C_7
REMARK    5  A    between atoms: C_7  and  C_8
REMARK    6  A    between atoms: C_10  and  N_11
REMARK    7  A    between atoms: N_11  and  C_12
REMARK    8  A    between atoms: N_11  and  C_18
REMARK    9  A    between atoms: C_12  and  C_13
REMARK   10  A    between atoms: C_18  and  C_19
REMARK                            x       y       z     vdW  Elec       q    Type
REMARK                         _______ _______ _______ _____ _____    ______ ____
ROOT
ATOM      8  C   UNL     1      -1.425  -0.127  25.040  0.00  0.00    +0.009 C 
ATOM      9  C   UNL     1      -1.942  -0.036  24.404  0.00  0.00    +0.016 C 
ATOM     10  C   UNL     1      -2.544  -0.391  24.843  0.00  0.00    +0.058 C 
ATOM     24  C   UNL     1      -2.026  -0.482  25.480  0.00  0.00    +0.014 C 
ATOM     25  C   UNL     1      -2.490  -0.848  26.054  0.00  0.00    +0.001 C 
ATOM     26  C   UNL     1      -1.663  -0.653  26.200  0.00  0.00    +0.001 C 
ENDROOT
BRANCH   8   7
ATOM      7  C   UNL     1      -0.633   0.060  25.179  0.00  0.00    +0.049 C 
BRANCH   7   6
ATOM      4  C   UNL     1      -0.084   2.076  24.739  0.00  0.00    +0.174 A 
ATOM      5  C   UNL     1      -0.526   1.527  25.168  0.00  0.00    +0.055 A 
ATOM      6  C   UNL     1      -0.323   0.773  24.901  0.00  0.00    +0.100 A 
ATOM     27  N   UNL     1       0.243   0.857  24.307  0.00  0.00    -0.082 NA
ATOM     28  O   UNL     1       0.391   1.662  24.207  0.00  0.00    -0.356 OA
BRANCH   4   3
ATOM      3  C   UNL     1      -0.113   2.896  24.827  0.00  0.00    +0.159 C 
BRANCH   3   2
ATOM      1  C   UNL     1      -0.780   3.129  23.585  0.00  0.00    +0.113 C 
ATOM      2  N   UNL     1      -0.633   3.342  24.368  0.00  0.00    -0.299 N 
BRANCH   2  29
ATOM     29  C   UNL     1      -1.008   4.001  24.693  0.00  0.00    +0.048 A 
ATOM     30  C   UNL     1      -1.767   3.931  25.007  0.00  0.00    +0.015 A 
ATOM     31  C   UNL     1      -2.142   4.591  25.332  0.00  0.00    +0.001 A 
ATOM     32  C   UNL     1      -1.757   5.320  25.343  0.00  0.00    +0.000 A 
ATOM     33  C   UNL     1      -0.997   5.391  25.028  0.00  0.00    +0.001 A 
ATOM     34  C   UNL     1      -0.623   4.731  24.703  0.00  0.00    +0.015 A 
ENDBRANCH   2  29
ENDBRANCH   3   2
ENDBRANCH   4   3
ENDBRANCH   7   6
ENDBRANCH   8   7
BRANCH  10  11
ATOM     11  N   UNL     1      -3.335  -0.578  24.703  0.00  0.00    -0.261 NA
BRANCH  11  12
ATOM     12  C   UNL     1      -3.809  -0.065  24.265  0.00  0.00    +0.138 C 
BRANCH  12  13
ATOM     13  C   UNL     1      -4.264   0.506  24.649  0.00  0.00    +0.139 A 
ATOM     14  C   UNL     1      -4.276   1.314  24.477  0.00  0.00    +0.038 A 
ATOM     15  C   UNL     1      -4.806   1.677  24.995  0.00  0.00    +0.043 A 
ATOM     16  C   UNL     1      -5.120   1.095  25.488  0.00  0.00    +0.179 A 
ATOM     17  O   UNL     1      -4.785   0.371  25.274  0.00  0.00    -0.453 OA
ENDBRANCH  12  13
ENDBRANCH  11  12
BRANCH  11  18
ATOM     18  C   UNL     1      -3.652  -1.278  25.002  0.00  0.00    +0.138 C 
BRANCH  18  19
ATOM     19  C   UNL     1      -3.847  -1.896  24.491  0.00  0.00    +0.139 A 
ATOM     20  C   UNL     1      -3.695  -2.696  24.616  0.00  0.00    +0.038 A 
ATOM     21  C   UNL     1      -3.982  -3.115  23.966  0.00  0.00    +0.043 A 
ATOM     22  C   UNL     1      -4.311  -2.574  23.439  0.00  0.00    +0.179 A 
ATOM     23  O   UNL     1      -4.228  -1.819  23.762  0.00  0.00    -0.453 OA
ENDBRANCH  18  19
ENDBRANCH  11  18
ENDBRANCH  10  11
TORSDOF 10
ENDMDL
MODEL 6
REMARK VINA RESULT:     -10.5      1.355      3.077
REMARK  Name = 
REMARK  10 active torsions:
REMARK  status: ('A' for Active; 'I' for Inactive)
REMARK    1  A    between atoms: N_2  and  C_3
REMARK    2  A    between atoms: N_2  and  C_29
REMARK    3  A    between atoms: C_3  and  C_4
REMARK    4  A    between atoms: C_6  and  C_7
REMARK    5  A    between atoms: C_7  and  C_8
REMARK    6  A    between atoms: C_10  and  N_11
REMARK    7  A    between atoms: N_11  and  C_12
REMARK    8  A    between atoms: N_11  and  C_18
REMARK    9  A    between atoms: C_12  and  C_13
REMARK   10  A    between atoms: C_18  and  C_19
REMARK                            x       y       z     vdW  Elec       q    Type
REMARK                         _______ _______ _______ _____ _____    ______ ____
ROOT
ATOM      8  C   UNL     1      -1.453  -0.128  25.050  0.00  0.00    +0.009 C 
ATOM      9  C   UNL     1      -1.966  -0.044  24.410  0.00  0.00    +0.016 C 
ATOM     10  C   UNL     1      -2.570  -0.397  24.847  0.00  0.00    +0.058 C 
ATOM     24  C   UNL     1      -2.056  -0.481  25.488  0.00  0.00    +0.014 C 
ATOM     25  C   UNL     1      -2.523  -0.844  26.063  0.00  0.00    +0.001 C 
ATOM     26  C   UNL     1      -1.698  -0.646  26.212  0.00  0.00    +0.001 C 
ENDROOT
BRANCH   8   7
ATOM      7  C   UNL     1      -0.663   0.062  25.193  0.00  0.00    +0.049 C 
BRANCH   7   6
ATOM      4  C   UNL     1      -0.106   2.075  24.754  0.00  0.00    +0.174 A 
ATOM      5  C   UNL     1      -0.543   1.527  25.189  0.00  0.00    +0.055 A 
ATOM      6  C   UNL     1      -0.353   0.773  24.912  0.00  0.00    +0.100 A 
ATOM     27  N   UNL     1       0.201   0.856  24.307  0.00  0.00    -0.082 NA
ATOM     28  O   UNL     1       0.354   1.661  24.209  0.00  0.00    -0.356 OA
BRANCH   4   3
ATOM      3  C   UNL     1      -0.126   2.895  24.848  0.00  0.00    +0.159 C 
BRANCH   3   2
ATOM      1  C   UNL     1      -0.763   3.144  23.594  0.00  0.00    +0.113 C 
ATOM      2  N   UNL     1      -0.629   3.352  24.381  0.00  0.00    -0.299 N 
BRANCH   2  29
ATOM     29  C   UNL     1      -0.999   4.017  24.700  0.00  0.00    +0.048 A 
ATOM     30  C   UNL     1      -0.618   4.748  24.685  0.00  0.00    +0.015 A 
ATOM     31  C   UNL     1      -0.988   5.413  25.005  0.00  0.00    +0.001 A 
ATOM     32  C   UNL     1      -1.739   5.345  25.339  0.00  0.00    +0.000 A 
ATOM     33  C   UNL     1      -2.120   4.613  25.355  0.00  0.00    +0.001 A 
ATOM     34  C   UNL     1      -1.750   3.949  25.035  0.00  0.00    +0.015 A 
ENDBRANCH   2  29
ENDBRANCH   3   2
ENDBRANCH   4   3
ENDBRANCH   7   6
ENDBRANCH   8   7
BRANCH  10  11
ATOM     11  N   UNL     1      -3.360  -0.587  24.704  0.00  0.00    -0.261 NA
BRANCH  11  12
ATOM     12  C   UNL     1      -3.676  -1.288  25.003  0.00  0.00    +0.138 C 
BRANCH  12  13
ATOM     13  C   UNL     1      -3.862  -1.908  24.491  0.00  0.00    +0.139 A 
ATOM     14  C   UNL     1      -3.706  -2.708  24.622  0.00  0.00    +0.038 A 
ATOM     15  C   UNL     1      -3.983  -3.131  23.970  0.00  0.00    +0.043 A 
ATOM     16  C   UNL     1      -4.310  -2.593  23.437  0.00  0.00    +0.179 A 
ATOM     17  O   UNL     1      -4.235  -1.837  23.759  0.00  0.00    -0.453 OA
ENDBRANCH  12  13
ENDBRANCH  11  12
BRANCH  11  18
ATOM     18  C   UNL     1      -3.833  -0.076  24.263  0.00  0.00    +0.138 C 
BRANCH  18  19
ATOM     19  C   UNL     1      -4.290   0.497  24.643  0.00  0.00    +0.139 A 
ATOM     20  C   UNL     1      -4.304   1.302  24.468  0.00  0.00    +0.038 A 
ATOM     21  C   UNL     1      -4.836   1.666  24.982  0.00  0.00    +0.043 A 
ATOM     22  C   UNL     1      -5.152   1.086  25.475  0.00  0.00    +0.179 A 
ATOM     23  O   UNL     1      -4.815   0.362  25.266  0.00  0.00    -0.453 OA
ENDBRANCH  18  19
ENDBRANCH  11  18
ENDBRANCH  10  11
TORSDOF 10
ENDMDL
MODEL 7
REMARK VINA RESULT:     -10.3      1.540      4.849
REMARK  Name = 
REMARK  10 active torsions:
REMARK  status: ('A' for Active; 'I' for Inactive)
REMARK    1  A    between atoms: N_2  and  C_3
REMARK    2  A    between atoms: N_2  and  C_29
REMARK    3  A    between atoms: C_3  and  C_4
REMARK    4  A    between atoms: C_6  and  C_7
REMARK    5  A    between atoms: C_7  and  C_8
REMARK    6  A    between atoms: C_10  and  N_11
REMARK    7  A    between atoms: N_11  and  C_12
REMARK    8  A    between atoms: N_11  and  C_18
REMARK    9  A    between atoms: C_12  and  C_13
REMARK   10  A    between atoms: C_18  and  C_19
REMARK                            x       y       z     vdW  Elec       q    Type
REMARK                         _______ _______ _______ _____ _____    ______ ____
ROOT
ATOM      8  C   UNL     1      -3.499   2.200  24.418  0.00  0.00    +0.009 C 
ATOM      9  C   UNL     1      -2.944   2.218  25.028  0.00  0.00    +0.016 C 
ATOM     10  C   UNL     1      -2.444   2.678  24.561  0.00  0.00    +0.058 C 
ATOM     24  C   UNL     1      -2.999   2.660  23.950  0.00  0.00    +0.014 C 
ATOM     25  C   UNL     1      -2.643   3.104  23.353  0.00  0.00    +0.001 C 
ATOM     26  C   UNL     1      -3.422   2.751  23.248  0.00  0.00    +0.001 C 
ENDROOT
BRANCH   8   7
ATOM      7  C   UNL     1      -4.244   1.862  24.317  0.00  0.00    +0.049 C 
BRANCH   7   6
ATOM      4  C   UNL     1      -4.424  -0.190  24.876  0.00  0.00    +0.174 A 
ATOM      5  C   UNL     1      -4.117   0.399  24.387  0.00  0.00    +0.055 A 
ATOM      6  C   UNL     1      -4.411   1.125  24.648  0.00  0.00    +0.100 A 
ATOM     27  N   UNL     1      -4.900   0.983  25.298  0.00  0.00    -0.082 NA
ATOM     28  O   UNL     1      -4.908   0.170  25.438  0.00  0.00    -0.356 OA
BRANCH   4   3
ATOM      3  C   UNL     1      -4.274  -1.000  24.812  0.00  0.00    +0.159 C 
BRANCH   3   2
ATOM      1  C   UNL     1      -3.585  -1.140  26.056  0.00  0.00    +0.113 C 
ATOM      2  N   UNL     1      -3.675  -1.344  25.262  0.00  0.00    -0.299 N 
BRANCH   2  29
ATOM     29  C   UNL     1      -3.165  -1.894  24.917  0.00  0.00    +0.048 A 
ATOM     30  C   UNL     1      -2.353  -1.753  24.907  0.00  0.00    +0.015 A 
ATOM     31  C   UNL     1      -1.843  -2.303  24.562  0.00  0.00    +0.001 A 
ATOM     32  C   UNL     1      -2.146  -2.994  24.229  0.00  0.00    +0.000 A 
ATOM     33  C   UNL     1      -2.959  -3.135  24.239  0.00  0.00    +0.001 A 
ATOM     34  C   UNL     1      -3.468  -2.585  24.584  0.00  0.00    +0.015 A 
ENDBRANCH   2  29
ENDBRANCH   3   2
ENDBRANCH   4   3
ENDBRANCH   7   6
ENDBRANCH   8   7
BRANCH  10  11
ATOM     11  N   UNL     1      -1.698   3.016  24.661  0.00  0.00    -0.261 NA
BRANCH  11  12
ATOM     12  C   UNL     1      -1.091   2.841  24.130  0.00  0.00    +0.138 C 
BRANCH  12  13
ATOM     13  C   UNL     1      -0.528   2.269  24.321  0.00  0.00    +0.139 A 
ATOM     14  C   UNL     1       0.017   1.932  23.801  0.00  0.00    +0.038 A 
ATOM     15  C   UNL     1       0.471   1.388  24.224  0.00  0.00    +0.043 A 
ATOM     16  C   UNL     1       0.206   1.389  25.005  0.00  0.00    +0.179 A 
ATOM     17  O   UNL     1      -0.411   1.933  25.065  0.00  0.00    -0.453 OA
ENDBRANCH  12  13
ENDBRANCH  11  12
BRANCH  11  18
ATOM     18  C   UNL     1      -1.559   3.528  25.293  0.00  0.00    +0.138 C 
BRANCH  18  19
ATOM     19  C   UNL     1      -1.418   4.328  25.152  0.00  0.00    +0.139 A 
ATOM     20  C   UNL     1      -1.893   4.955  25.399  0.00  0.00    +0.038 A 
ATOM     21  C   UNL     1      -1.545   5.657  25.139  0.00  0.00    +0.043 A 
ATOM     22  C   UNL     1      -0.855   5.463  24.732  0.00  0.00    +0.179 A 
ATOM     23  O   UNL     1      -0.776   4.642  24.740  0.00  0.00    -0.453 OA
ENDBRANCH  18  19
ENDBRANCH  11  18
ENDBRANCH  10  11
TORSDOF 10
ENDMDL
MODEL 8
REMARK VINA RESULT:     -10.3      1.534      5.036
REMARK  Name = 
REMARK  10 active torsions:
REMARK  status: ('A' for Active; 'I' for Inactive)
REMARK    1  A    between atoms: N_2  and  C_3
REMARK    2  A    between atoms: N_2  and  C_29
REMARK    3  A    between atoms: C_3  and  C_4
REMARK    4  A    between atoms: C_6  and  C_7
REMARK    5  A    between atoms: C_7  and  C_8
REMARK    6  A    between atoms: C_10  and  N_11
REMARK    7  A    between atoms: N_11  and  C_12
REMARK    8  A    between atoms: N_11  and  C_18
REMARK    9  A    between atoms: C_12  and  C_13
REMARK   10  A    between atoms: C_18  and  C_19
REMARK                            x       y       z     vdW  Elec       q    Type
REMARK                         _______ _______ _______ _____ _____    ______ ____
ROOT
ATOM      8  C   UNL     1      -3.510   2.211  24.459  0.00  0.00    +0.009 C 
ATOM      9  C   UNL     1      -2.943   2.222  25.058  0.00  0.00    +0.016 C 
ATOM     10  C   UNL     1      -2.451   2.684  24.584  0.00  0.00    +0.058 C 
ATOM     24  C   UNL     1      -3.019   2.673  23.984  0.00  0.00    +0.014 C 
ATOM     25  C   UNL     1      -2.673   3.119  23.384  0.00  0.00    +0.001 C 
ATOM     26  C   UNL     1      -3.455   2.770  23.292  0.00  0.00    +0.001 C 
ENDROOT
BRANCH   8   7
ATOM      7  C   UNL     1      -4.259   1.876  24.371  0.00  0.00    +0.049 C 
BRANCH   7   6
ATOM      4  C   UNL     1      -4.418  -0.187  24.895  0.00  0.00    +0.174 A 
ATOM      5  C   UNL     1      -4.117   0.413  24.416  0.00  0.00    +0.055 A 
ATOM      6  C   UNL     1      -4.418   1.132  24.690  0.00  0.00    +0.100 A 
ATOM     27  N   UNL     1      -4.905   0.973  25.337  0.00  0.00    -0.082 NA
ATOM     28  O   UNL     1      -4.905   0.158  25.463  0.00  0.00    -0.356 OA
BRANCH   4   3
ATOM      3  C   UNL     1      -4.260  -0.994  24.818  0.00  0.00    +0.159 C 
BRANCH   3   2
ATOM      1  C   UNL     1      -3.564  -1.138  26.057  0.00  0.00    +0.113 C 
ATOM      2  N   UNL     1      -3.659  -1.340  25.263  0.00  0.00    -0.299 N 
BRANCH   2  29
ATOM     29  C   UNL     1      -3.152  -1.891  24.915  0.00  0.00    +0.048 A 
ATOM     30  C   UNL     1      -3.459  -2.572  24.566  0.00  0.00    +0.015 A 
ATOM     31  C   UNL     1      -2.952  -3.122  24.218  0.00  0.00    +0.001 A 
ATOM     32  C   UNL     1      -2.138  -2.990  24.219  0.00  0.00    +0.000 A 
ATOM     33  C   UNL     1      -1.830  -2.309  24.568  0.00  0.00    +0.001 A 
ATOM     34  C   UNL     1      -2.338  -1.759  24.916  0.00  0.00    +0.015 A 
ENDBRANCH   2  29
ENDBRANCH   3   2
ENDBRANCH   4   3
ENDBRANCH   7   6
ENDBRANCH   8   7
BRANCH  10  11
ATOM     11  N   UNL     1      -1.702   3.018  24.672  0.00  0.00    -0.261 NA
BRANCH  11  12
ATOM     12  C   UNL     1      -1.551   3.530  25.302  0.00  0.00    +0.138 C 
BRANCH  12  13
ATOM     13  C   UNL     1      -1.413   4.331  25.158  0.00  0.00    +0.139 A 
ATOM     14  C   UNL     1      -1.895   4.956  25.400  0.00  0.00    +0.038 A 
ATOM     15  C   UNL     1      -1.550   5.659  25.139  0.00  0.00    +0.043 A 
ATOM     16  C   UNL     1      -0.856   5.468  24.735  0.00  0.00    +0.179 A 
ATOM     17  O   UNL     1      -0.772   4.647  24.747  0.00  0.00    -0.453 OA
ENDBRANCH  12  13
ENDBRANCH  11  12
BRANCH  11  18
ATOM     18  C   UNL     1      -1.105   2.841  24.131  0.00  0.00    +0.138 C 
BRANCH  18  19
ATOM     19  C   UNL     1      -0.545   2.262  24.309  0.00  0.00    +0.139 A 
ATOM     20  C   UNL     1      -0.091   1.843  23.763  0.00  0.00    +0.038 A 
ATOM     21  C   UNL     1       0.394   1.322  24.181  0.00  0.00    +0.043 A 
ATOM     22  C   UNL     1       0.239   1.419  24.985  0.00  0.00    +0.179 A 
ATOM     23  O   UNL     1      -0.342   2.000  25.065  0.00  0.00    -0.453 OA
ENDBRANCH  18  19
ENDBRANCH  11  18
ENDBRANCH  10  11
TORSDOF 10
ENDMDL
MODEL 9
REMARK VINA RESULT:      -9.9      1.509      3.782
REMARK  Name = 
REMARK  10 active torsions:
REMARK  status: ('A' for Active; 'I' for Inactive)
REMARK    1  A    between atoms: N_2  and  C_3
REMARK    2  A    between atoms: N_2  and  C_29
REMARK    3  A    between atoms: C_3  and  C_4
REMARK    4  A    between atoms: C_6  and  C_7
REMARK    5  A    between atoms: C_7  and  C_8
REMARK    6  A    between atoms: C_10  and  N_11
REMARK    7  A    between atoms: N_11  and  C_12
REMARK    8  A    between atoms: N_11  and  C_18
REMARK    9  A    between atoms: C_12  and  C_13
REMARK   10  A    between atoms: C_18  and  C_19
REMARK                            x       y       z     vdW  Elec       q    Type
REMARK                         _______ _______ _______ _____ _____    ______ ____
ROOT
ATOM      8  C   UNL     1      -0.889   2.782  25.202  0.00  0.00    +0.009 C 
ATOM      9  C   UNL     1      -1.209   2.319  24.599  0.00  0.00    +0.016 C 
ATOM     10  C   UNL     1      -0.685   1.709  24.789  0.00  0.00    +0.058 C 
ATOM     24  C   UNL     1      -0.365   2.173  25.393  0.00  0.00    +0.014 C 
ATOM     25  C   UNL     1       0.218   1.690  25.718  0.00  0.00    +0.001 C 
ATOM     26  C   UNL     1       0.067   2.481  26.023  0.00  0.00    +0.001 C 
ENDROOT
BRANCH   8   7
ATOM      7  C   UNL     1      -1.033   3.540  25.494  0.00  0.00    +0.049 C 
BRANCH   7   6
ATOM      4  C   UNL     1      -3.109   4.039  25.503  0.00  0.00    +0.174 A 
ATOM      5  C   UNL     1      -2.493   3.517  25.672  0.00  0.00    +0.055 A 
ATOM      6  C   UNL     1      -1.787   3.870  25.429  0.00  0.00    +0.100 A 
ATOM     27  N   UNL     1      -1.968   4.609  25.111  0.00  0.00    -0.082 NA
ATOM     28  O   UNL     1      -2.785   4.714  25.157  0.00  0.00    -0.356 OA
BRANCH   4   3
ATOM      3  C   UNL     1      -3.910   3.910  25.654  0.00  0.00    +0.159 C 
BRANCH   3   2
ATOM      1  C   UNL     1      -4.381   3.974  24.308  0.00  0.00    +0.113 C 
ATOM      2  N   UNL     1      -4.402   3.628  25.056  0.00  0.00    -0.299 N 
BRANCH   2  29
ATOM     29  C   UNL     1      -4.916   3.000  25.205  0.00  0.00    +0.048 A 
ATOM     30  C   UNL     1      -5.426   3.030  25.853  0.00  0.00    +0.015 A 
ATOM     31  C   UNL     1      -5.940   2.402  26.002  0.00  0.00    +0.001 A 
ATOM     32  C   UNL     1      -5.944   1.745  25.504  0.00  0.00    +0.000 A 
ATOM     33  C   UNL     1      -5.433   1.715  24.856  0.00  0.00    +0.001 A 
ATOM     34  C   UNL     1      -4.920   2.343  24.707  0.00  0.00    +0.015 A 
ENDBRANCH   2  29
ENDBRANCH   3   2
ENDBRANCH   4   3
ENDBRANCH   7   6
ENDBRANCH   8   7
BRANCH  10  11
ATOM     11  N   UNL     1      -0.541   0.952  24.497  0.00  0.00    -0.261 NA
BRANCH  11  12
ATOM     12  C   UNL     1      -0.391   0.842  23.693  0.00  0.00    +0.138 C 
BRANCH  12  13
ATOM     13  C   UNL     1       0.344   0.560  23.446  0.00  0.00    +0.139 A 
ATOM     14  C   UNL     1       0.489  -0.173  23.093  0.00  0.00    +0.038 A 
ATOM     15  C   UNL     1       1.297  -0.225  22.937  0.00  0.00    +0.043 A 
ATOM     16  C   UNL     1       1.652   0.475  23.193  0.00  0.00    +0.179 A 
ATOM     17  O   UNL     1       1.062   0.959  23.507  0.00  0.00    -0.453 OA
ENDBRANCH  12  13
ENDBRANCH  11  12
BRANCH  11  18
ATOM     18  C   UNL     1      -0.547   0.305  25.008  0.00  0.00    +0.138 C 
BRANCH  18  19
ATOM     19  C   UNL     1      -1.231  -0.150  25.092  0.00  0.00    +0.139 A 
ATOM     20  C   UNL     1      -1.380  -0.696  25.690  0.00  0.00    +0.038 A 
ATOM     21  C   UNL     1      -2.127  -1.021  25.559  0.00  0.00    +0.043 A 
ATOM     22  C   UNL     1      -2.439  -0.675  24.879  0.00  0.00    +0.179 A 
ATOM     23  O   UNL     1      -1.886  -0.136  24.590  0.00  0.00    -0.453 OA
ENDBRANCH  18  19
ENDBRANCH  11  18
ENDBRANCH  10  11
TORSDOF 10
ENDMDL
MODEL 10
REMARK VINA RESULT:      -9.9      1.507      3.404
REMARK  Name = 
REMARK  10 active torsions:
REMARK  status: ('A' for Active; 'I' for Inactive)
REMARK    1  A    between atoms: N_2  and  C_3
REMARK    2  A    between atoms: N_2  and  C_29
REMARK    3  A    between atoms: C_3  and  C_4
REMARK    4  A    between atoms: C_6  and  C_7
REMARK    5  A    between atoms: C_7  and  C_8
REMARK    6  A    between atoms: C_10  and  N_11
REMARK    7  A    between atoms: N_11  and  C_12
REMARK    8  A    between atoms: N_11  and  C_18
REMARK    9  A    between atoms: C_12  and  C_13
REMARK   10  A    between atoms: C_18  and  C_19
REMARK                            x       y       z     vdW  Elec       q    Type
REMARK                         _______ _______ _______ _____ _____    ______ ____
ROOT
ATOM      8  C   UNL     1      -0.876   2.777  25.202  0.00  0.00    +0.009 C 
ATOM      9  C   UNL     1      -1.191   2.317  24.595  0.00  0.00    +0.016 C 
ATOM     10  C   UNL     1      -0.679   1.702  24.794  0.00  0.00    +0.058 C 
ATOM     24  C   UNL     1      -0.363   2.163  25.402  0.00  0.00    +0.014 C 
ATOM     25  C   UNL     1       0.209   1.672  25.738  0.00  0.00    +0.001 C 
ATOM     26  C   UNL     1       0.063   2.467  26.039  0.00  0.00    +0.001 C 
ENDROOT
BRANCH   8   7
ATOM      7  C   UNL     1      -1.015   3.537  25.491  0.00  0.00    +0.049 C 
BRANCH   7   6
ATOM      4  C   UNL     1      -3.089   4.046  25.499  0.00  0.00    +0.174 A 
ATOM      5  C   UNL     1      -2.475   3.520  25.666  0.00  0.00    +0.055 A 
ATOM      6  C   UNL     1      -1.767   3.871  25.426  0.00  0.00    +0.100 A 
ATOM     27  N   UNL     1      -1.944   4.613  25.112  0.00  0.00    -0.082 NA
ATOM     28  O   UNL     1      -2.761   4.721  25.157  0.00  0.00    -0.356 OA
BRANCH   4   3
ATOM      3  C   UNL     1      -3.891   3.919  25.648  0.00  0.00    +0.159 C 
BRANCH   3   2
ATOM      1  C   UNL     1      -4.358   3.976  24.299  0.00  0.00    +0.113 C 
ATOM      2  N   UNL     1      -4.381   3.634  25.049  0.00  0.00    -0.299 N 
BRANCH   2  29
ATOM     29  C   UNL     1      -4.896   3.006  25.201  0.00  0.00    +0.048 A 
ATOM     30  C   UNL     1      -5.418   3.046  25.838  0.00  0.00    +0.015 A 
ATOM     31  C   UNL     1      -5.932   2.418  25.989  0.00  0.00    +0.001 A 
ATOM     32  C   UNL     1      -5.924   1.752  25.503  0.00  0.00    +0.000 A 
ATOM     33  C   UNL     1      -5.401   1.713  24.865  0.00  0.00    +0.001 A 
ATOM     34  C   UNL     1      -4.887   2.340  24.715  0.00  0.00    +0.015 A 
ENDBRANCH   2  29
ENDBRANCH   3   2
ENDBRANCH   4   3
ENDBRANCH   7   6
ENDBRANCH   8   7
BRANCH  10  11
ATOM     11  N   UNL     1      -0.540   0.942  24.505  0.00  0.00    -0.261 NA
BRANCH  11  12
ATOM     12  C   UNL     1      -0.548   0.297  25.021  0.00  0.00    +0.138 C 
BRANCH  12  13
ATOM     13  C   UNL     1      -1.231  -0.158  25.099  0.00  0.00    +0.139 A 
ATOM     14  C   UNL     1      -1.380  -0.711  25.694  0.00  0.00    +0.038 A 
ATOM     15  C   UNL     1      -2.127  -1.036  25.559  0.00  0.00    +0.043 A 
ATOM     16  C   UNL     1      -2.439  -0.684  24.881  0.00  0.00    +0.179 A 
ATOM     17  O   UNL     1      -1.885  -0.142  24.597  0.00  0.00    -0.453 OA
ENDBRANCH  12  13
ENDBRANCH  11  12
BRANCH  11  18
ATOM     18  C   UNL     1      -0.392   0.827  23.702  0.00  0.00    +0.138 C 
BRANCH  18  19
ATOM     19  C   UNL     1       0.346   0.554  23.453  0.00  0.00    +0.139 A 
ATOM     20  C   UNL     1       0.504  -0.183  23.120  0.00  0.00    +0.038 A 
ATOM     21  C   UNL     1       1.311  -0.221  22.954  0.00  0.00    +0.043 A 
ATOM     22  C   UNL     1       1.652   0.493  23.184  0.00  0.00    +0.179 A 
ATOM     23  O   UNL     1       1.056   0.973  23.493  0.00  0.00    -0.453 OA
ENDBRANCH  18  19
ENDBRANCH  11  18
ENDBRANCH  10  11
TORSDOF 10
ENDMDL
