MODEL 1
REMARK VINA RESULT:     -10.7      0.000      0.000
REMARK  Name = 
REMARK  7 active torsions:
REMARK  status: ('A' for Active; 'I' for Inactive)
REMARK    1  A    between atoms: C_4  and  C_8
REMARK    2  A    between atoms: N_13  and  C_14
REMARK    3  A    between atoms: C_18  and  N_22
REMARK    4  A    between atoms: N_22  and  C_23
REMARK    5  A    between atoms: C_23  and  C_24
REMARK    6  A    between atoms: C_24  and  C_25
REMARK    7  A    between atoms: C_25  and  C_26
REMARK                            x       y       z     vdW  Elec       q    Type
REMARK                         _______ _______ _______ _____ _____    ______ ____
ROOT
ATOM     14  C   UNL     1      -1.171   0.569  24.542  0.00  0.00    +0.154 C 
ATOM     15  C   UNL     1      -1.148  -0.255  24.564  0.00  0.00    +0.166 C 
ATOM     16  O   UNL     1      -0.460  -0.500  24.181  0.00  0.00    -0.350 OA
ATOM     17  C   UNL     1      -0.058   0.172  23.923  0.00  0.00    +0.162 C 
ATOM     18  C   UNL     1       0.616   0.437  23.528  0.00  0.00    +0.132 C 
ATOM     19  C   UNL     1       0.593   1.261  23.506  0.00  0.00    +0.162 C 
ATOM     20  O   UNL     1      -0.096   1.506  23.889  0.00  0.00    -0.350 OA
ATOM     21  C   UNL     1      -0.498   0.833  24.147  0.00  0.00    +0.166 C 
ENDROOT
BRANCH  14  13
ATOM      8  C   UNL     1      -3.923   1.329  24.693  0.00  0.00    +0.086 A 
ATOM      9  C   UNL     1      -4.112   0.755  24.131  0.00  0.00    +0.040 A 
ATOM     10  C   UNL     1      -3.519   0.278  23.812  0.00  0.00    +0.103 A 
ATOM     11  N   UNL     1      -2.736   0.375  24.055  0.00  0.00    -0.211 NA
ATOM     12  C   UNL     1      -2.548   0.950  24.618  0.00  0.00    +0.237 A 
ATOM     13  N   UNL     1      -1.765   1.046  24.861  0.00  0.00    -0.200 NA
ATOM     32  N   UNL     1      -3.141   1.426  24.936  0.00  0.00    -0.212 NA
BRANCH   8   4
ATOM      1  F   UNL     1      -4.962   3.925  25.284  0.00  0.00    -0.204 F 
ATOM      2  C   UNL     1      -5.036   3.103  25.306  0.00  0.00    +0.140 A 
ATOM      3  C   UNL     1      -4.443   2.627  24.988  0.00  0.00    +0.031 A 
ATOM      4  C   UNL     1      -4.516   1.805  25.011  0.00  0.00    +0.020 A 
ATOM      5  C   UNL     1      -5.183   1.460  25.351  0.00  0.00    +0.002 A 
ATOM      6  C   UNL     1      -5.777   1.937  25.670  0.00  0.00    +0.002 A 
ATOM      7  C   UNL     1      -5.704   2.758  25.648  0.00  0.00    +0.030 A 
ENDBRANCH   8   4
ENDBRANCH  14  13
BRANCH  18  22
ATOM     22  N   UNL     1       1.209  -0.040  23.209  0.00  0.00    -0.214 NA
BRANCH  22  23
ATOM     23  C   UNL     1       1.901   0.302  22.918  0.00  0.00    +0.089 C 
BRANCH  23  24
ATOM     24  C   UNL     1       2.625  -0.082  23.018  0.00  0.00    +0.023 C 
BRANCH  24  25
ATOM     25  C   UNL     1       3.311   0.240  22.690  0.00  0.00    +0.028 C 
BRANCH  25  26
ATOM     26  C   UNL     1       4.041   0.111  23.052  0.00  0.00    -0.022 A 
ATOM     27  C   UNL     1       4.228  -0.633  23.354  0.00  0.00    -0.004 A 
ATOM     28  C   UNL     1       4.957  -0.761  23.715  0.00  0.00    -0.000 A 
ATOM     29  C   UNL     1       5.502  -0.144  23.776  0.00  0.00    -0.000 A 
ATOM     30  C   UNL     1       5.316   0.602  23.474  0.00  0.00    -0.000 A 
ATOM     31  C   UNL     1       4.585   0.729  23.112  0.00  0.00    -0.004 A 
ENDBRANCH  25  26
ENDBRANCH  24  25
ENDBRANCH  23  24
ENDBRANCH  22  23
ENDBRANCH  18  22
TORSDOF 7
ENDMDL
MODEL 2
REMARK VINA RESULT:      -9.4      2.219      7.550
REMARK  Name = 
REMARK  7 active torsions:
REMARK  status: ('A' for Active; 'I' for Inactive)
REMARK    1  A    between atoms: C_4  and  C_8
REMARK    2  A    between atoms: N_13  and  C_14
REMARK    3  A    between atoms: C_18  and  N_22
REMARK    4  A    between atoms: N_22  and  C_23
REMARK    5  A    between atoms: C_23  and  C_24
REMARK    6  A    between atoms: C_24  and  C_25
REMARK    7  A    between atoms: C_25  and  C_26
REMARK                            x       y       z     vdW  Elec       q    Type
REMARK                         _______ _______ _______ _____ _____    ______ ____
ROOT
ATOM     14  C   UNL     1       0.100   0.884  23.853  0.00  0.00    +0.154 C 
ATOM     15  C   UNL     1      -0.348   0.201  23.739  0.00  0.00    +0.166 C 
ATOM     16  O   UNL     1      -1.139   0.424  23.667  0.00  0.00    -0.350 OA
ATOM     17  C   UNL     1      -1.180   1.244  23.737  0.00  0.00    +0.162 C 
ATOM     18  C   UNL     1      -1.693   1.890  23.736  0.00  0.00    +0.132 C 
ATOM     19  C   UNL     1      -1.246   2.573  23.850  0.00  0.00    +0.162 C 
ATOM     20  O   UNL     1      -0.455   2.350  23.921  0.00  0.00    -0.350 OA
ATOM     21  C   UNL     1      -0.414   1.529  23.852  0.00  0.00    +0.166 C 
ENDROOT
BRANCH  14  13
ATOM      8  C   UNL     1       2.730   0.232  22.942  0.00  0.00    +0.086 A 
ATOM      9  C   UNL     1       2.407  -0.158  22.290  0.00  0.00    +0.040 A 
ATOM     10  C   UNL     1       1.588  -0.191  22.193  0.00  0.00    +0.103 A 
ATOM     11  N   UNL     1       1.092   0.167  22.746  0.00  0.00    -0.211 NA
ATOM     12  C   UNL     1       1.415   0.558  23.397  0.00  0.00    +0.237 A 
ATOM     13  N   UNL     1       0.919   0.917  23.950  0.00  0.00    -0.200 NA
ATOM     32  N   UNL     1       2.233   0.590  23.495  0.00  0.00    -0.212 NA
BRANCH   8   4
ATOM      1  F   UNL     1       5.159  -0.946  23.878  0.00  0.00    -0.204 F 
ATOM      2  C   UNL     1       4.762  -0.325  23.507  0.00  0.00    +0.140 A 
ATOM      3  C   UNL     1       3.944  -0.357  23.410  0.00  0.00    +0.031 A 
ATOM      4  C   UNL     1       3.548   0.264  23.039  0.00  0.00    +0.020 A 
ATOM      5  C   UNL     1       3.970   0.918  22.766  0.00  0.00    +0.002 A 
ATOM      6  C   UNL     1       4.789   0.951  22.863  0.00  0.00    +0.002 A 
ATOM      7  C   UNL     1       5.185   0.329  23.234  0.00  0.00    +0.030 A 
ENDBRANCH   8   4
ENDBRANCH  14  13
BRANCH  18  22
ATOM     22  N   UNL     1      -2.512   1.858  23.638  0.00  0.00    -0.214 NA
BRANCH  22  23
ATOM     23  C   UNL     1      -2.993   2.425  23.996  0.00  0.00    +0.089 C 
BRANCH  23  24
ATOM     24  C   UNL     1      -3.788   2.259  24.142  0.00  0.00    +0.023 C 
BRANCH  24  25
ATOM     25  C   UNL     1      -4.278   2.838  24.467  0.00  0.00    +0.028 C 
BRANCH  25  26
ATOM     26  C   UNL     1      -4.927   2.620  24.927  0.00  0.00    -0.022 A 
ATOM     27  C   UNL     1      -5.424   2.012  24.679  0.00  0.00    -0.004 A 
ATOM     28  C   UNL     1      -6.073   1.794  25.139  0.00  0.00    -0.000 A 
ATOM     29  C   UNL     1      -6.224   2.186  25.849  0.00  0.00    -0.000 A 
ATOM     30  C   UNL     1      -5.727   2.795  26.099  0.00  0.00    -0.000 A 
ATOM     31  C   UNL     1      -5.078   3.013  25.638  0.00  0.00    -0.004 A 
ENDBRANCH  25  26
ENDBRANCH  24  25
ENDBRANCH  23  24
ENDBRANCH  22  23
ENDBRANCH  18  22
TORSDOF 7
ENDMDL
MODEL 3
REMARK VINA RESULT:      -9.2      2.485      7.035
REMARK  Name = 
REMARK  7 active torsions:
REMARK  status: ('A' for Active; 'I' for Inactive)
REMARK    1  A    between atoms: C_4  and  C_8
REMARK    2  A    between atoms: N_13  and  C_14
REMARK    3  A    between atoms: C_18  and  N_22
REMARK    4  A    between atoms: N_22  and  C_23
REMARK    5  A    between atoms: C_23  and  C_24
REMARK    6  A    between atoms: C_24  and  C_25
REMARK    7  A    between atoms: C_25  and  C_26
REMARK                            x       y       z     vdW  Elec       q    Type
REMARK                         _______ _______ _______ _____ _____    ______ ____
ROOT
ATOM     14  C   UNL     1       0.106   1.270  23.910  0.00  0.00    +0.154 C 
ATOM     15  C   UNL     1      -0.349   1.348  23.226  0.00  0.00    +0.166 C 
ATOM     16  O   UNL     1      -1.143   1.297  23.442  0.00  0.00    -0.350 OA
ATOM     17  C   UNL     1      -1.180   1.187  24.258  0.00  0.00    +0.162 C 
ATOM     18  C   UNL     1      -1.693   1.087  24.896  0.00  0.00    +0.132 C 
ATOM     19  C   UNL     1      -1.238   1.009  25.580  0.00  0.00    +0.162 C 
ATOM     20  O   UNL     1      -0.444   1.061  25.365  0.00  0.00    -0.350 OA
ATOM     21  C   UNL     1      -0.408   1.171  24.547  0.00  0.00    +0.166 C 
ENDROOT
BRANCH  14  13
ATOM      8  C   UNL     1       2.649   0.332  23.004  0.00  0.00    +0.086 A 
ATOM      9  C   UNL     1       2.273  -0.174  22.472  0.00  0.00    +0.040 A 
ATOM     10  C   UNL     1       1.449  -0.193  22.433  0.00  0.00    +0.103 A 
ATOM     11  N   UNL     1       1.001   0.295  22.925  0.00  0.00    -0.211 NA
ATOM     12  C   UNL     1       1.378   0.801  23.457  0.00  0.00    +0.237 A 
ATOM     13  N   UNL     1       0.930   1.289  23.949  0.00  0.00    -0.200 NA
ATOM     32  N   UNL     1       2.201   0.820  23.496  0.00  0.00    -0.212 NA
BRANCH   8   4
ATOM      1  F   UNL     1       5.113  -0.838  23.856  0.00  0.00    -0.204 F 
ATOM      2  C   UNL     1       4.705  -0.235  23.469  0.00  0.00    +0.140 A 
ATOM      3  C   UNL     1       3.881  -0.253  23.430  0.00  0.00    +0.031 A 
ATOM      4  C   UNL     1       3.472   0.350  23.043  0.00  0.00    +0.020 A 
ATOM      5  C   UNL     1       3.888   0.972  22.694  0.00  0.00    +0.002 A 
ATOM      6  C   UNL     1       4.712   0.991  22.733  0.00  0.00    +0.002 A 
ATOM      7  C   UNL     1       5.121   0.387  23.120  0.00  0.00    +0.030 A 
ENDBRANCH   8   4
ENDBRANCH  14  13
BRANCH  18  22
ATOM     22  N   UNL     1      -2.517   1.069  24.857  0.00  0.00    -0.214 NA
BRANCH  22  23
ATOM     23  C   UNL     1      -2.935   0.475  25.249  0.00  0.00    +0.089 C 
BRANCH  23  24
ATOM     24  C   UNL     1      -3.495   0.027  24.841  0.00  0.00    +0.023 C 
BRANCH  24  25
ATOM     25  C   UNL     1      -3.855  -0.618  25.209  0.00  0.00    +0.028 C 
BRANCH  25  26
ATOM     26  C   UNL     1      -3.887  -1.348  24.826  0.00  0.00    -0.022 A 
ATOM     27  C   UNL     1      -3.507  -2.003  25.152  0.00  0.00    -0.004 A 
ATOM     28  C   UNL     1      -3.539  -2.732  24.769  0.00  0.00    -0.000 A 
ATOM     29  C   UNL     1      -3.953  -2.807  24.059  0.00  0.00    -0.000 A 
ATOM     30  C   UNL     1      -4.335  -2.152  23.732  0.00  0.00    -0.000 A 
ATOM     31  C   UNL     1      -4.302  -1.422  24.116  0.00  0.00    -0.004 A 
ENDBRANCH  25  26
ENDBRANCH  24  25
ENDBRANCH  23  24
ENDBRANCH  22  23
ENDBRANCH  18  22
TORSDOF 7
ENDMDL
MODEL 4
REMARK VINA RESULT:      -9.0      2.403      7.230
REMARK  Name = 
REMARK  7 active torsions:
REMARK  status: ('A' for Active; 'I' for Inactive)
REMARK    1  A    between atoms: C_4  and  C_8
REMARK    2  A    between atoms: N_13  and  C_14
REMARK    3  A    between atoms: C_18  and  N_22
REMARK    4  A    between atoms: N_22  and  C_23
REMARK    5  A    between atoms: C_23  and  C_24
REMARK    6  A    between atoms: C_24  and  C_25
REMARK    7  A    between atoms: C_25  and  C_26
REMARK                            x       y       z     vdW  Elec       q    Type
REMARK                         _______ _______ _______ _____ _____    ______ ____
ROOT
ATOM     14  C   UNL     1      -0.103   2.366  25.124  0.00  0.00    +0.154 C 
ATOM     15  C   UNL     1      -0.466   1.862  25.666  0.00  0.00    +0.166 C 
ATOM     16  O   UNL     1      -1.154   2.230  25.934  0.00  0.00    -0.350 OA
ATOM     17  C   UNL     1      -1.215   2.961  25.559  0.00  0.00    +0.162 C 
ATOM     18  C   UNL     1      -1.678   3.641  25.492  0.00  0.00    +0.132 C 
ATOM     19  C   UNL     1      -1.314   4.145  24.950  0.00  0.00    +0.162 C 
ATOM     20  O   UNL     1      -0.626   3.777  24.682  0.00  0.00    -0.350 OA
ATOM     21  C   UNL     1      -0.565   3.045  25.058  0.00  0.00    +0.166 C 
ENDROOT
BRANCH  14  13
ATOM      8  C   UNL     1       1.438   0.732  23.356  0.00  0.00    +0.086 A 
ATOM      9  C   UNL     1       0.801   0.213  23.281  0.00  0.00    +0.040 A 
ATOM     10  C   UNL     1       0.097   0.362  23.685  0.00  0.00    +0.103 A 
ATOM     11  N   UNL     1       0.030   1.030  24.165  0.00  0.00    -0.211 NA
ATOM     12  C   UNL     1       0.668   1.549  24.240  0.00  0.00    +0.237 A 
ATOM     13  N   UNL     1       0.601   2.217  24.720  0.00  0.00    -0.200 NA
ATOM     32  N   UNL     1       1.371   1.400  23.836  0.00  0.00    -0.212 NA
BRANCH   8   4
ATOM      1  F   UNL     1       4.251   1.134  23.049  0.00  0.00    -0.204 F 
ATOM      2  C   UNL     1       3.547   0.784  22.798  0.00  0.00    +0.140 A 
ATOM      3  C   UNL     1       2.844   0.933  23.203  0.00  0.00    +0.031 A 
ATOM      4  C   UNL     1       2.141   0.583  22.952  0.00  0.00    +0.020 A 
ATOM      5  C   UNL     1       2.141   0.083  22.295  0.00  0.00    +0.002 A 
ATOM      6  C   UNL     1       2.844  -0.067  21.891  0.00  0.00    +0.002 A 
ATOM      7  C   UNL     1       3.548   0.284  22.142  0.00  0.00    +0.030 A 
ENDBRANCH   8   4
ENDBRANCH  14  13
BRANCH  18  22
ATOM     22  N   UNL     1      -2.381   3.790  25.896  0.00  0.00    -0.214 NA
BRANCH  22  23
ATOM     23  C   UNL     1      -3.076   3.935  25.476  0.00  0.00    +0.089 C 
BRANCH  23  24
ATOM     24  C   UNL     1      -3.790   3.609  25.733  0.00  0.00    +0.023 C 
BRANCH  24  25
ATOM     25  C   UNL     1      -4.446   3.606  25.232  0.00  0.00    +0.028 C 
BRANCH  25  26
ATOM     26  C   UNL     1      -4.995   2.992  25.274  0.00  0.00    -0.022 A 
ATOM     27  C   UNL     1      -5.016   2.415  24.686  0.00  0.00    -0.004 A 
ATOM     28  C   UNL     1      -5.564   1.802  24.728  0.00  0.00    -0.000 A 
ATOM     29  C   UNL     1      -6.093   1.764  25.360  0.00  0.00    -0.000 A 
ATOM     30  C   UNL     1      -6.073   2.341  25.950  0.00  0.00    -0.000 A 
ATOM     31  C   UNL     1      -5.524   2.955  25.908  0.00  0.00    -0.004 A 
ENDBRANCH  25  26
ENDBRANCH  24  25
ENDBRANCH  23  24
ENDBRANCH  22  23
ENDBRANCH  18  22
TORSDOF 7
ENDMDL
MODEL 5
REMARK VINA RESULT:      -7.1     14.893     17.083
REMARK  Name = 
REMARK  7 active torsions:
REMARK  status: ('A' for Active; 'I' for Inactive)
REMARK    1  A    between atoms: C_4  and  C_8
REMARK    2  A    between atoms: N_13  and  C_14
REMARK    3  A    between atoms: C_18  and  N_22
REMARK    4  A    between atoms: N_22  and  C_23
REMARK    5  A    between atoms: C_23  and  C_24
REMARK    6  A    between atoms: C_24  and  C_25
REMARK    7  A    between atoms: C_25  and  C_26
REMARK                            x       y       z     vdW  Elec       q    Type
REMARK                         _______ _______ _______ _____ _____    ______ ____
ROOT
ATOM     14  C   UNL     1      -5.921 -10.386  13.687  0.00  0.00    +0.154 C 
ATOM     15  C   UNL     1      -6.668 -10.717  13.570  0.00  0.00    +0.166 C 
ATOM     16  O   UNL     1      -7.065 -10.708  14.293  0.00  0.00    -0.350 OA
ATOM     17  C   UNL     1      -6.565 -10.373  14.856  0.00  0.00    +0.162 C 
ATOM     18  C   UNL     1      -6.500 -10.160  15.650  0.00  0.00    +0.132 C 
ATOM     19  C   UNL     1      -5.754  -9.829  15.767  0.00  0.00    +0.162 C 
ATOM     20  O   UNL     1      -5.357  -9.838  15.044  0.00  0.00    -0.350 OA
ATOM     21  C   UNL     1      -5.858 -10.174  14.481  0.00  0.00    +0.166 C 
ENDROOT
BRANCH  14  13
ATOM      8  C   UNL     1      -5.089  -9.311  11.172  0.00  0.00    +0.086 A 
ATOM      9  C   UNL     1      -5.835  -8.974  11.070  0.00  0.00    +0.040 A 
ATOM     10  C   UNL     1      -6.416  -9.074  11.647  0.00  0.00    +0.103 A 
ATOM     11  N   UNL     1      -6.252  -9.512  12.327  0.00  0.00    -0.211 NA
ATOM     12  C   UNL     1      -5.505  -9.848  12.429  0.00  0.00    +0.237 A 
ATOM     13  N   UNL     1      -5.340 -10.286  13.109  0.00  0.00    -0.200 NA
ATOM     32  N   UNL     1      -4.924  -9.748  11.853  0.00  0.00    -0.212 NA
BRANCH   8   4
ATOM      1  F   UNL     1      -2.354  -9.470  10.359  0.00  0.00    -0.204 F 
ATOM      2  C   UNL     1      -3.141  -9.290  10.189  0.00  0.00    +0.140 A 
ATOM      3  C   UNL     1      -3.722  -9.390  10.766  0.00  0.00    +0.031 A 
ATOM      4  C   UNL     1      -4.509  -9.210  10.596  0.00  0.00    +0.020 A 
ATOM      5  C   UNL     1      -4.715  -8.929   9.848  0.00  0.00    +0.002 A 
ATOM      6  C   UNL     1      -4.134  -8.828   9.270  0.00  0.00    +0.002 A 
ATOM      7  C   UNL     1      -3.347  -9.009   9.440  0.00  0.00    +0.030 A 
ENDBRANCH   8   4
ENDBRANCH  14  13
BRANCH  18  22
ATOM     22  N   UNL     1      -7.082 -10.260  16.227  0.00  0.00    -0.214 NA
BRANCH  22  23
ATOM     23  C   UNL     1      -7.312  -9.622  16.696  0.00  0.00    +0.089 C 
BRANCH  23  24
ATOM     24  C   UNL     1      -8.088  -9.573  16.974  0.00  0.00    +0.023 C 
BRANCH  24  25
ATOM     25  C   UNL     1      -8.327  -8.920  17.418  0.00  0.00    +0.028 C 
BRANCH  25  26
ATOM     26  C   UNL     1      -9.124  -8.710  17.449  0.00  0.00    -0.022 A 
ATOM     27  C   UNL     1      -9.383  -8.016  17.088  0.00  0.00    -0.004 A 
ATOM     28  C   UNL     1     -10.180  -7.807  17.120  0.00  0.00    -0.000 A 
ATOM     29  C   UNL     1     -10.719  -8.293  17.513  0.00  0.00    -0.000 A 
ATOM     30  C   UNL     1     -10.460  -8.988  17.875  0.00  0.00    -0.000 A 
ATOM     31  C   UNL     1      -9.662  -9.197  17.844  0.00  0.00    -0.004 A 
ENDBRANCH  25  26
ENDBRANCH  24  25
ENDBRANCH  23  24
ENDBRANCH  22  23
ENDBRANCH  18  22
TORSDOF 7
ENDMDL
