MODEL 1
REMARK VINA RESULT:     -10.0      0.000      0.000
REMARK  Name = 
REMARK  7 active torsions:
REMARK  status: ('A' for Active; 'I' for Inactive)
REMARK    1  A    between atoms: O_2  and  C_3
REMARK    2  A    between atoms: C_3  and  C_4
REMARK    3  A    between atoms: N_8  and  C_9
REMARK    4  A    between atoms: C_12  and  C_13
REMARK    5  A    between atoms: C_16  and  C_17
REMARK    6  A    between atoms: C_17  and  N_18
REMARK    7  A    between atoms: C_19  and  C_21
REMARK                            x       y       z     vdW  Elec       q    Type
REMARK                         _______ _______ _______ _____ _____    ______ ____
ROOT
ATOM      9  C   UNL     1      -1.477   1.949  24.636  0.00  0.00    +0.120 C 
ATOM     10  C   UNL     1      -1.092   2.601  24.962  0.00  0.00    +0.198 C 
ATOM     11  O   UNL     1      -1.167   3.384  24.711  0.00  0.00    -0.219 OA
ATOM     12  C   UNL     1      -0.619   2.334  25.582  0.00  0.00    +0.180 C 
ATOM     15  O   UNL     1      -0.711   1.517  25.640  0.00  0.00    -0.350 OA
ATOM     16  C   UNL     1      -1.242   1.279  25.055  0.00  0.00    +0.154 C 
ENDROOT
BRANCH   9   8
ATOM      4  C   UNL     1      -2.807   2.151  24.043  0.00  0.00    +0.087 C 
ATOM      5  C   UNL     1      -3.122   2.098  23.282  0.00  0.00    +0.020 C 
ATOM      6  C   UNL     1      -2.513   1.878  22.770  0.00  0.00    +0.019 C 
ATOM      7  C   UNL     1      -1.823   1.795  23.215  0.00  0.00    +0.072 C 
ATOM      8  N   UNL     1      -2.005   1.964  24.002  0.00  0.00    -0.269 NA
BRANCH   4   3
ATOM      3  C   UNL     1      -3.223   2.355  24.726  0.00  0.00    +0.158 C 
BRANCH   3   2
ATOM      1  C   UNL     1      -4.459   2.653  25.379  0.00  0.00    +0.174 C 
ATOM      2  O   UNL     1      -4.043   2.443  24.699  0.00  0.00    -0.350 OA
ENDBRANCH   3   2
ENDBRANCH   4   3
ENDBRANCH   9   8
BRANCH  12  13
ATOM     13  C   UNL     1      -0.137   2.802  26.061  0.00  0.00    +0.214 C 
ATOM     14  O   UNL     1       0.547   2.484  26.394  0.00  0.00    -0.218 OA
ENDBRANCH  12  13
BRANCH  16  17
ATOM     17  C   UNL     1      -1.493   0.505  24.914  0.00  0.00    +0.146 C 
BRANCH  17  18
ATOM     18  N   UNL     1      -0.961  -0.121  24.988  0.00  0.00    -0.199 NA
ATOM     19  C   UNL     1      -1.241  -0.889  25.100  0.00  0.00    +0.265 C 
ATOM     20  O   UNL     1      -0.710  -1.515  25.175  0.00  0.00    -0.268 OA
BRANCH  19  21
ATOM     21  C   UNL     1      -2.054  -1.031  25.137  0.00  0.00    +0.056 A 
ATOM     22  C   UNL     1      -2.459  -1.285  24.466  0.00  0.00    +0.018 A 
ATOM     23  C   UNL     1      -3.271  -1.427  24.503  0.00  0.00    +0.085 A 
ATOM     24 CL   UNL     1      -3.677  -1.681  23.831  0.00  0.00    -0.080 Cl
ATOM     25  C   UNL     1      -3.677  -1.313  25.212  0.00  0.00    +0.151 A 
ATOM     26  F   UNL     1      -4.489  -1.454  25.249  0.00  0.00    -0.203 F 
ATOM     27  C   UNL     1      -3.272  -1.058  25.884  0.00  0.00    +0.031 A 
ATOM     28  C   UNL     1      -2.460  -0.917  25.846  0.00  0.00    +0.007 A 
ENDBRANCH  19  21
ENDBRANCH  17  18
ENDBRANCH  16  17
TORSDOF 7
ENDMDL
MODEL 2
REMARK VINA RESULT:      -9.8      1.587      2.918
REMARK  Name = 
REMARK  7 active torsions:
REMARK  status: ('A' for Active; 'I' for Inactive)
REMARK    1  A    between atoms: O_2  and  C_3
REMARK    2  A    between atoms: C_3  and  C_4
REMARK    3  A    between atoms: N_8  and  C_9
REMARK    4  A    between atoms: C_12  and  C_13
REMARK    5  A    between atoms: C_16  and  C_17
REMARK    6  A    between atoms: C_17  and  N_18
REMARK    7  A    between atoms: C_19  and  C_21
REMARK                            x       y       z     vdW  Elec       q    Type
REMARK                         _______ _______ _______ _____ _____    ______ ____
ROOT
ATOM      9  C   UNL     1      -3.861   1.779  24.276  0.00  0.00    +0.120 C 
ATOM     10  C   UNL     1      -4.417   2.352  24.479  0.00  0.00    +0.198 C 
ATOM     11  O   UNL     1      -4.394   3.149  24.264  0.00  0.00    -0.219 OA
ATOM     12  C   UNL     1      -5.002   1.990  24.934  0.00  0.00    +0.180 C 
ATOM     15  O   UNL     1      -4.807   1.193  25.012  0.00  0.00    -0.350 OA
ATOM     16  C   UNL     1      -4.101   1.062  24.606  0.00  0.00    +0.154 C 
ENDROOT
BRANCH   9   8
ATOM      4  C   UNL     1      -2.460   2.190  24.098  0.00  0.00    +0.087 C 
ATOM      5  C   UNL     1      -1.938   2.223  23.460  0.00  0.00    +0.020 C 
ATOM      6  C   UNL     1      -2.337   1.954  22.789  0.00  0.00    +0.019 C 
ATOM      7  C   UNL     1      -3.106   1.754  23.014  0.00  0.00    +0.072 C 
ATOM      8  N   UNL     1      -3.182   1.901  23.822  0.00  0.00    -0.269 NA
BRANCH   4   3
ATOM      3  C   UNL     1      -2.290   2.408  24.875  0.00  0.00    +0.158 C 
BRANCH   3   2
ATOM      1  C   UNL     1      -1.350   2.849  25.857  0.00  0.00    +0.174 C 
ATOM      2  O   UNL     1      -1.516   2.595  25.091  0.00  0.00    -0.350 OA
ENDBRANCH   3   2
ENDBRANCH   4   3
ENDBRANCH   9   8
BRANCH  12  13
ATOM     13  C   UNL     1      -5.666   2.360  25.254  0.00  0.00    +0.214 C 
ATOM     14  O   UNL     1      -6.075   2.006  25.877  0.00  0.00    -0.218 OA
ENDBRANCH  12  13
BRANCH  16  17
ATOM     17  C   UNL     1      -3.705   0.341  24.540  0.00  0.00    +0.146 C 
BRANCH  17  18
ATOM     18  N   UNL     1      -4.133  -0.354  24.413  0.00  0.00    -0.199 NA
ATOM     19  C   UNL     1      -3.798  -1.084  24.600  0.00  0.00    +0.265 C 
ATOM     20  O   UNL     1      -4.224  -1.778  24.473  0.00  0.00    -0.268 OA
BRANCH  19  21
ATOM     21  C   UNL     1      -3.035  -1.120  24.915  0.00  0.00    +0.056 A 
ATOM     22  C   UNL     1      -2.394  -1.282  24.423  0.00  0.00    +0.018 A 
ATOM     23  C   UNL     1      -1.631  -1.318  24.738  0.00  0.00    +0.085 A 
ATOM     24 CL   UNL     1      -0.990  -1.481  24.247  0.00  0.00    -0.080 Cl
ATOM     25  C   UNL     1      -1.512  -1.191  25.544  0.00  0.00    +0.151 A 
ATOM     26  F   UNL     1      -0.751  -1.227  25.860  0.00  0.00    -0.203 F 
ATOM     27  C   UNL     1      -2.155  -1.028  26.036  0.00  0.00    +0.031 A 
ATOM     28  C   UNL     1      -2.916  -0.993  25.721  0.00  0.00    +0.007 A 
ENDBRANCH  19  21
ENDBRANCH  17  18
ENDBRANCH  16  17
TORSDOF 7
ENDMDL
MODEL 3
REMARK VINA RESULT:      -9.8      2.300      4.215
REMARK  Name = 
REMARK  7 active torsions:
REMARK  status: ('A' for Active; 'I' for Inactive)
REMARK    1  A    between atoms: O_2  and  C_3
REMARK    2  A    between atoms: C_3  and  C_4
REMARK    3  A    between atoms: N_8  and  C_9
REMARK    4  A    between atoms: C_12  and  C_13
REMARK    5  A    between atoms: C_16  and  C_17
REMARK    6  A    between atoms: C_17  and  N_18
REMARK    7  A    between atoms: C_19  and  C_21
REMARK                            x       y       z     vdW  Elec       q    Type
REMARK                         _______ _______ _______ _____ _____    ______ ____
ROOT
ATOM      9  C   UNL     1      -3.947   2.607  24.504  0.00  0.00    +0.120 C 
ATOM     10  C   UNL     1      -4.746   2.601  24.707  0.00  0.00    +0.198 C 
ATOM     11  O   UNL     1      -5.329   2.125  24.370  0.00  0.00    -0.219 OA
ATOM     12  C   UNL     1      -4.860   3.155  25.307  0.00  0.00    +0.180 C 
ATOM     15  O   UNL     1      -4.132   3.503  25.475  0.00  0.00    -0.350 OA
ATOM     16  C   UNL     1      -3.567   3.165  24.978  0.00  0.00    +0.154 C 
ENDROOT
BRANCH   9   8
ATOM      4  C   UNL     1      -3.353   1.353  24.018  0.00  0.00    +0.087 C 
ATOM      5  C   UNL     1      -3.024   1.101  23.304  0.00  0.00    +0.020 C 
ATOM      6  C   UNL     1      -3.058   1.730  22.772  0.00  0.00    +0.019 C 
ATOM      7  C   UNL     1      -3.407   2.371  23.156  0.00  0.00    +0.072 C 
ATOM      8  N   UNL     1      -3.590   2.138  23.926  0.00  0.00    -0.269 NA
BRANCH   4   3
ATOM      3  C   UNL     1      -3.432   0.899  24.703  0.00  0.00    +0.158 C 
BRANCH   3   2
ATOM      1  C   UNL     1      -3.185  -0.313  25.417  0.00  0.00    +0.174 C 
ATOM      2  O   UNL     1      -3.086   0.152  24.744  0.00  0.00    -0.350 OA
ENDBRANCH   3   2
ENDBRANCH   4   3
ENDBRANCH   9   8
BRANCH  12  13
ATOM     13  C   UNL     1      -5.577   3.330  25.676  0.00  0.00    +0.214 C 
ATOM     14  O   UNL     1      -5.801   4.116  25.792  0.00  0.00    -0.218 OA
ENDBRANCH  12  13
BRANCH  16  17
ATOM     17  C   UNL     1      -2.764   3.351  24.959  0.00  0.00    +0.146 C 
BRANCH  17  18
ATOM     18  N   UNL     1      -2.520   4.134  25.057  0.00  0.00    -0.199 NA
ATOM     19  C   UNL     1      -1.738   4.299  25.263  0.00  0.00    +0.265 C 
ATOM     20  O   UNL     1      -1.494   5.080  25.361  0.00  0.00    -0.268 OA
BRANCH  19  21
ATOM     21  C   UNL     1      -1.200   3.682  25.372  0.00  0.00    +0.056 A 
ATOM     22  C   UNL     1      -0.698   3.459  24.757  0.00  0.00    +0.018 A 
ATOM     23  C   UNL     1      -0.161   2.842  24.865  0.00  0.00    +0.085 A 
ATOM     24 CL   UNL     1       0.341   2.620  24.250  0.00  0.00    -0.080 Cl
ATOM     25  C   UNL     1      -0.127   2.448  25.589  0.00  0.00    +0.151 A 
ATOM     26  F   UNL     1       0.410   1.831  25.698  0.00  0.00    -0.203 F 
ATOM     27  C   UNL     1      -0.630   2.671  26.205  0.00  0.00    +0.031 A 
ATOM     28  C   UNL     1      -1.166   3.288  26.096  0.00  0.00    +0.007 A 
ENDBRANCH  19  21
ENDBRANCH  17  18
ENDBRANCH  16  17
TORSDOF 7
ENDMDL
MODEL 4
REMARK VINA RESULT:      -9.6      2.296      3.770
REMARK  Name = 
REMARK  7 active torsions:
REMARK  status: ('A' for Active; 'I' for Inactive)
REMARK    1  A    between atoms: O_2  and  C_3
REMARK    2  A    between atoms: C_3  and  C_4
REMARK    3  A    between atoms: N_8  and  C_9
REMARK    4  A    between atoms: C_12  and  C_13
REMARK    5  A    between atoms: C_16  and  C_17
REMARK    6  A    between atoms: C_17  and  N_18
REMARK    7  A    between atoms: C_19  and  C_21
REMARK                            x       y       z     vdW  Elec       q    Type
REMARK                         _______ _______ _______ _____ _____    ______ ____
ROOT
ATOM      9  C   UNL     1      -2.588   0.911  24.257  0.00  0.00    +0.120 C 
ATOM     10  C   UNL     1      -2.908   0.157  24.353  0.00  0.00    +0.198 C 
ATOM     11  O   UNL     1      -3.488  -0.188  23.879  0.00  0.00    -0.219 OA
ATOM     12  C   UNL     1      -2.545  -0.192  25.006  0.00  0.00    +0.180 C 
ATOM     15  O   UNL     1      -2.002   0.346  25.315  0.00  0.00    -0.350 OA
ATOM     16  C   UNL     1      -2.028   1.028  24.851  0.00  0.00    +0.154 C 
ENDROOT
BRANCH   9   8
ATOM      4  C   UNL     1      -3.453   1.947  23.675  0.00  0.00    +0.087 C 
ATOM      5  C   UNL     1      -3.441   2.396  22.982  0.00  0.00    +0.020 C 
ATOM      6  C   UNL     1      -2.772   2.180  22.549  0.00  0.00    +0.019 C 
ATOM      7  C   UNL     1      -2.372   1.597  22.974  0.00  0.00    +0.072 C 
ATOM      8  N   UNL     1      -2.792   1.454  23.670  0.00  0.00    -0.269 NA
BRANCH   4   3
ATOM      3  C   UNL     1      -4.025   1.986  24.268  0.00  0.00    +0.158 C 
BRANCH   3   2
ATOM      1  C   UNL     1      -5.152   2.638  24.857  0.00  0.00    +0.174 C 
ATOM      2  O   UNL     1      -4.601   2.577  24.247  0.00  0.00    -0.350 OA
ENDBRANCH   3   2
ENDBRANCH   4   3
ENDBRANCH   9   8
BRANCH  12  13
ATOM     13  C   UNL     1      -2.699  -0.947  25.301  0.00  0.00    +0.214 C 
ATOM     14  O   UNL     1      -2.715  -1.078  26.115  0.00  0.00    -0.218 OA
ENDBRANCH  12  13
BRANCH  16  17
ATOM     17  C   UNL     1      -1.574   1.708  24.963  0.00  0.00    +0.146 C 
BRANCH  17  18
ATOM     18  N   UNL     1      -0.815   1.648  25.283  0.00  0.00    -0.199 NA
ATOM     19  C   UNL     1      -0.444   2.319  25.590  0.00  0.00    +0.265 C 
ATOM     20  O   UNL     1       0.314   2.260  25.910  0.00  0.00    -0.268 OA
BRANCH  19  21
ATOM     21  C   UNL     1      -0.831   3.048  25.577  0.00  0.00    +0.056 A 
ATOM     22  C   UNL     1      -0.613   3.621  25.026  0.00  0.00    +0.018 A 
ATOM     23  C   UNL     1      -1.000   4.349  25.012  0.00  0.00    +0.085 A 
ATOM     24 CL   UNL     1      -0.782   4.922  24.461  0.00  0.00    -0.080 Cl
ATOM     25  C   UNL     1      -1.606   4.504  25.550  0.00  0.00    +0.151 A 
ATOM     26  F   UNL     1      -1.993   5.232  25.538  0.00  0.00    -0.203 F 
ATOM     27  C   UNL     1      -1.824   3.931  26.102  0.00  0.00    +0.031 A 
ATOM     28  C   UNL     1      -1.437   3.202  26.115  0.00  0.00    +0.007 A 
ENDBRANCH  19  21
ENDBRANCH  17  18
ENDBRANCH  16  17
TORSDOF 7
ENDMDL
MODEL 5
REMARK VINA RESULT:      -9.6      1.546      2.535
REMARK  Name = 
REMARK  7 active torsions:
REMARK  status: ('A' for Active; 'I' for Inactive)
REMARK    1  A    between atoms: O_2  and  C_3
REMARK    2  A    between atoms: C_3  and  C_4
REMARK    3  A    between atoms: N_8  and  C_9
REMARK    4  A    between atoms: C_12  and  C_13
REMARK    5  A    between atoms: C_16  and  C_17
REMARK    6  A    between atoms: C_17  and  N_18
REMARK    7  A    between atoms: C_19  and  C_21
REMARK                            x       y       z     vdW  Elec       q    Type
REMARK                         _______ _______ _______ _____ _____    ______ ____
ROOT
ATOM      9  C   UNL     1      -2.685   2.550  24.319  0.00  0.00    +0.120 C 
ATOM     10  C   UNL     1      -2.368   3.242  24.637  0.00  0.00    +0.198 C 
ATOM     11  O   UNL     1      -1.805   3.727  24.279  0.00  0.00    -0.219 OA
ATOM     12  C   UNL     1      -2.714   3.364  25.376  0.00  0.00    +0.180 C 
ATOM     15  O   UNL     1      -3.244   2.748  25.515  0.00  0.00    -0.350 OA
ATOM     16  C   UNL     1      -3.226   2.245  24.861  0.00  0.00    +0.154 C 
ENDROOT
BRANCH   9   8
ATOM      4  C   UNL     1      -1.849   1.732  23.429  0.00  0.00    +0.087 C 
ATOM      5  C   UNL     1      -1.871   1.532  22.628  0.00  0.00    +0.020 C 
ATOM      6  C   UNL     1      -2.530   1.898  22.292  0.00  0.00    +0.019 C 
ATOM      7  C   UNL     1      -2.915   2.324  22.884  0.00  0.00    +0.072 C 
ATOM      8  N   UNL     1      -2.494   2.221  23.587  0.00  0.00    -0.269 NA
BRANCH   4   3
ATOM      3  C   UNL     1      -1.282   1.485  23.974  0.00  0.00    +0.158 C 
BRANCH   3   2
ATOM      1  C   UNL     1      -0.211   0.608  24.328  0.00  0.00    +0.174 C 
ATOM      2  O   UNL     1      -0.729   0.910  23.763  0.00  0.00    -0.350 OA
ENDBRANCH   3   2
ENDBRANCH   4   3
ENDBRANCH   9   8
BRANCH  12  13
ATOM     13  C   UNL     1      -2.557   3.992  25.887  0.00  0.00    +0.214 C 
ATOM     14  O   UNL     1      -3.062   4.145  26.521  0.00  0.00    -0.218 OA
ENDBRANCH  12  13
BRANCH  16  17
ATOM     17  C   UNL     1      -3.671   1.556  24.767  0.00  0.00    +0.146 C 
BRANCH  17  18
ATOM     18  N   UNL     1      -4.465   1.545  24.993  0.00  0.00    -0.199 NA
ATOM     19  C   UNL     1      -4.842   0.825  25.139  0.00  0.00    +0.265 C 
ATOM     20  O   UNL     1      -5.635   0.814  25.365  0.00  0.00    -0.268 OA
BRANCH  19  21
ATOM     21  C   UNL     1      -4.425   0.118  25.061  0.00  0.00    +0.056 A 
ATOM     22  C   UNL     1      -4.486  -0.322  24.366  0.00  0.00    +0.018 A 
ATOM     23  C   UNL     1      -4.069  -1.030  24.287  0.00  0.00    +0.085 A 
ATOM     24 CL   UNL     1      -4.130  -1.470  23.593  0.00  0.00    -0.080 Cl
ATOM     25  C   UNL     1      -3.591  -1.297  24.904  0.00  0.00    +0.151 A 
ATOM     26  F   UNL     1      -3.173  -2.004  24.826  0.00  0.00    -0.203 F 
ATOM     27  C   UNL     1      -3.529  -0.857  25.600  0.00  0.00    +0.031 A 
ATOM     28  C   UNL     1      -3.947  -0.149  25.677  0.00  0.00    +0.007 A 
ENDBRANCH  19  21
ENDBRANCH  17  18
ENDBRANCH  16  17
TORSDOF 7
ENDMDL
MODEL 6
REMARK VINA RESULT:      -9.3      1.422      3.023
REMARK  Name = 
REMARK  7 active torsions:
REMARK  status: ('A' for Active; 'I' for Inactive)
REMARK    1  A    between atoms: O_2  and  C_3
REMARK    2  A    between atoms: C_3  and  C_4
REMARK    3  A    between atoms: N_8  and  C_9
REMARK    4  A    between atoms: C_12  and  C_13
REMARK    5  A    between atoms: C_16  and  C_17
REMARK    6  A    between atoms: C_17  and  N_18
REMARK    7  A    between atoms: C_19  and  C_21
REMARK                            x       y       z     vdW  Elec       q    Type
REMARK                         _______ _______ _______ _____ _____    ______ ____
ROOT
ATOM      9  C   UNL     1      -1.947   1.628  24.042  0.00  0.00    +0.120 C 
ATOM     10  C   UNL     1      -1.755   2.064  23.369  0.00  0.00    +0.198 C 
ATOM     11  O   UNL     1      -1.046   2.464  23.237  0.00  0.00    -0.219 OA
ATOM     12  C   UNL     1      -2.396   2.030  22.852  0.00  0.00    +0.180 C 
ATOM     15  O   UNL     1      -2.985   1.574  23.204  0.00  0.00    -0.350 OA
ATOM     16  C   UNL     1      -2.707   1.325  23.940  0.00  0.00    +0.154 C 
ENDROOT
BRANCH   9   8
ATOM      4  C   UNL     1      -0.887   0.932  24.784  0.00  0.00    +0.087 C 
ATOM      5  C   UNL     1      -0.539   1.021  25.527  0.00  0.00    +0.020 C 
ATOM      6  C   UNL     1      -0.902   1.660  25.903  0.00  0.00    +0.019 C 
ATOM      7  C   UNL     1      -1.474   1.965  25.393  0.00  0.00    +0.072 C 
ATOM      8  N   UNL     1      -1.464   1.515  24.701  0.00  0.00    -0.269 NA
BRANCH   4   3
ATOM      3  C   UNL     1      -0.691   0.360  24.223  0.00  0.00    +0.158 C 
BRANCH   3   2
ATOM      1  C   UNL     1      -0.005  -0.844  23.872  0.00  0.00    +0.174 C 
ATOM      2  O   UNL     1      -0.195  -0.267  24.429  0.00  0.00    -0.350 OA
ENDBRANCH   3   2
ENDBRANCH   4   3
ENDBRANCH   9   8
BRANCH  12  13
ATOM     13  C   UNL     1      -2.441   2.391  22.111  0.00  0.00    +0.214 C 
ATOM     14  O   UNL     1      -2.734   1.970  21.464  0.00  0.00    -0.218 OA
ENDBRANCH  12  13
BRANCH  16  17
ATOM     17  C   UNL     1      -3.118   0.855  24.480  0.00  0.00    +0.146 C 
BRANCH  17  18
ATOM     18  N   UNL     1      -3.910   1.017  24.649  0.00  0.00    -0.199 NA
ATOM     19  C   UNL     1      -4.408   0.414  24.911  0.00  0.00    +0.265 C 
ATOM     20  O   UNL     1      -5.198   0.575  25.080  0.00  0.00    -0.268 OA
BRANCH  19  21
ATOM     21  C   UNL     1      -4.114  -0.352  25.005  0.00  0.00    +0.056 A 
ATOM     22  C   UNL     1      -4.145  -0.885  24.376  0.00  0.00    +0.018 A 
ATOM     23  C   UNL     1      -3.851  -1.651  24.470  0.00  0.00    +0.085 A 
ATOM     24 CL   UNL     1      -3.882  -2.184  23.841  0.00  0.00    -0.080 Cl
ATOM     25  C   UNL     1      -3.527  -1.882  25.192  0.00  0.00    +0.151 A 
ATOM     26  F   UNL     1      -3.233  -2.648  25.286  0.00  0.00    -0.203 F 
ATOM     27  C   UNL     1      -3.496  -1.349  25.821  0.00  0.00    +0.031 A 
ATOM     28  C   UNL     1      -3.790  -0.584  25.727  0.00  0.00    +0.007 A 
ENDBRANCH  19  21
ENDBRANCH  17  18
ENDBRANCH  16  17
TORSDOF 7
ENDMDL
MODEL 7
REMARK VINA RESULT:      -9.1      2.280      3.869
REMARK  Name = 
REMARK  7 active torsions:
REMARK  status: ('A' for Active; 'I' for Inactive)
REMARK    1  A    between atoms: O_2  and  C_3
REMARK    2  A    between atoms: C_3  and  C_4
REMARK    3  A    between atoms: N_8  and  C_9
REMARK    4  A    between atoms: C_12  and  C_13
REMARK    5  A    between atoms: C_16  and  C_17
REMARK    6  A    between atoms: C_17  and  N_18
REMARK    7  A    between atoms: C_19  and  C_21
REMARK                            x       y       z     vdW  Elec       q    Type
REMARK                         _______ _______ _______ _____ _____    ______ ____
ROOT
ATOM      9  C   UNL     1      -1.778   0.464  24.604  0.00  0.00    +0.120 C 
ATOM     10  C   UNL     1      -1.500  -0.226  24.247  0.00  0.00    +0.198 C 
ATOM     11  O   UNL     1      -1.958  -0.788  23.856  0.00  0.00    -0.219 OA
ATOM     12  C   UNL     1      -0.682  -0.253  24.351  0.00  0.00    +0.180 C 
ATOM     15  O   UNL     1      -0.455   0.418  24.772  0.00  0.00    -0.350 OA
ATOM     16  C   UNL     1      -1.133   0.862  24.928  0.00  0.00    +0.154 C 
ENDROOT
BRANCH   9   8
ATOM      4  C   UNL     1      -2.962   1.130  24.042  0.00  0.00    +0.087 C 
ATOM      5  C   UNL     1      -3.735   1.262  24.300  0.00  0.00    +0.020 C 
ATOM      6  C   UNL     1      -3.815   0.925  25.050  0.00  0.00    +0.019 C 
ATOM      7  C   UNL     1      -3.092   0.585  25.254  0.00  0.00    +0.072 C 
ATOM      8  N   UNL     1      -2.565   0.712  24.632  0.00  0.00    -0.269 NA
BRANCH   4   3
ATOM      3  C   UNL     1      -2.643   1.373  23.321  0.00  0.00    +0.158 C 
BRANCH   3   2
ATOM      1  C   UNL     1      -2.721   2.185  22.148  0.00  0.00    +0.174 C 
ATOM      2  O   UNL     1      -3.058   1.906  22.847  0.00  0.00    -0.350 OA
ENDBRANCH   3   2
ENDBRANCH   4   3
ENDBRANCH   9   8
BRANCH  12  13
ATOM     13  C   UNL     1      -0.179  -0.849  24.081  0.00  0.00    +0.214 C 
ATOM     14  O   UNL     1       0.546  -0.654  23.739  0.00  0.00    -0.218 OA
ENDBRANCH  12  13
BRANCH  16  17
ATOM     17  C   UNL     1      -1.160   1.578  25.337  0.00  0.00    +0.146 C 
BRANCH  17  18
ATOM     18  N   UNL     1      -0.647   1.710  25.971  0.00  0.00    -0.199 NA
ATOM     19  C   UNL     1      -0.498   2.481  26.226  0.00  0.00    +0.265 C 
ATOM     20  O   UNL     1       0.013   2.614  26.859  0.00  0.00    -0.268 OA
BRANCH  19  21
ATOM     21  C   UNL     1      -0.862   3.118  25.848  0.00  0.00    +0.056 A 
ATOM     22  C   UNL     1      -1.573   3.418  26.138  0.00  0.00    +0.018 A 
ATOM     23  C   UNL     1      -1.937   4.056  25.760  0.00  0.00    +0.085 A 
ATOM     24 CL   UNL     1      -2.648   4.356  26.049  0.00  0.00    -0.080 Cl
ATOM     25  C   UNL     1      -1.587   4.393  25.093  0.00  0.00    +0.151 A 
ATOM     26  F   UNL     1      -1.950   5.030  24.714  0.00  0.00    -0.203 F 
ATOM     27  C   UNL     1      -0.875   4.093  24.803  0.00  0.00    +0.031 A 
ATOM     28  C   UNL     1      -0.513   3.455  25.182  0.00  0.00    +0.007 A 
ENDBRANCH  19  21
ENDBRANCH  17  18
ENDBRANCH  16  17
TORSDOF 7
ENDMDL
MODEL 8
REMARK VINA RESULT:      -9.0      1.482      2.211
REMARK  Name = 
REMARK  7 active torsions:
REMARK  status: ('A' for Active; 'I' for Inactive)
REMARK    1  A    between atoms: O_2  and  C_3
REMARK    2  A    between atoms: C_3  and  C_4
REMARK    3  A    between atoms: N_8  and  C_9
REMARK    4  A    between atoms: C_12  and  C_13
REMARK    5  A    between atoms: C_16  and  C_17
REMARK    6  A    between atoms: C_17  and  N_18
REMARK    7  A    between atoms: C_19  and  C_21
REMARK                            x       y       z     vdW  Elec       q    Type
REMARK                         _______ _______ _______ _____ _____    ______ ____
ROOT
ATOM      9  C   UNL     1      -0.376   0.695  24.324  0.00  0.00    +0.120 C 
ATOM     10  C   UNL     1       0.262   0.863  23.830  0.00  0.00    +0.198 C 
ATOM     11  O   UNL     1       0.605   1.605  23.715  0.00  0.00    -0.219 OA
ATOM     12  C   UNL     1       0.498   0.159  23.471  0.00  0.00    +0.180 C 
ATOM     15  O   UNL     1       0.006  -0.444  23.743  0.00  0.00    -0.350 OA
ATOM     16  C   UNL     1      -0.534  -0.112  24.271  0.00  0.00    +0.154 C 
ENDROOT
BRANCH   9   8
ATOM      4  C   UNL     1      -1.389   1.740  24.535  0.00  0.00    +0.087 C 
ATOM      5  C   UNL     1      -1.638   2.189  25.181  0.00  0.00    +0.020 C 
ATOM      6  C   UNL     1      -1.188   1.967  25.836  0.00  0.00    +0.019 C 
ATOM      7  C   UNL     1      -0.660   1.380  25.595  0.00  0.00    +0.072 C 
ATOM      8  N   UNL     1      -0.785   1.240  24.791  0.00  0.00    -0.269 NA
BRANCH   4   3
ATOM      3  C   UNL     1      -1.691   1.783  23.769  0.00  0.00    +0.158 C 
BRANCH   3   2
ATOM      1  C   UNL     1      -2.727   2.193  22.874  0.00  0.00    +0.174 C 
ATOM      2  O   UNL     1      -2.378   2.216  23.621  0.00  0.00    -0.350 OA
ENDBRANCH   3   2
ENDBRANCH   4   3
ENDBRANCH   9   8
BRANCH  12  13
ATOM     13  C   UNL     1       1.118   0.073  22.934  0.00  0.00    +0.214 C 
ATOM     14  O   UNL     1       1.022  -0.401  22.265  0.00  0.00    -0.218 OA
ENDBRANCH  12  13
BRANCH  16  17
ATOM     17  C   UNL     1      -1.129  -0.518  24.675  0.00  0.00    +0.146 C 
BRANCH  17  18
ATOM     18  N   UNL     1      -1.015  -1.306  24.893  0.00  0.00    -0.199 NA
ATOM     19  C   UNL     1      -1.666  -1.782  25.069  0.00  0.00    +0.265 C 
ATOM     20  O   UNL     1      -1.553  -2.569  25.287  0.00  0.00    -0.268 OA
BRANCH  19  21
ATOM     21  C   UNL     1      -2.429  -1.471  25.025  0.00  0.00    +0.056 A 
ATOM     22  C   UNL     1      -2.838  -1.481  24.309  0.00  0.00    +0.018 A 
ATOM     23  C   UNL     1      -3.602  -1.170  24.266  0.00  0.00    +0.085 A 
ATOM     24 CL   UNL     1      -4.011  -1.179  23.550  0.00  0.00    -0.080 Cl
ATOM     25  C   UNL     1      -3.955  -0.850  24.939  0.00  0.00    +0.151 A 
ATOM     26  F   UNL     1      -4.718  -0.539  24.897  0.00  0.00    -0.203 F 
ATOM     27  C   UNL     1      -3.546  -0.841  25.656  0.00  0.00    +0.031 A 
ATOM     28  C   UNL     1      -2.783  -1.152  25.698  0.00  0.00    +0.007 A 
ENDBRANCH  19  21
ENDBRANCH  17  18
ENDBRANCH  16  17
TORSDOF 7
ENDMDL
MODEL 9
REMARK VINA RESULT:      -8.8      1.682      3.697
REMARK  Name = 
REMARK  7 active torsions:
REMARK  status: ('A' for Active; 'I' for Inactive)
REMARK    1  A    between atoms: O_2  and  C_3
REMARK    2  A    between atoms: C_3  and  C_4
REMARK    3  A    between atoms: N_8  and  C_9
REMARK    4  A    between atoms: C_12  and  C_13
REMARK    5  A    between atoms: C_16  and  C_17
REMARK    6  A    between atoms: C_17  and  N_18
REMARK    7  A    between atoms: C_19  and  C_21
REMARK                            x       y       z     vdW  Elec       q    Type
REMARK                         _______ _______ _______ _____ _____    ______ ____
ROOT
ATOM      9  C   UNL     1      -1.684  -0.409  24.881  0.00  0.00    +0.120 C 
ATOM     10  C   UNL     1      -1.076  -0.856  24.547  0.00  0.00    +0.198 C 
ATOM     11  O   UNL     1      -0.971  -1.670  24.629  0.00  0.00    -0.219 OA
ATOM     12  C   UNL     1      -0.592  -0.345  24.117  0.00  0.00    +0.180 C 
ATOM     15  O   UNL     1      -0.900   0.417  24.185  0.00  0.00    -0.350 OA
ATOM     16  C   UNL     1      -1.575   0.377  24.658  0.00  0.00    +0.154 C 
ENDROOT
BRANCH   9   8
ATOM      4  C   UNL     1      -2.997  -1.036  25.089  0.00  0.00    +0.087 C 
ATOM      5  C   UNL     1      -3.445  -1.247  25.749  0.00  0.00    +0.020 C 
ATOM      6  C   UNL     1      -3.018  -1.040  26.425  0.00  0.00    +0.019 C 
ATOM      7  C   UNL     1      -2.306  -0.701  26.182  0.00  0.00    +0.072 C 
ATOM      8  N   UNL     1      -2.293  -0.698  25.356  0.00  0.00    -0.269 NA
BRANCH   4   3
ATOM      3  C   UNL     1      -3.215  -1.143  24.301  0.00  0.00    +0.158 C 
BRANCH   3   2
ATOM      1  C   UNL     1      -4.182  -1.796  23.475  0.00  0.00    +0.174 C 
ATOM      2  O   UNL     1      -4.002  -1.300  24.109  0.00  0.00    -0.350 OA
ENDBRANCH   3   2
ENDBRANCH   4   3
ENDBRANCH   9   8
BRANCH  12  13
ATOM     13  C   UNL     1       0.083  -0.559  23.693  0.00  0.00    +0.214 C 
ATOM     14  O   UNL     1       0.509   0.014  23.279  0.00  0.00    -0.218 OA
ENDBRANCH  12  13
BRANCH  16  17
ATOM     17  C   UNL     1      -2.057   1.013  24.870  0.00  0.00    +0.146 C 
BRANCH  17  18
ATOM     18  N   UNL     1      -1.716   1.733  25.089  0.00  0.00    -0.199 NA
ATOM     19  C   UNL     1      -2.159   2.428  25.045  0.00  0.00    +0.265 C 
ATOM     20  O   UNL     1      -1.820   3.147  25.263  0.00  0.00    -0.268 OA
BRANCH  19  21
ATOM     21  C   UNL     1      -2.941   2.403  24.781  0.00  0.00    +0.056 A 
ATOM     22  C   UNL     1      -3.559   2.373  25.327  0.00  0.00    +0.018 A 
ATOM     23  C   UNL     1      -4.341   2.348  25.064  0.00  0.00    +0.085 A 
ATOM     24 CL   UNL     1      -4.958   2.318  25.609  0.00  0.00    -0.080 Cl
ATOM     25  C   UNL     1      -4.504   2.354  24.255  0.00  0.00    +0.151 A 
ATOM     26  F   UNL     1      -5.285   2.330  23.991  0.00  0.00    -0.203 F 
ATOM     27  C   UNL     1      -3.885   2.385  23.709  0.00  0.00    +0.031 A 
ATOM     28  C   UNL     1      -3.104   2.410  23.973  0.00  0.00    +0.007 A 
ENDBRANCH  19  21
ENDBRANCH  17  18
ENDBRANCH  16  17
TORSDOF 7
ENDMDL
