REMARK  Name = 
REMARK  3 active torsions:
REMARK  status: ('A' for Active; 'I' for Inactive)
REMARK    1  A    between atoms: C_2  and  C_4
REMARK    2  A    between atoms: C_4  and  N_5
REMARK    3  A    between atoms: C_8  and  C_10
REMARK                            x       y       z     vdW  Elec       q    Type
REMARK                         _______ _______ _______ _____ _____    ______ ____
ROOT
ATOM     10  C   UNL     1      -0.628  -0.698   0.000  0.00  0.00    +0.207 A 
ATOM     11  N   UNL     1      -0.143  -1.365   0.000  0.00  0.00    -0.212 NA
ATOM     12  C   UNL     1       0.641  -1.110   0.000  0.00  0.00    +0.118 A 
ATOM     13  C   UNL     1       0.641  -0.285   0.000  0.00  0.00    +0.164 A 
ATOM     14  O   UNL     1      -0.143  -0.030   0.000  0.00  0.00    -0.438 OA
ATOM     15  C   UNL     1       1.356   0.127   0.000  0.00  0.00    +0.039 A 
ATOM     16  C   UNL     1       2.070  -0.285   0.000  0.00  0.00    -0.001 A 
ATOM     17  C   UNL     1       2.070  -1.110   0.000  0.00  0.00    -0.020 A 
ATOM     18  C   UNL     1       2.784  -1.523   0.000  0.00  0.00    +0.031 C 
ATOM     19  C   UNL     1       1.356  -1.523   0.000  0.00  0.00    +0.018 A 
ENDROOT
BRANCH  10   8
ATOM      5  N   UNL     1      -2.723  -1.110   0.000  0.00  0.00    -0.272 NA
ATOM      6  C   UNL     1      -2.723  -0.285   0.000  0.00  0.00    +0.073 C 
ATOM      7  C   UNL     1      -1.938  -0.030   0.000  0.00  0.00    +0.028 C 
ATOM      8  C   UNL     1      -1.453  -0.698   0.000  0.00  0.00    +0.094 C 
ATOM      9  C   UNL     1      -1.938  -1.365   0.000  0.00  0.00    +0.081 C 
BRANCH   5   4
ATOM      4  C   UNL     1      -3.390  -1.595   0.000  0.00  0.00    +0.072 C 
BRANCH   4   2
ATOM      1  C   UNL     1      -4.811  -1.745   0.000  0.00  0.00    +0.001 C 
ATOM      2  C   UNL     1      -4.144  -1.260   0.000  0.00  0.00    +0.016 C 
ATOM      3  C   UNL     1      -4.230  -0.439   0.000  0.00  0.00    +0.001 C 
ENDBRANCH   4   2
ENDBRANCH   5   4
ENDBRANCH  10   8
TORSDOF 3
