MODEL 1
REMARK VINA RESULT:     -12.8      0.000      0.000
REMARK  Name = 
REMARK  3 active torsions:
REMARK  status: ('A' for Active; 'I' for Inactive)
REMARK    1  A    between atoms: C_4  and  C_5
REMARK    2  A    between atoms: C_5  and  N_6
REMARK    3  A    between atoms: C_9  and  C_11
REMARK                            x       y       z     vdW  Elec       q    Type
REMARK                         _______ _______ _______ _____ _____    ______ ____
ROOT
ATOM      6  N   UNL     1      -4.218   2.176  24.564  0.00  0.00    -0.269 NA
ATOM      7  C   UNL     1      -4.935   2.015  24.941  0.00  0.00    +0.073 C 
ATOM      8  C   UNL     1      -4.999   1.197  25.028  0.00  0.00    +0.025 C 
ATOM      9  C   UNL     1      -4.321   0.853  24.705  0.00  0.00    +0.064 C 
ATOM     10  C   UNL     1      -3.840   1.458  24.419  0.00  0.00    +0.079 C 
ENDROOT
BRANCH   9  11
ATOM     11  C   UNL     1      -4.156   0.045  24.674  0.00  0.00    +0.089 A 
ATOM     12  N   UNL     1      -4.377  -0.473  24.072  0.00  0.00    -0.243 NA
ATOM     13  C   UNL     1      -4.098  -1.224  24.266  0.00  0.00    +0.087 A 
ATOM     14  C   UNL     1      -3.704  -1.171  24.989  0.00  0.00    +0.048 A 
ATOM     15  S   UNL     1      -3.740  -0.387  25.242  0.00  0.00    -0.071 S 
ATOM     16  C   UNL     1      -3.364  -1.844  25.324  0.00  0.00    +0.008 A 
ATOM     17  C   UNL     1      -3.418  -2.570  24.936  0.00  0.00    +0.001 A 
ATOM     18  C   UNL     1      -3.811  -2.623  24.213  0.00  0.00    +0.002 A 
ATOM     19  C   UNL     1      -4.152  -1.951  23.877  0.00  0.00    +0.020 A 
ENDBRANCH   9  11
BRANCH   6   5
ATOM      5  C   UNL     1      -3.931   2.924  24.368  0.00  0.00    +0.099 C 
BRANCH   5   4
ATOM      1 CL   UNL     1      -1.329   3.813  25.145  0.00  0.00    -0.082 Cl
ATOM      2  C   UNL     1      -2.142   3.774  25.283  0.00  0.00    +0.057 A 
ATOM      3  C   UNL     1      -2.630   3.368  24.756  0.00  0.00    +0.008 A 
ATOM      4  C   UNL     1      -3.443   3.330  24.894  0.00  0.00    -0.005 A 
ATOM     20  C   UNL     1      -3.767   3.697  25.558  0.00  0.00    -0.003 A 
ATOM     21  C   UNL     1      -3.278   4.103  26.084  0.00  0.00    +0.001 A 
ATOM     22  C   UNL     1      -2.466   4.142  25.947  0.00  0.00    +0.011 A 
ENDBRANCH   5   4
ENDBRANCH   6   5
TORSDOF 3
ENDMDL
MODEL 2
REMARK VINA RESULT:     -12.4      1.939      4.948
REMARK  Name = 
REMARK  3 active torsions:
REMARK  status: ('A' for Active; 'I' for Inactive)
REMARK    1  A    between atoms: C_4  and  C_5
REMARK    2  A    between atoms: C_5  and  N_6
REMARK    3  A    between atoms: C_9  and  C_11
REMARK                            x       y       z     vdW  Elec       q    Type
REMARK                         _______ _______ _______ _____ _____    ______ ____
ROOT
ATOM      6  N   UNL     1      -3.801   0.739  24.356  0.00  0.00    -0.269 NA
ATOM      7  C   UNL     1      -3.501   0.788  23.589  0.00  0.00    +0.073 C 
ATOM      8  C   UNL     1      -3.010   1.450  23.550  0.00  0.00    +0.025 C 
ATOM      9  C   UNL     1      -3.007   1.810  24.293  0.00  0.00    +0.064 C 
ATOM     10  C   UNL     1      -3.495   1.370  24.791  0.00  0.00    +0.079 C 
ENDROOT
BRANCH   9  11
ATOM     11  C   UNL     1      -2.588   2.490  24.500  0.00  0.00    +0.089 A 
ATOM     12  N   UNL     1      -2.911   3.183  24.810  0.00  0.00    -0.243 NA
ATOM     13  C   UNL     1      -2.296   3.717  24.935  0.00  0.00    +0.087 A 
ATOM     14  C   UNL     1      -1.592   3.354  24.704  0.00  0.00    +0.048 A 
ATOM     15  S   UNL     1      -1.772   2.596  24.435  0.00  0.00    -0.071 S 
ATOM     16  C   UNL     1      -0.877   3.762  24.768  0.00  0.00    +0.008 A 
ATOM     17  C   UNL     1      -0.867   4.532  25.063  0.00  0.00    +0.001 A 
ATOM     18  C   UNL     1      -1.571   4.895  25.295  0.00  0.00    +0.002 A 
ATOM     19  C   UNL     1      -2.285   4.488  25.231  0.00  0.00    +0.020 A 
ENDBRANCH   9  11
BRANCH   6   5
ATOM      5  C   UNL     1      -4.316   0.160  24.640  0.00  0.00    +0.099 C 
BRANCH   5   4
ATOM      1 CL   UNL     1      -4.000  -2.566  23.840  0.00  0.00    -0.082 Cl
ATOM      2  C   UNL     1      -3.879  -1.964  24.392  0.00  0.00    +0.057 A 
ATOM      3  C   UNL     1      -4.158  -1.203  24.240  0.00  0.00    +0.008 A 
ATOM      4  C   UNL     1      -4.037  -0.602  24.792  0.00  0.00    -0.005 A 
ATOM     20  C   UNL     1      -3.638  -0.762  25.496  0.00  0.00    -0.003 A 
ATOM     21  C   UNL     1      -3.360  -1.524  25.648  0.00  0.00    +0.001 A 
ATOM     22  C   UNL     1      -3.480  -2.124  25.096  0.00  0.00    +0.011 A 
ENDBRANCH   5   4
ENDBRANCH   6   5
TORSDOF 3
ENDMDL
MODEL 3
REMARK VINA RESULT:     -11.7      1.769      2.332
REMARK  Name = 
REMARK  3 active torsions:
REMARK  status: ('A' for Active; 'I' for Inactive)
REMARK    1  A    between atoms: C_4  and  C_5
REMARK    2  A    between atoms: C_5  and  N_6
REMARK    3  A    between atoms: C_9  and  C_11
REMARK                            x       y       z     vdW  Elec       q    Type
REMARK                         _______ _______ _______ _____ _____    ______ ____
ROOT
ATOM      6  N   UNL     1      -0.965   1.718  25.308  0.00  0.00    -0.269 NA
ATOM      7  C   UNL     1      -0.551   1.485  24.634  0.00  0.00    +0.073 C 
ATOM      8  C   UNL     1      -0.924   0.817  24.324  0.00  0.00    +0.025 C 
ATOM      9  C   UNL     1      -1.569   0.638  24.807  0.00  0.00    +0.064 C 
ATOM     10  C   UNL     1      -1.594   1.194  25.416  0.00  0.00    +0.079 C 
ENDROOT
BRANCH   9  11
ATOM     11  C   UNL     1      -2.095   0.011  24.701  0.00  0.00    +0.089 A 
ATOM     12  N   UNL     1      -2.846   0.061  24.363  0.00  0.00    -0.243 NA
ATOM     13  C   UNL     1      -3.178  -0.694  24.367  0.00  0.00    +0.087 A 
ATOM     14  C   UNL     1      -2.632  -1.210  24.707  0.00  0.00    +0.048 A 
ATOM     15  S   UNL     1      -1.963  -0.775  24.913  0.00  0.00    -0.071 S 
ATOM     16  C   UNL     1      -2.816  -2.011  24.784  0.00  0.00    +0.008 A 
ATOM     17  C   UNL     1      -3.544  -2.295  24.522  0.00  0.00    +0.001 A 
ATOM     18  C   UNL     1      -4.090  -1.778  24.183  0.00  0.00    +0.002 A 
ATOM     19  C   UNL     1      -3.908  -0.977  24.105  0.00  0.00    +0.020 A 
ENDBRANCH   9  11
BRANCH   6   5
ATOM      5  C   UNL     1      -0.782   2.361  25.791  0.00  0.00    +0.099 C 
BRANCH   5   4
ATOM      1 CL   UNL     1      -2.823   4.347  26.033  0.00  0.00    -0.082 Cl
ATOM      2  C   UNL     1      -2.095   4.103  25.730  0.00  0.00    +0.057 A 
ATOM      3  C   UNL     1      -1.803   3.354  25.912  0.00  0.00    +0.008 A 
ATOM      4  C   UNL     1      -1.075   3.110  25.609  0.00  0.00    -0.005 A 
ATOM     20  C   UNL     1      -0.640   3.616  25.123  0.00  0.00    -0.003 A 
ATOM     21  C   UNL     1      -0.934   4.366  24.941  0.00  0.00    +0.001 A 
ATOM     22  C   UNL     1      -1.661   4.609  25.244  0.00  0.00    +0.011 A 
ENDBRANCH   5   4
ENDBRANCH   6   5
TORSDOF 3
ENDMDL
