REMARK  Name = 
REMARK  4 active torsions:
REMARK  status: ('A' for Active; 'I' for Inactive)
REMARK    1  A    between atoms: C_1  and  C_2
REMARK    2  A    between atoms: C_1  and  C_18
REMARK    3  A    between atoms: C_5  and  C_7
REMARK    4  A    between atoms: N_10  and  C_12
REMARK                            x       y       z     vdW  Elec       q    Type
REMARK                         _______ _______ _______ _____ _____    ______ ____
ROOT
ATOM      2  C   UNL     1       2.037  -1.299   0.000  0.00  0.00    +0.230 A 
ATOM      3  N   UNL     1       2.704  -1.784   0.000  0.00  0.00    -0.111 NA
ATOM      4  N   UNL     1       2.449  -2.569   0.000  0.00  0.00    -0.112 NA
ATOM      5  C   UNL     1       1.624  -2.569   0.000  0.00  0.00    +0.227 A 
ATOM      6  O   UNL     1       1.369  -1.784   0.000  0.00  0.00    -0.423 OA
ENDROOT
BRANCH   5   7
ATOM      7  C   UNL     1       1.139  -3.236   0.000  0.00  0.00    +0.095 C 
ATOM      8  C   UNL     1       1.394  -4.021   0.000  0.00  0.00    +0.028 C 
ATOM      9  C   UNL     1       0.727  -4.506   0.000  0.00  0.00    +0.073 C 
ATOM     10  N   UNL     1       0.059  -4.021   0.000  0.00  0.00    -0.273 NA
ATOM     11  C   UNL     1       0.314  -3.236   0.000  0.00  0.00    +0.081 C 
BRANCH  10  12
ATOM     12  C   UNL     1      -0.725  -4.276   0.000  0.00  0.00    +0.063 C 
ATOM     13  C   UNL     1      -0.897  -5.083   0.000  0.00  0.00    +0.048 C 
ATOM     14  C   UNL     1      -1.681  -5.338   0.000  0.00  0.00    +0.144 C 
ATOM     15  O   UNL     1      -2.295  -4.785   0.000  0.00  0.00    -0.354 OA
ATOM     16  C   UNL     1      -2.123  -3.979   0.000  0.00  0.00    +0.144 C 
ATOM     17  C   UNL     1      -1.338  -3.724   0.000  0.00  0.00    +0.048 C 
ENDBRANCH  10  12
ENDBRANCH   5   7
BRANCH   2   1
ATOM      1  C   UNL     1       2.037  -0.474   0.000  0.00  0.00    +0.113 C 
BRANCH   1  18
ATOM     18  C   UNL     1       2.751  -0.062   0.000  0.00  0.00    -0.013 A 
ATOM     19  C   UNL     1       2.751   0.763   0.000  0.00  0.00    -0.004 A 
ATOM     20  C   UNL     1       3.466   1.176   0.000  0.00  0.00    -0.000 A 
ATOM     21  C   UNL     1       4.180   0.763   0.000  0.00  0.00    -0.000 A 
ATOM     22  C   UNL     1       4.180  -0.062   0.000  0.00  0.00    -0.000 A 
ATOM     23  C   UNL     1       3.466  -0.474   0.000  0.00  0.00    -0.004 A 
ENDBRANCH   1  18
ENDBRANCH   2   1
TORSDOF 4
