MODEL 1
REMARK VINA RESULT:     -10.1      0.000      0.000
REMARK  Name = 
REMARK  3 active torsions:
REMARK  status: ('A' for Active; 'I' for Inactive)
REMARK    1  A    between atoms: C_2  and  C_3
REMARK    2  A    between atoms: C_13  and  O_15
REMARK    3  A    between atoms: O_15  and  C_16
REMARK                            x       y       z     vdW  Elec       q    Type
REMARK                         _______ _______ _______ _____ _____    ______ ____
ROOT
ATOM      1  O   UNL     1      -4.818  -0.670  24.162  0.00  0.00    -0.275 OA
ATOM      2  C   UNL     1      -4.032  -0.747  24.402  0.00  0.00    +0.225 C 
ATOM      8  N   UNL     1      -3.543  -0.083  24.431  0.00  0.00    -0.273 N 
ATOM      9  C   UNL     1      -2.768  -0.220  24.678  0.00  0.00    +0.126 C 
ATOM     10  C   UNL     1      -2.152   0.323  24.765  0.00  0.00    +0.164 C 
ATOM     11  O   UNL     1      -2.160   1.136  24.626  0.00  0.00    -0.348 OA
ATOM     12  C   UNL     1      -2.785   1.607  24.366  0.00  0.00    +0.187 C 
ATOM     13  C   UNL     1      -3.557   1.382  24.181  0.00  0.00    +0.217 C 
ATOM     14  C   UNL     1      -3.895   0.630  24.210  0.00  0.00    +0.140 C 
ENDROOT
BRANCH   2   3
ATOM      3  C   UNL     1      -3.735  -1.487  24.612  0.00  0.00    +0.077 C 
ATOM      4  C   UNL     1      -3.494  -2.079  24.090  0.00  0.00    +0.009 C 
ATOM      5  C   UNL     1      -3.236  -2.724  24.537  0.00  0.00    +0.001 C 
ATOM      6  C   UNL     1      -3.318  -2.530  25.334  0.00  0.00    +0.001 C 
ATOM      7  C   UNL     1      -3.626  -1.766  25.381  0.00  0.00    +0.009 C 
ENDBRANCH   2   3
BRANCH  13  15
ATOM     15  O   UNL     1      -4.058   1.990  23.935  0.00  0.00    -0.459 OA
BRANCH  15  16
ATOM     16  C   UNL     1      -4.337   2.540  24.482  0.00  0.00    +0.245 A 
ATOM     17  C   UNL     1      -3.947   3.261  24.579  0.00  0.00    +0.156 A 
ATOM     18  N   UNL     1      -4.226   3.811  25.126  0.00  0.00    -0.236 NA
ATOM     19  C   UNL     1      -4.897   3.642  25.576  0.00  0.00    +0.120 A 
ATOM     20  C   UNL     1      -5.288   2.922  25.479  0.00  0.00    +0.123 A 
ATOM     21  N   UNL     1      -5.008   2.372  24.932  0.00  0.00    -0.207 NA
ENDBRANCH  15  16
ENDBRANCH  13  15
TORSDOF 3
ENDMDL
MODEL 2
REMARK VINA RESULT:      -9.8      2.183      2.698
REMARK  Name = 
REMARK  3 active torsions:
REMARK  status: ('A' for Active; 'I' for Inactive)
REMARK    1  A    between atoms: C_2  and  C_3
REMARK    2  A    between atoms: C_13  and  O_15
REMARK    3  A    between atoms: O_15  and  C_16
REMARK                            x       y       z     vdW  Elec       q    Type
REMARK                         _______ _______ _______ _____ _____    ______ ____
ROOT
ATOM      1  O   UNL     1      -3.544  -0.488  25.616  0.00  0.00    -0.275 OA
ATOM      2  C   UNL     1      -3.091  -0.968  25.119  0.00  0.00    +0.225 C 
ATOM      8  N   UNL     1      -2.294  -0.795  24.995  0.00  0.00    -0.273 N 
ATOM      9  C   UNL     1      -1.891  -1.308  24.489  0.00  0.00    +0.126 C 
ATOM     10  C   UNL     1      -1.101  -1.285  24.256  0.00  0.00    +0.164 C 
ATOM     11  O   UNL     1      -0.517  -0.744  24.471  0.00  0.00    -0.348 OA
ATOM     12  C   UNL     1      -0.579  -0.092  24.972  0.00  0.00    +0.187 C 
ATOM     13  C   UNL     1      -1.242   0.180  25.382  0.00  0.00    +0.217 C 
ATOM     14  C   UNL     1      -2.005  -0.133  25.392  0.00  0.00    +0.140 C 
ENDROOT
BRANCH   2   3
ATOM      3  C   UNL     1      -3.435  -1.619  24.748  0.00  0.00    +0.077 C 
ATOM      4  C   UNL     1      -3.880  -1.601  24.052  0.00  0.00    +0.009 C 
ATOM      5  C   UNL     1      -4.115  -2.373  23.880  0.00  0.00    +0.001 C 
ATOM      6  C   UNL     1      -3.816  -2.868  24.470  0.00  0.00    +0.001 C 
ATOM      7  C   UNL     1      -3.396  -2.401  25.005  0.00  0.00    +0.009 C 
ENDBRANCH   2   3
BRANCH  13  15
ATOM     15  O   UNL     1      -1.125   0.855  25.843  0.00  0.00    -0.459 OA
BRANCH  15  16
ATOM     16  C   UNL     1      -0.982   1.581  25.480  0.00  0.00    +0.245 A 
ATOM     17  C   UNL     1      -0.209   1.864  25.413  0.00  0.00    +0.156 A 
ATOM     18  N   UNL     1      -0.066   2.591  25.050  0.00  0.00    -0.236 NA
ATOM     19  C   UNL     1      -0.695   3.035  24.755  0.00  0.00    +0.120 A 
ATOM     20  C   UNL     1      -1.467   2.754  24.822  0.00  0.00    +0.123 A 
ATOM     21  N   UNL     1      -1.610   2.027  25.185  0.00  0.00    -0.207 NA
ENDBRANCH  15  16
ENDBRANCH  13  15
TORSDOF 3
ENDMDL
MODEL 3
REMARK VINA RESULT:      -9.4      2.605      5.129
REMARK  Name = 
REMARK  3 active torsions:
REMARK  status: ('A' for Active; 'I' for Inactive)
REMARK    1  A    between atoms: C_2  and  C_3
REMARK    2  A    between atoms: C_13  and  O_15
REMARK    3  A    between atoms: O_15  and  C_16
REMARK                            x       y       z     vdW  Elec       q    Type
REMARK                         _______ _______ _______ _____ _____    ______ ____
ROOT
ATOM      1  O   UNL     1      -0.601   2.820  26.213  0.00  0.00    -0.275 OA
ATOM      2  C   UNL     1      -0.972   3.027  25.505  0.00  0.00    +0.225 C 
ATOM      8  N   UNL     1      -1.052   2.469  24.904  0.00  0.00    -0.273 N 
ATOM      9  C   UNL     1      -1.430   2.733  24.219  0.00  0.00    +0.126 C 
ATOM     10  C   UNL     1      -1.594   2.314  23.528  0.00  0.00    +0.164 C 
ATOM     11  O   UNL     1      -1.420   1.528  23.350  0.00  0.00    -0.348 OA
ATOM     12  C   UNL     1      -1.040   0.966  23.819  0.00  0.00    +0.187 C 
ATOM     13  C   UNL     1      -0.740   1.052  24.583  0.00  0.00    +0.217 C 
ATOM     14  C   UNL     1      -0.745   1.721  25.066  0.00  0.00    +0.140 C 
ENDROOT
BRANCH   2   3
ATOM      3  C   UNL     1      -1.260   3.793  25.400  0.00  0.00    +0.077 C 
ATOM      4  C   UNL     1      -2.014   4.060  25.606  0.00  0.00    +0.009 C 
ATOM      5  C   UNL     1      -2.065   4.859  25.403  0.00  0.00    +0.001 C 
ATOM      6  C   UNL     1      -1.344   5.085  25.072  0.00  0.00    +0.001 C 
ATOM      7  C   UNL     1      -0.847   4.426  25.070  0.00  0.00    +0.009 C 
ENDBRANCH   2   3
BRANCH  13  15
ATOM     15  O   UNL     1      -0.387   0.380  24.907  0.00  0.00    -0.459 OA
BRANCH  15  16
ATOM     16  C   UNL     1      -0.827  -0.312  24.998  0.00  0.00    +0.245 A 
ATOM     17  C   UNL     1      -0.705  -0.949  24.487  0.00  0.00    +0.156 A 
ATOM     18  N   UNL     1      -1.144  -1.641  24.578  0.00  0.00    -0.236 NA
ATOM     19  C   UNL     1      -1.706  -1.697  25.180  0.00  0.00    +0.120 A 
ATOM     20  C   UNL     1      -1.828  -1.061  25.690  0.00  0.00    +0.123 A 
ATOM     21  N   UNL     1      -1.389  -0.369  25.599  0.00  0.00    -0.207 NA
ENDBRANCH  15  16
ENDBRANCH  13  15
TORSDOF 3
ENDMDL
MODEL 4
REMARK VINA RESULT:      -9.4      1.121      4.211
REMARK  Name = 
REMARK  3 active torsions:
REMARK  status: ('A' for Active; 'I' for Inactive)
REMARK    1  A    between atoms: C_2  and  C_3
REMARK    2  A    between atoms: C_13  and  O_15
REMARK    3  A    between atoms: O_15  and  C_16
REMARK                            x       y       z     vdW  Elec       q    Type
REMARK                         _______ _______ _______ _____ _____    ______ ____
ROOT
ATOM      1  O   UNL     1      -5.093   1.545  24.882  0.00  0.00    -0.275 OA
ATOM      2  C   UNL     1      -4.308   1.779  24.778  0.00  0.00    +0.225 C 
ATOM      8  N   UNL     1      -3.698   1.236  24.892  0.00  0.00    -0.273 N 
ATOM      9  C   UNL     1      -2.934   1.526  24.774  0.00  0.00    +0.126 C 
ATOM     10  C   UNL     1      -2.216   1.127  24.844  0.00  0.00    +0.164 C 
ATOM     11  O   UNL     1      -2.084   0.339  25.050  0.00  0.00    -0.348 OA
ATOM     12  C   UNL     1      -2.636  -0.244  25.236  0.00  0.00    +0.187 C 
ATOM     13  C   UNL     1      -3.459  -0.183  25.263  0.00  0.00    +0.217 C 
ATOM     14  C   UNL     1      -3.931   0.476  25.110  0.00  0.00    +0.140 C 
ENDROOT
BRANCH   2   3
ATOM      3  C   UNL     1      -4.134   2.556  24.560  0.00  0.00    +0.077 C 
ATOM      4  C   UNL     1      -4.028   2.830  23.788  0.00  0.00    +0.009 C 
ATOM      5  C   UNL     1      -3.864   3.638  23.826  0.00  0.00    +0.001 C 
ATOM      6  C   UNL     1      -3.869   3.863  24.620  0.00  0.00    +0.001 C 
ATOM      7  C   UNL     1      -4.036   3.193  25.073  0.00  0.00    +0.009 C 
ENDBRANCH   2   3
BRANCH  13  15
ATOM     15  O   UNL     1      -3.862  -0.873  25.470  0.00  0.00    -0.459 OA
BRANCH  15  16
ATOM     16  C   UNL     1      -3.825  -1.534  24.979  0.00  0.00    +0.245 A 
ATOM     17  C   UNL     1      -3.369  -2.187  25.199  0.00  0.00    +0.156 A 
ATOM     18  N   UNL     1      -3.332  -2.848  24.708  0.00  0.00    -0.236 NA
ATOM     19  C   UNL     1      -3.751  -2.858  23.997  0.00  0.00    +0.120 A 
ATOM     20  C   UNL     1      -4.206  -2.207  23.777  0.00  0.00    +0.123 A 
ATOM     21  N   UNL     1      -4.243  -1.546  24.268  0.00  0.00    -0.207 NA
ENDBRANCH  15  16
ENDBRANCH  13  15
TORSDOF 3
ENDMDL
MODEL 5
REMARK VINA RESULT:      -9.4      1.712      4.322
REMARK  Name = 
REMARK  3 active torsions:
REMARK  status: ('A' for Active; 'I' for Inactive)
REMARK    1  A    between atoms: C_2  and  C_3
REMARK    2  A    between atoms: C_13  and  O_15
REMARK    3  A    between atoms: O_15  and  C_16
REMARK                            x       y       z     vdW  Elec       q    Type
REMARK                         _______ _______ _______ _____ _____    ______ ____
ROOT
ATOM      1  O   UNL     1      -3.124   3.058  25.965  0.00  0.00    -0.275 OA
ATOM      2  C   UNL     1      -2.639   3.096  25.298  0.00  0.00    +0.225 C 
ATOM      8  N   UNL     1      -2.730   2.546  24.690  0.00  0.00    -0.273 N 
ATOM      9  C   UNL     1      -2.218   2.634  24.049  0.00  0.00    +0.126 C 
ATOM     10  C   UNL     1      -2.170   2.178  23.363  0.00  0.00    +0.164 C 
ATOM     11  O   UNL     1      -2.622   1.523  23.149  0.00  0.00    -0.348 OA
ATOM     12  C   UNL     1      -3.234   1.161  23.567  0.00  0.00    +0.187 C 
ATOM     13  C   UNL     1      -3.545   1.365  24.303  0.00  0.00    +0.217 C 
ATOM     14  C   UNL     1      -3.320   1.982  24.803  0.00  0.00    +0.140 C 
ENDROOT
BRANCH   2   3
ATOM      3  C   UNL     1      -2.064   3.685  25.240  0.00  0.00    +0.077 C 
ATOM      4  C   UNL     1      -1.262   3.599  25.418  0.00  0.00    +0.009 C 
ATOM      5  C   UNL     1      -0.892   4.324  25.282  0.00  0.00    +0.001 C 
ATOM      6  C   UNL     1      -1.464   4.857  25.019  0.00  0.00    +0.001 C 
ATOM      7  C   UNL     1      -2.188   4.462  24.993  0.00  0.00    +0.009 C 
ENDBRANCH   2   3
BRANCH  13  15
ATOM     15  O   UNL     1      -4.162   0.890  24.576  0.00  0.00    -0.459 OA
BRANCH  15  16
ATOM     16  C   UNL     1      -4.028   0.091  24.733  0.00  0.00    +0.245 A 
ATOM     17  C   UNL     1      -4.244  -0.481  24.178  0.00  0.00    +0.156 A 
ATOM     18  N   UNL     1      -4.110  -1.279  24.335  0.00  0.00    -0.236 NA
ATOM     19  C   UNL     1      -3.759  -1.507  25.046  0.00  0.00    +0.120 A 
ATOM     20  C   UNL     1      -3.543  -0.936  25.601  0.00  0.00    +0.123 A 
ATOM     21  N   UNL     1      -3.677  -0.138  25.444  0.00  0.00    -0.207 NA
ENDBRANCH  15  16
ENDBRANCH  13  15
TORSDOF 3
ENDMDL
