REMARK  Name = 
REMARK  2 active torsions:
REMARK  status: ('A' for Active; 'I' for Inactive)
REMARK    1  A    between atoms: C_5  and  N_6
REMARK    2  A    between atoms: C_18  and  C_23
REMARK                            x       y       z     vdW  Elec       q    Type
REMARK                         _______ _______ _______ _____ _____    ______ ____
ROOT
ATOM      6  N   UNL     1      -0.394  -2.191   0.000  0.00  0.00    -0.162 NA
ATOM      7  C   UNL     1       0.258  -2.753   0.000  0.00  0.00    +0.327 C 
ATOM      8  O   UNL     1       0.555  -3.573   0.000  0.00  0.00    -0.250 OA
ATOM      9  N   UNL     1       0.813  -2.091   0.000  0.00  0.00    -0.262 N 
ATOM     10  C   UNL     1       1.629  -1.912   0.000  0.00  0.00    +0.097 C 
ATOM     11  C   UNL     1       1.582  -0.925   0.000  0.00  0.00    +0.043 C 
ATOM     12  C   UNL     1       1.713  -0.121   0.000  0.00  0.00    +0.011 C 
ATOM     13  C   UNL     1       1.163  -0.557   0.000  0.00  0.00    +0.058 C 
ATOM     14  C   UNL     1       1.225  -1.510   0.000  0.00  0.00    +0.101 C 
ATOM     15  C   UNL     1       0.244  -0.558   0.000  0.00  0.00    +0.041 A 
ATOM     16  C   UNL     1      -0.397  -0.039   0.000  0.00  0.00    +0.013 A 
ATOM     17  C   UNL     1      -1.167  -0.335   0.000  0.00  0.00    +0.006 A 
ATOM     18  C   UNL     1      -1.296  -1.150   0.000  0.00  0.00    +0.058 A 
ATOM     19  C   UNL     1      -0.655  -1.669   0.000  0.00  0.00    +0.261 A 
ATOM     20  O   UNL     1      -0.702  -2.603   0.000  0.00  0.00    -0.267 OA
ATOM     21  N   UNL     1       0.115  -1.373   0.000  0.00  0.00    -0.299 N 
ATOM     22  C   UNL     1       0.622  -0.936   0.000  0.00  0.00    +0.110 C 
ENDROOT
BRANCH   6   5
ATOM      1  C   UNL     1      -3.365  -4.002   0.000  0.00  0.00    +0.031 C 
ATOM      2  C   UNL     1      -2.677  -3.546   0.000  0.00  0.00    -0.022 A 
ATOM      3  C   UNL     1      -2.728  -2.723   0.000  0.00  0.00    -0.003 A 
ATOM      4  C   UNL     1      -1.875  -2.432   0.000  0.00  0.00    +0.016 A 
ATOM      5  C   UNL     1      -1.301  -2.635   0.000  0.00  0.00    +0.075 A 
ATOM     29  C   UNL     1      -1.251  -3.458   0.000  0.00  0.00    +0.016 A 
ATOM     30  C   UNL     1      -1.938  -3.914   0.000  0.00  0.00    -0.003 A 
ENDBRANCH   6   5
BRANCH  18  23
ATOM     23  C   UNL     1      -2.066  -1.445   0.000  0.00  0.00    +0.024 A 
ATOM     24  C   UNL     1      -2.707  -0.926   0.000  0.00  0.00    +0.003 A 
ATOM     25  C   UNL     1      -3.478  -1.222   0.000  0.00  0.00    +0.021 A 
ATOM     26  C   UNL     1      -3.606  -2.037   0.000  0.00  0.00    +0.099 A 
ATOM     27  N   UNL     1      -2.965  -2.556   0.000  0.00  0.00    -0.242 NA
ATOM     28  C   UNL     1      -2.195  -2.260   0.000  0.00  0.00    +0.099 A 
ENDBRANCH  18  23
TORSDOF 2
