REMARK  Name = 
REMARK  7 active torsions:
REMARK  status: ('A' for Active; 'I' for Inactive)
REMARK    1  A    between atoms: S_2  and  C_5
REMARK    2  A    between atoms: C_8  and  C_9
REMARK    3  A    between atoms: C_9  and  N_10
REMARK    4  A    between atoms: N_10  and  C_11
REMARK    5  A    between atoms: C_14  and  C_15
REMARK    6  A    between atoms: C_15  and  N_16
REMARK    7  A    between atoms: N_19  and  C_20
REMARK                            x       y       z     vdW  Elec       q    Type
REMARK                         _______ _______ _______ _____ _____    ______ ____
ROOT
ATOM     11  C   UNL     1      -1.306  -2.197   0.000  0.00  0.00    +0.135 C 
ATOM     12  C   UNL     1      -0.893  -1.483   0.000  0.00  0.00    +0.162 C 
ATOM     13  O   UNL     1      -0.086  -1.655   0.000  0.00  0.00    -0.350 OA
ATOM     14  C   UNL     1       0.000  -2.475   0.000  0.00  0.00    +0.169 C 
ATOM     26  C   UNL     1      -0.754  -2.811   0.000  0.00  0.00    +0.199 C 
ATOM     27  O   UNL     1      -0.925  -3.618   0.000  0.00  0.00    -0.219 OA
ENDROOT
BRANCH  11  10
ATOM     10  N   UNL     1      -2.126  -2.284   0.000  0.00  0.00    -0.209 NA
BRANCH  10   9
ATOM      9  C   UNL     1      -2.611  -1.616   0.000  0.00  0.00    +0.115 C 
BRANCH   9   8
ATOM      5  C   UNL     1      -5.073  -1.875   0.000  0.00  0.00    +0.106 A 
ATOM      6  C   UNL     1      -4.737  -1.121   0.000  0.00  0.00    +0.018 A 
ATOM      7  C   UNL     1      -3.917  -1.035   0.000  0.00  0.00    -0.002 A 
ATOM      8  C   UNL     1      -3.432  -1.702   0.000  0.00  0.00    -0.005 A 
ATOM     28  C   UNL     1      -3.767  -2.456   0.000  0.00  0.00    -0.002 A 
ATOM     29  C   UNL     1      -4.588  -2.542   0.000  0.00  0.00    +0.018 A 
BRANCH   5   2
ATOM      1  C   UNL     1      -6.713  -2.047   0.000  0.00  0.00    +0.182 C 
ATOM      2  S   UNL     1      -5.893  -1.961   0.000  0.00  0.00    +0.010 S 
ATOM      3  O   UNL     1      -5.807  -2.782   0.000  0.00  0.00    -0.169 OA
ATOM      4  O   UNL     1      -5.979  -1.141   0.000  0.00  0.00    -0.169 OA
ENDBRANCH   5   2
ENDBRANCH   9   8
ENDBRANCH  10   9
ENDBRANCH  11  10
BRANCH  14  15
ATOM     15  C   UNL     1       0.715  -2.888   0.000  0.00  0.00    +0.149 C 
BRANCH  15  16
ATOM     16  N   UNL     1       1.429  -2.475   0.000  0.00  0.00    -0.184 NA
ATOM     17  C   UNL     1       2.143  -2.888   0.000  0.00  0.00    +0.344 C 
ATOM     18  O   UNL     1       2.143  -3.712   0.000  0.00  0.00    -0.249 OA
ATOM     19  N   UNL     1       2.858  -2.475   0.000  0.00  0.00    -0.161 NA
BRANCH  19  20
ATOM     20  C   UNL     1       3.572  -2.888   0.000  0.00  0.00    +0.075 A 
ATOM     21  C   UNL     1       4.287  -2.475   0.000  0.00  0.00    +0.017 A 
ATOM     22  C   UNL     1       5.001  -2.888   0.000  0.00  0.00    +0.001 A 
ATOM     23  C   UNL     1       5.001  -3.712   0.000  0.00  0.00    +0.000 A 
ATOM     24  C   UNL     1       4.287  -4.125   0.000  0.00  0.00    +0.001 A 
ATOM     25  C   UNL     1       3.572  -3.712   0.000  0.00  0.00    +0.017 A 
ENDBRANCH  19  20
ENDBRANCH  15  16
ENDBRANCH  14  15
TORSDOF 7
