MODEL 1
REMARK VINA RESULT:     -10.0      0.000      0.000
REMARK  Name = 
REMARK  6 active torsions:
REMARK  status: ('A' for Active; 'I' for Inactive)
REMARK    1  A    between atoms: N_2  and  C_4
REMARK    2  A    between atoms: C_7  and  C_10
REMARK    3  A    between atoms: C_15  and  C_17
REMARK    4  A    between atoms: C_24  and  C_25
REMARK    5  A    between atoms: C_25  and  N_26
REMARK    6  A    between atoms: C_27  and  C_29
REMARK                            x       y       z     vdW  Elec       q    Type
REMARK                         _______ _______ _______ _____ _____    ______ ____
ROOT
ATOM     17  C   UNL     1      -0.568   2.556  24.287  0.00  0.00    +0.056 C 
ATOM     18  C   UNL     1      -0.563   2.386  23.528  0.00  0.00    +0.078 C 
ATOM     19  N   UNL     1      -0.078   2.052  24.106  0.00  0.00    -0.272 NA
ATOM     20  C   UNL     1      -0.336   2.494  25.021  0.00  0.00    +0.072 C 
ATOM     21  C   UNL     1      -0.252   2.555  25.666  0.00  0.00    +0.018 C 
ATOM     22  C   UNL     1      -0.089   2.223  24.849  0.00  0.00    +0.010 C 
ATOM     23  C   UNL     1       0.541   1.615  24.798  0.00  0.00    +0.018 C 
ATOM     24  C   UNL     1       0.579   1.419  24.061  0.00  0.00    +0.079 C 
ENDROOT
BRANCH  17  15
ATOM     10  C   UNL     1      -2.442   3.489  24.906  0.00  0.00    +0.084 A 
ATOM     11  N   UNL     1      -2.192   4.261  25.054  0.00  0.00    -0.231 NA
ATOM     12  C   UNL     1      -1.399   4.465  24.947  0.00  0.00    +0.139 A 
ATOM     13  C   UNL     1      -1.147   5.237  25.095  0.00  0.00    +0.074 C 
ATOM     14  N   UNL     1      -0.858   3.897  24.691  0.00  0.00    -0.235 NA
ATOM     15  C   UNL     1      -1.110   3.125  24.543  0.00  0.00    +0.063 A 
ATOM     16  C   UNL     1      -1.902   2.921  24.650  0.00  0.00    +0.034 A 
BRANCH  10   7
ATOM      4  C   UNL     1      -4.820   2.880  25.228  0.00  0.00    +0.048 A 
ATOM      5  C   UNL     1      -4.373   3.149  25.866  0.00  0.00    +0.015 A 
ATOM      6  C   UNL     1      -3.580   3.352  25.760  0.00  0.00    +0.003 A 
ATOM      7  C   UNL     1      -3.235   3.286  25.014  0.00  0.00    +0.018 A 
ATOM      8  C   UNL     1      -3.682   3.017  24.374  0.00  0.00    +0.003 A 
ATOM      9  C   UNL     1      -4.475   2.814  24.481  0.00  0.00    +0.015 A 
BRANCH   4   2
ATOM      1  C   UNL     1      -6.119   3.188  25.739  0.00  0.00    +0.112 C 
ATOM      2  N   UNL     1      -5.613   2.677  25.335  0.00  0.00    -0.304 N 
ATOM      3  C   UNL     1      -5.899   1.963  25.038  0.00  0.00    +0.112 C 
ENDBRANCH   4   2
ENDBRANCH  10   7
ENDBRANCH  17  15
BRANCH  24  25
ATOM     25  C   UNL     1       0.978   0.927  23.534  0.00  0.00    +0.131 C 
BRANCH  25  26
ATOM     26  N   UNL     1       1.803   0.940  23.501  0.00  0.00    -0.198 NA
ATOM     27  C   UNL     1       2.201   0.458  22.963  0.00  0.00    +0.300 C 
ATOM     28  O   UNL     1       1.775  -0.037  22.458  0.00  0.00    -0.265 OA
BRANCH  27  29
ATOM     29  C   UNL     1       3.025   0.471  22.929  0.00  0.00    +0.200 A 
ATOM     30  C   UNL     1       3.491   1.109  22.693  0.00  0.00    +0.046 A 
ATOM     31  C   UNL     1       4.282   0.880  22.744  0.00  0.00    +0.044 A 
ATOM     32  C   UNL     1       4.305   0.100  23.011  0.00  0.00    +0.180 A 
ATOM     33  O   UNL     1       3.528  -0.152  23.126  0.00  0.00    -0.446 OA
ENDBRANCH  27  29
ENDBRANCH  25  26
ENDBRANCH  24  25
TORSDOF 6
ENDMDL
MODEL 2
REMARK VINA RESULT:      -9.6      1.545      2.592
REMARK  Name = 
REMARK  6 active torsions:
REMARK  status: ('A' for Active; 'I' for Inactive)
REMARK    1  A    between atoms: N_2  and  C_4
REMARK    2  A    between atoms: C_7  and  C_10
REMARK    3  A    between atoms: C_15  and  C_17
REMARK    4  A    between atoms: C_24  and  C_25
REMARK    5  A    between atoms: C_25  and  N_26
REMARK    6  A    between atoms: C_27  and  C_29
REMARK                            x       y       z     vdW  Elec       q    Type
REMARK                         _______ _______ _______ _____ _____    ______ ____
ROOT
ATOM     17  C   UNL     1       0.171   0.395  24.010  0.00  0.00    +0.056 C 
ATOM     18  C   UNL     1       0.677   0.974  24.128  0.00  0.00    +0.078 C 
ATOM     19  N   UNL     1       0.756   0.361  23.581  0.00  0.00    -0.272 NA
ATOM     20  C   UNL     1      -0.092  -0.248  23.673  0.00  0.00    +0.072 C 
ATOM     21  C   UNL     1      -0.438  -0.771  23.491  0.00  0.00    +0.018 C 
ATOM     22  C   UNL     1       0.255  -0.203  23.471  0.00  0.00    +0.010 C 
ATOM     23  C   UNL     1       0.888  -0.386  22.891  0.00  0.00    +0.018 C 
ATOM     24  C   UNL     1       1.410   0.165  22.975  0.00  0.00    +0.079 C 
ENDROOT
BRANCH  17  15
ATOM     10  C   UNL     1      -1.767   0.970  24.836  0.00  0.00    +0.084 A 
ATOM     11  N   UNL     1      -1.877   0.380  25.402  0.00  0.00    -0.231 NA
ATOM     12  C   UNL     1      -1.304  -0.205  25.504  0.00  0.00    +0.139 A 
ATOM     13  C   UNL     1      -1.414  -0.795  26.071  0.00  0.00    +0.074 C 
ATOM     14  N   UNL     1      -0.622  -0.200  25.041  0.00  0.00    -0.235 NA
ATOM     15  C   UNL     1      -0.513   0.390  24.475  0.00  0.00    +0.063 A 
ATOM     16  C   UNL     1      -1.085   0.975  24.372  0.00  0.00    +0.034 A 
BRANCH  10   7
ATOM      4  C   UNL     1      -3.487   2.723  24.529  0.00  0.00    +0.048 A 
ATOM      5  C   UNL     1      -2.809   2.883  24.970  0.00  0.00    +0.015 A 
ATOM      6  C   UNL     1      -2.235   2.299  25.073  0.00  0.00    +0.003 A 
ATOM      7  C   UNL     1      -2.340   1.555  24.734  0.00  0.00    +0.018 A 
ATOM      8  C   UNL     1      -3.019   1.394  24.292  0.00  0.00    +0.003 A 
ATOM      9  C   UNL     1      -3.592   1.978  24.190  0.00  0.00    +0.015 A 
BRANCH   4   2
ATOM      1  C   UNL     1      -4.009   3.830  23.790  0.00  0.00    +0.112 C 
ATOM      2  N   UNL     1      -4.061   3.307  24.427  0.00  0.00    -0.304 N 
ATOM      3  C   UNL     1      -4.686   3.369  24.961  0.00  0.00    +0.112 C 
ENDBRANCH   4   2
ENDBRANCH  10   7
ENDBRANCH  17  15
BRANCH  24  25
ATOM     25  C   UNL     1       2.137   0.427  22.688  0.00  0.00    +0.131 C 
BRANCH  25  26
ATOM     26  N   UNL     1       2.837   0.174  23.044  0.00  0.00    -0.198 NA
ATOM     27  C   UNL     1       3.563   0.444  22.761  0.00  0.00    +0.300 C 
ATOM     28  O   UNL     1       3.590   0.966  22.122  0.00  0.00    -0.265 OA
BRANCH  27  29
ATOM     29  C   UNL     1       4.263   0.191  23.116  0.00  0.00    +0.200 A 
ATOM     30  C   UNL     1       4.931   0.655  23.257  0.00  0.00    +0.046 A 
ATOM     31  C   UNL     1       5.499   0.181  23.621  0.00  0.00    +0.044 A 
ATOM     32  C   UNL     1       5.183  -0.576  23.705  0.00  0.00    +0.180 A 
ATOM     33  O   UNL     1       4.419  -0.570  23.393  0.00  0.00    -0.446 OA
ENDBRANCH  27  29
ENDBRANCH  25  26
ENDBRANCH  24  25
TORSDOF 6
ENDMDL
MODEL 3
REMARK VINA RESULT:      -8.5      3.314      4.795
REMARK  Name = 
REMARK  6 active torsions:
REMARK  status: ('A' for Active; 'I' for Inactive)
REMARK    1  A    between atoms: N_2  and  C_4
REMARK    2  A    between atoms: C_7  and  C_10
REMARK    3  A    between atoms: C_15  and  C_17
REMARK    4  A    between atoms: C_24  and  C_25
REMARK    5  A    between atoms: C_25  and  N_26
REMARK    6  A    between atoms: C_27  and  C_29
REMARK                            x       y       z     vdW  Elec       q    Type
REMARK                         _______ _______ _______ _____ _____    ______ ____
ROOT
ATOM     17  C   UNL     1      -4.318   1.044  25.157  0.00  0.00    +0.056 C 
ATOM     18  C   UNL     1      -3.889   0.635  25.661  0.00  0.00    +0.078 C 
ATOM     19  N   UNL     1      -4.268   0.338  24.991  0.00  0.00    -0.272 NA
ATOM     20  C   UNL     1      -4.758   1.142  24.530  0.00  0.00    +0.072 C 
ATOM     21  C   UNL     1      -5.132   1.379  24.050  0.00  0.00    +0.018 C 
ATOM     22  C   UNL     1      -4.687   0.745  24.501  0.00  0.00    +0.010 C 
ATOM     23  C   UNL     1      -4.726  -0.066  24.167  0.00  0.00    +0.018 C 
ATOM     24  C   UNL     1      -4.312  -0.502  24.637  0.00  0.00    +0.079 C 
ENDROOT
BRANCH  17  15
ATOM     10  C   UNL     1      -3.848   3.166  25.359  0.00  0.00    +0.084 A 
ATOM     11  N   UNL     1      -4.579   3.467  25.593  0.00  0.00    -0.231 NA
ATOM     12  C   UNL     1      -5.224   2.960  25.683  0.00  0.00    +0.139 A 
ATOM     13  C   UNL     1      -5.956   3.260  25.918  0.00  0.00    +0.074 C 
ATOM     14  N   UNL     1      -5.137   2.153  25.537  0.00  0.00    -0.235 NA
ATOM     15  C   UNL     1      -4.405   1.852  25.303  0.00  0.00    +0.063 A 
ATOM     16  C   UNL     1      -3.761   2.359  25.213  0.00  0.00    +0.034 A 
BRANCH  10   7
ATOM      4  C   UNL     1      -1.915   4.689  25.092  0.00  0.00    +0.048 A 
ATOM      5  C   UNL     1      -2.417   4.545  24.455  0.00  0.00    +0.015 A 
ATOM      6  C   UNL     1      -3.062   4.037  24.543  0.00  0.00    +0.003 A 
ATOM      7  C   UNL     1      -3.204   3.673  25.270  0.00  0.00    +0.018 A 
ATOM      8  C   UNL     1      -2.701   3.818  25.908  0.00  0.00    +0.003 A 
ATOM      9  C   UNL     1      -2.056   4.325  25.820  0.00  0.00    +0.015 A 
BRANCH   4   2
ATOM      1  C   UNL     1      -1.386   6.013  24.996  0.00  0.00    +0.112 C 
ATOM      2  N   UNL     1      -1.270   5.196  25.004  0.00  0.00    -0.304 N 
ATOM      3  C   UNL     1      -0.510   4.887  24.924  0.00  0.00    +0.112 C 
ENDBRANCH   4   2
ENDBRANCH  10   7
ENDBRANCH  17  15
BRANCH  24  25
ATOM     25  C   UNL     1      -4.057  -1.277  24.756  0.00  0.00    +0.131 C 
BRANCH  25  26
ATOM     26  N   UNL     1      -3.270  -1.479  24.614  0.00  0.00    -0.198 NA
ATOM     27  C   UNL     1      -3.012  -2.250  24.748  0.00  0.00    +0.300 C 
ATOM     28  O   UNL     1      -3.540  -2.821  25.023  0.00  0.00    -0.265 OA
BRANCH  27  29
ATOM     29  C   UNL     1      -2.224  -2.452  24.606  0.00  0.00    +0.200 A 
ATOM     30  C   UNL     1      -1.576  -2.230  25.065  0.00  0.00    +0.046 A 
ATOM     31  C   UNL     1      -0.898  -2.552  24.723  0.00  0.00    +0.044 A 
ATOM     32  C   UNL     1      -1.127  -2.973  24.052  0.00  0.00    +0.180 A 
ATOM     33  O   UNL     1      -1.947  -2.912  23.980  0.00  0.00    -0.446 OA
ENDBRANCH  27  29
ENDBRANCH  25  26
ENDBRANCH  24  25
TORSDOF 6
ENDMDL
MODEL 4
REMARK VINA RESULT:      -8.4      2.673      3.480
REMARK  Name = 
REMARK  6 active torsions:
REMARK  status: ('A' for Active; 'I' for Inactive)
REMARK    1  A    between atoms: N_2  and  C_4
REMARK    2  A    between atoms: C_7  and  C_10
REMARK    3  A    between atoms: C_15  and  C_17
REMARK    4  A    between atoms: C_24  and  C_25
REMARK    5  A    between atoms: C_25  and  N_26
REMARK    6  A    between atoms: C_27  and  C_29
REMARK                            x       y       z     vdW  Elec       q    Type
REMARK                         _______ _______ _______ _____ _____    ______ ____
ROOT
ATOM     17  C   UNL     1      -1.359   1.429  24.824  0.00  0.00    +0.056 C 
ATOM     18  C   UNL     1      -1.649   0.996  24.246  0.00  0.00    +0.078 C 
ATOM     19  N   UNL     1      -1.158   0.731  24.855  0.00  0.00    -0.272 NA
ATOM     20  C   UNL     1      -0.947   1.558  25.465  0.00  0.00    +0.072 C 
ATOM     21  C   UNL     1      -0.652   1.818  25.986  0.00  0.00    +0.018 C 
ATOM     22  C   UNL     1      -0.878   1.162  25.418  0.00  0.00    +0.010 C 
ATOM     23  C   UNL     1      -0.550   0.368  25.597  0.00  0.00    +0.018 C 
ATOM     24  C   UNL     1      -0.814  -0.092  25.047  0.00  0.00    +0.079 C 
ENDROOT
BRANCH  17  15
ATOM     10  C   UNL     1      -2.537   3.260  24.983  0.00  0.00    +0.084 A 
ATOM     11  N   UNL     1      -1.957   3.832  24.850  0.00  0.00    -0.231 NA
ATOM     12  C   UNL     1      -1.177   3.602  24.709  0.00  0.00    +0.139 A 
ATOM     13  C   UNL     1      -0.596   4.173  24.577  0.00  0.00    +0.074 C 
ATOM     14  N   UNL     1      -0.977   2.802  24.701  0.00  0.00    -0.235 NA
ATOM     15  C   UNL     1      -1.558   2.231  24.833  0.00  0.00    +0.063 A 
ATOM     16  C   UNL     1      -2.337   2.460  24.974  0.00  0.00    +0.034 A 
BRANCH  10   7
ATOM      4  C   UNL     1      -4.876   3.950  25.404  0.00  0.00    +0.048 A 
ATOM      5  C   UNL     1      -4.331   3.941  26.022  0.00  0.00    +0.015 A 
ATOM      6  C   UNL     1      -3.551   3.711  25.883  0.00  0.00    +0.003 A 
ATOM      7  C   UNL     1      -3.316   3.490  25.123  0.00  0.00    +0.018 A 
ATOM      8  C   UNL     1      -3.862   3.500  24.504  0.00  0.00    +0.003 A 
ATOM      9  C   UNL     1      -4.642   3.730  24.644  0.00  0.00    +0.015 A 
BRANCH   4   2
ATOM      1  C   UNL     1      -6.229   3.613  25.719  0.00  0.00    +0.112 C 
ATOM      2  N   UNL     1      -5.656   4.180  25.544  0.00  0.00    -0.304 N 
ATOM      3  C   UNL     1      -5.863   4.978  25.508  0.00  0.00    +0.112 C 
ENDBRANCH   4   2
ENDBRANCH  10   7
ENDBRANCH  17  15
BRANCH  24  25
ATOM     25  C   UNL     1      -0.797  -0.872  24.783  0.00  0.00    +0.131 C 
BRANCH  25  26
ATOM     26  N   UNL     1      -1.502  -1.268  24.617  0.00  0.00    -0.198 NA
ATOM     27  C   UNL     1      -1.545  -2.087  24.707  0.00  0.00    +0.300 C 
ATOM     28  O   UNL     1      -0.885  -2.510  24.961  0.00  0.00    -0.265 OA
BRANCH  27  29
ATOM     29  C   UNL     1      -2.250  -2.482  24.541  0.00  0.00    +0.200 A 
ATOM     30  C   UNL     1      -2.938  -2.458  24.995  0.00  0.00    +0.046 A 
ATOM     31  C   UNL     1      -3.504  -2.932  24.627  0.00  0.00    +0.044 A 
ATOM     32  C   UNL     1      -3.166  -3.250  23.945  0.00  0.00    +0.180 A 
ATOM     33  O   UNL     1      -2.391  -2.971  23.892  0.00  0.00    -0.446 OA
ENDBRANCH  27  29
ENDBRANCH  25  26
ENDBRANCH  24  25
TORSDOF 6
ENDMDL
MODEL 5
REMARK VINA RESULT:      -8.0      3.424      6.881
REMARK  Name = 
REMARK  6 active torsions:
REMARK  status: ('A' for Active; 'I' for Inactive)
REMARK    1  A    between atoms: N_2  and  C_4
REMARK    2  A    between atoms: C_7  and  C_10
REMARK    3  A    between atoms: C_15  and  C_17
REMARK    4  A    between atoms: C_24  and  C_25
REMARK    5  A    between atoms: C_25  and  N_26
REMARK    6  A    between atoms: C_27  and  C_29
REMARK                            x       y       z     vdW  Elec       q    Type
REMARK                         _______ _______ _______ _____ _____    ______ ____
ROOT
ATOM     17  C   UNL     1      -3.282  -0.371  24.918  0.00  0.00    +0.056 C 
ATOM     18  C   UNL     1      -3.282   0.058  25.567  0.00  0.00    +0.078 C 
ATOM     19  N   UNL     1      -3.891   0.015  25.011  0.00  0.00    -0.272 NA
ATOM     20  C   UNL     1      -3.579  -0.647  24.261  0.00  0.00    +0.072 C 
ATOM     21  C   UNL     1      -3.689  -0.961  23.698  0.00  0.00    +0.018 C 
ATOM     22  C   UNL     1      -3.884  -0.408  24.377  0.00  0.00    +0.010 C 
ATOM     23  C   UNL     1      -4.667  -0.015  24.341  0.00  0.00    +0.018 C 
ATOM     24  C   UNL     1      -4.707   0.421  24.967  0.00  0.00    +0.079 C 
ENDROOT
BRANCH  17  15
ATOM     10  C   UNL     1      -1.256  -0.928  24.327  0.00  0.00    +0.084 A 
ATOM     11  N   UNL     1      -1.271  -1.741  24.466  0.00  0.00    -0.231 NA
ATOM     12  C   UNL     1      -1.956  -2.098  24.755  0.00  0.00    +0.139 A 
ATOM     13  C   UNL     1      -1.972  -2.912  24.894  0.00  0.00    +0.074 C 
ATOM     14  N   UNL     1      -2.626  -1.642  24.906  0.00  0.00    -0.235 NA
ATOM     15  C   UNL     1      -2.611  -0.828  24.767  0.00  0.00    +0.063 A 
ATOM     16  C   UNL     1      -1.926  -0.472  24.478  0.00  0.00    +0.034 A 
BRANCH  10   7
ATOM      4  C   UNL     1       0.802   0.138  23.458  0.00  0.00    +0.048 A 
ATOM      5  C   UNL     1       0.432   0.441  24.130  0.00  0.00    +0.015 A 
ATOM      6  C   UNL     1      -0.254   0.086  24.420  0.00  0.00    +0.003 A 
ATOM      7  C   UNL     1      -0.570  -0.573  24.038  0.00  0.00    +0.018 A 
ATOM      8  C   UNL     1      -0.201  -0.876  23.365  0.00  0.00    +0.003 A 
ATOM      9  C   UNL     1       0.485  -0.521  23.075  0.00  0.00    +0.015 A 
BRANCH   4   2
ATOM      1  C   UNL     1       1.962   0.093  22.624  0.00  0.00    +0.112 C 
ATOM      2  N   UNL     1       1.488   0.494  23.168  0.00  0.00    -0.304 N 
ATOM      3  C   UNL     1       1.700   1.249  23.423  0.00  0.00    +0.112 C 
ENDBRANCH   4   2
ENDBRANCH  10   7
ENDBRANCH  17  15
BRANCH  24  25
ATOM     25  C   UNL     1      -5.199   0.947  25.368  0.00  0.00    +0.131 C 
BRANCH  25  26
ATOM     26  N   UNL     1      -5.090   1.761  25.282  0.00  0.00    -0.198 NA
ATOM     27  C   UNL     1      -5.575   2.286  25.693  0.00  0.00    +0.300 C 
ATOM     28  O   UNL     1      -6.167   2.000  26.190  0.00  0.00    -0.265 OA
BRANCH  27  29
ATOM     29  C   UNL     1      -5.466   3.100  25.607  0.00  0.00    +0.200 A 
ATOM     30  C   UNL     1      -4.764   3.476  25.392  0.00  0.00    +0.046 A 
ATOM     31  C   UNL     1      -4.905   4.288  25.373  0.00  0.00    +0.044 A 
ATOM     32  C   UNL     1      -5.694   4.415  25.577  0.00  0.00    +0.180 A 
ATOM     33  O   UNL     1      -6.041   3.680  25.722  0.00  0.00    -0.446 OA
ENDBRANCH  27  29
ENDBRANCH  25  26
ENDBRANCH  24  25
TORSDOF 6
ENDMDL
