MODEL 1
REMARK VINA RESULT:     -12.7      0.000      0.000
REMARK  Name = 
REMARK  4 active torsions:
REMARK  status: ('A' for Active; 'I' for Inactive)
REMARK    1  A    between atoms: C_5  and  N_8
REMARK    2  A    between atoms: C_12  and  C_13
REMARK    3  A    between atoms: C_15  and  C_18
REMARK    4  A    between atoms: C_22  and  N_24
REMARK                            x       y       z     vdW  Elec       q    Type
REMARK                         _______ _______ _______ _____ _____    ______ ____
ROOT
ATOM     13  C   UNL     1      -2.628   3.561  24.588  0.00  0.00    +0.251 A 
ATOM     14  N   UNL     1      -3.078   3.053  25.056  0.00  0.00    -0.190 NA
ATOM     15  C   UNL     1      -3.543   2.590  24.558  0.00  0.00    +0.203 A 
ATOM     16  N   UNL     1      -3.381   2.811  23.780  0.00  0.00    -0.056 NA
ATOM     17  O   UNL     1      -2.815   3.411  23.798  0.00  0.00    -0.336 OA
ENDROOT
BRANCH  15  18
ATOM     18  C   UNL     1      -4.077   2.007  24.794  0.00  0.00    +0.043 A 
ATOM     19  C   UNL     1      -4.817   2.222  25.090  0.00  0.00    +0.024 A 
ATOM     20  C   UNL     1      -5.352   1.640  25.327  0.00  0.00    +0.100 A 
ATOM     21  N   UNL     1      -5.147   0.843  25.268  0.00  0.00    -0.229 NA
ATOM     22  C   UNL     1      -4.408   0.628  24.972  0.00  0.00    +0.132 A 
ATOM     23  C   UNL     1      -3.873   1.210  24.735  0.00  0.00    +0.037 A 
BRANCH  22  24
ATOM     24  N   UNL     1      -4.203  -0.169  24.913  0.00  0.00    -0.290 N 
ATOM     25  C   UNL     1      -4.378  -0.589  24.226  0.00  0.00    +0.114 C 
ATOM     26  C   UNL     1      -4.173  -1.386  24.167  0.00  0.00    +0.115 C 
ATOM     27  N   UNL     1      -3.793  -1.763  24.795  0.00  0.00    -0.276 N 
ATOM     28  C   UNL     1      -3.619  -1.342  25.483  0.00  0.00    +0.115 C 
ATOM     29  C   UNL     1      -3.824  -0.545  25.542  0.00  0.00    +0.114 C 
ATOM     30  C   UNL     1      -3.589  -2.560  24.736  0.00  0.00    +0.226 C 
ATOM     31  C   UNL     1      -3.763  -2.981  24.048  0.00  0.00    +0.095 C 
ATOM     32  O   UNL     1      -3.209  -2.936  25.365  0.00  0.00    -0.275 OA
ENDBRANCH  22  24
ENDBRANCH  15  18
BRANCH  13  12
ATOM      8  N   UNL     1      -1.282   3.993  24.991  0.00  0.00    -0.268 NA
ATOM      9  C   UNL     1      -0.953   4.700  25.259  0.00  0.00    +0.072 C 
ATOM     10  C   UNL     1      -1.553   5.264  25.293  0.00  0.00    +0.019 C 
ATOM     11  C   UNL     1      -2.254   4.906  25.045  0.00  0.00    +0.027 C 
ATOM     12  C   UNL     1      -2.086   4.120  24.859  0.00  0.00    +0.138 C 
BRANCH   8   5
ATOM      1  C   UNL     1       0.334   1.153  24.527  0.00  0.00    +0.090 C 
ATOM      2  N   UNL     1      -0.070   1.864  24.643  0.00  0.00    -0.271 NA
ATOM      3  C   UNL     1      -0.178   2.384  24.013  0.00  0.00    +0.074 C 
ATOM      4  C   UNL     1      -0.582   3.094  24.129  0.00  0.00    +0.033 C 
ATOM      5  C   UNL     1      -0.878   3.284  24.875  0.00  0.00    +0.061 C 
ATOM      6  C   UNL     1      -0.770   2.762  25.506  0.00  0.00    +0.033 C 
ATOM      7  C   UNL     1      -0.366   2.052  25.390  0.00  0.00    +0.074 C 
ENDBRANCH   8   5
ENDBRANCH  13  12
TORSDOF 4
ENDMDL
MODEL 2
REMARK VINA RESULT:     -12.4      1.362      2.955
REMARK  Name = 
REMARK  4 active torsions:
REMARK  status: ('A' for Active; 'I' for Inactive)
REMARK    1  A    between atoms: C_5  and  N_8
REMARK    2  A    between atoms: C_12  and  C_13
REMARK    3  A    between atoms: C_15  and  C_18
REMARK    4  A    between atoms: C_22  and  N_24
REMARK                            x       y       z     vdW  Elec       q    Type
REMARK                         _______ _______ _______ _____ _____    ______ ____
ROOT
ATOM     13  C   UNL     1      -1.108   3.310  25.335  0.00  0.00    +0.251 A 
ATOM     14  N   UNL     1      -1.012   2.722  24.764  0.00  0.00    -0.190 NA
ATOM     15  C   UNL     1      -0.883   2.007  25.151  0.00  0.00    +0.203 A 
ATOM     16  N   UNL     1      -0.898   2.151  25.964  0.00  0.00    -0.056 NA
ATOM     17  O   UNL     1      -1.037   2.956  26.077  0.00  0.00    -0.336 OA
ENDROOT
BRANCH  15  18
ATOM     18  C   UNL     1      -0.760   1.275  24.792  0.00  0.00    +0.043 A 
ATOM     19  C   UNL     1      -0.043   1.116  24.415  0.00  0.00    +0.024 A 
ATOM     20  C   UNL     1       0.082   0.385  24.055  0.00  0.00    +0.100 A 
ATOM     21  N   UNL     1      -0.511  -0.189  24.072  0.00  0.00    -0.229 NA
ATOM     22  C   UNL     1      -1.228  -0.031  24.448  0.00  0.00    +0.132 A 
ATOM     23  C   UNL     1      -1.352   0.701  24.808  0.00  0.00    +0.037 A 
BRANCH  22  24
ATOM     24  N   UNL     1      -1.820  -0.605  24.465  0.00  0.00    -0.290 N 
ATOM     25  C   UNL     1      -2.535  -0.470  24.078  0.00  0.00    +0.114 C 
ATOM     26  C   UNL     1      -3.128  -1.044  24.094  0.00  0.00    +0.115 C 
ATOM     27  N   UNL     1      -3.005  -1.752  24.499  0.00  0.00    -0.276 N 
ATOM     28  C   UNL     1      -2.289  -1.887  24.887  0.00  0.00    +0.115 C 
ATOM     29  C   UNL     1      -1.697  -1.313  24.870  0.00  0.00    +0.114 C 
ATOM     30  C   UNL     1      -3.598  -2.326  24.516  0.00  0.00    +0.226 C 
ATOM     31  C   UNL     1      -4.314  -2.191  24.128  0.00  0.00    +0.095 C 
ATOM     32  O   UNL     1      -3.475  -3.034  24.920  0.00  0.00    -0.275 OA
ENDBRANCH  22  24
ENDBRANCH  15  18
BRANCH  13  12
ATOM      8  N   UNL     1      -1.988   4.475  25.168  0.00  0.00    -0.268 NA
ATOM      9  C   UNL     1      -1.871   5.276  25.008  0.00  0.00    +0.072 C 
ATOM     10  C   UNL     1      -1.059   5.405  24.931  0.00  0.00    +0.019 C 
ATOM     11  C   UNL     1      -0.675   4.684  25.045  0.00  0.00    +0.027 C 
ATOM     12  C   UNL     1      -1.249   4.109  25.191  0.00  0.00    +0.138 C 
BRANCH   8   5
ATOM      1  C   UNL     1      -4.901   2.996  25.637  0.00  0.00    +0.090 C 
ATOM      2  N   UNL     1      -4.172   3.367  25.520  0.00  0.00    -0.271 NA
ATOM      3  C   UNL     1      -3.750   3.660  26.164  0.00  0.00    +0.074 C 
ATOM      4  C   UNL     1      -3.022   4.029  26.047  0.00  0.00    +0.033 C 
ATOM      5  C   UNL     1      -2.716   4.106  25.285  0.00  0.00    +0.061 C 
ATOM      6  C   UNL     1      -3.138   3.812  24.640  0.00  0.00    +0.033 C 
ATOM      7  C   UNL     1      -3.866   3.443  24.757  0.00  0.00    +0.074 C 
ENDBRANCH   8   5
ENDBRANCH  13  12
TORSDOF 4
ENDMDL
MODEL 3
REMARK VINA RESULT:     -11.6      1.436      4.943
REMARK  Name = 
REMARK  4 active torsions:
REMARK  status: ('A' for Active; 'I' for Inactive)
REMARK    1  A    between atoms: C_5  and  N_8
REMARK    2  A    between atoms: C_12  and  C_13
REMARK    3  A    between atoms: C_15  and  C_18
REMARK    4  A    between atoms: C_22  and  N_24
REMARK                            x       y       z     vdW  Elec       q    Type
REMARK                         _______ _______ _______ _____ _____    ______ ____
ROOT
ATOM     13  C   UNL     1      -3.673  -0.956  24.282  0.00  0.00    +0.251 A 
ATOM     14  N   UNL     1      -3.831  -0.343  24.812  0.00  0.00    -0.190 NA
ATOM     15  C   UNL     1      -3.987   0.339  24.377  0.00  0.00    +0.203 A 
ATOM     16  N   UNL     1      -3.925   0.149  23.576  0.00  0.00    -0.056 NA
ATOM     17  O   UNL     1      -3.731  -0.651  23.517  0.00  0.00    -0.336 OA
ENDROOT
BRANCH  15  18
ATOM     18  C   UNL     1      -4.172   1.081  24.685  0.00  0.00    +0.043 A 
ATOM     19  C   UNL     1      -4.932   1.233  24.967  0.00  0.00    +0.024 A 
ATOM     20  C   UNL     1      -5.118   1.974  25.275  0.00  0.00    +0.100 A 
ATOM     21  N   UNL     1      -4.543   2.565  25.303  0.00  0.00    -0.229 NA
ATOM     22  C   UNL     1      -3.783   2.415  25.022  0.00  0.00    +0.132 A 
ATOM     23  C   UNL     1      -3.597   1.672  24.713  0.00  0.00    +0.037 A 
BRANCH  22  24
ATOM     24  N   UNL     1      -3.208   3.005  25.050  0.00  0.00    -0.290 N 
ATOM     25  C   UNL     1      -2.409   2.803  25.057  0.00  0.00    +0.114 C 
ATOM     26  C   UNL     1      -1.834   3.394  25.084  0.00  0.00    +0.115 C 
ATOM     27  N   UNL     1      -2.058   4.187  25.105  0.00  0.00    -0.276 N 
ATOM     28  C   UNL     1      -2.858   4.390  25.098  0.00  0.00    +0.115 C 
ATOM     29  C   UNL     1      -3.433   3.799  25.070  0.00  0.00    +0.114 C 
ATOM     30  C   UNL     1      -1.483   4.778  25.133  0.00  0.00    +0.226 C 
ATOM     31  C   UNL     1      -0.683   4.576  25.140  0.00  0.00    +0.095 C 
ATOM     32  O   UNL     1      -1.708   5.572  25.153  0.00  0.00    -0.275 OA
ENDBRANCH  22  24
ENDBRANCH  15  18
BRANCH  13  12
ATOM      8  N   UNL     1      -2.736  -2.032  24.635  0.00  0.00    -0.268 NA
ATOM      9  C   UNL     1      -2.809  -2.835  24.809  0.00  0.00    +0.072 C 
ATOM     10  C   UNL     1      -3.609  -3.034  24.762  0.00  0.00    +0.019 C 
ATOM     11  C   UNL     1      -4.029  -2.354  24.559  0.00  0.00    +0.027 C 
ATOM     12  C   UNL     1      -3.490  -1.734  24.480  0.00  0.00    +0.138 C 
BRANCH   8   5
ATOM      1  C   UNL     1       0.079  -0.310  24.568  0.00  0.00    +0.090 C 
ATOM      2  N   UNL     1      -0.626  -0.741  24.585  0.00  0.00    -0.271 NA
ATOM      3  C   UNL     1      -0.911  -1.092  23.895  0.00  0.00    +0.074 C 
ATOM      4  C   UNL     1      -1.614  -1.522  23.912  0.00  0.00    +0.033 C 
ATOM      5  C   UNL     1      -2.033  -1.602  24.618  0.00  0.00    +0.061 C 
ATOM      6  C   UNL     1      -1.747  -1.250  25.309  0.00  0.00    +0.033 C 
ATOM      7  C   UNL     1      -1.044  -0.820  25.292  0.00  0.00    +0.074 C 
ENDBRANCH   8   5
ENDBRANCH  13  12
TORSDOF 4
ENDMDL
MODEL 4
REMARK VINA RESULT:     -11.2      1.284      5.763
REMARK  Name = 
REMARK  4 active torsions:
REMARK  status: ('A' for Active; 'I' for Inactive)
REMARK    1  A    between atoms: C_5  and  N_8
REMARK    2  A    between atoms: C_12  and  C_13
REMARK    3  A    between atoms: C_15  and  C_18
REMARK    4  A    between atoms: C_22  and  N_24
REMARK                            x       y       z     vdW  Elec       q    Type
REMARK                         _______ _______ _______ _____ _____    ______ ____
ROOT
ATOM     13  C   UNL     1      -2.029  -1.324  24.870  0.00  0.00    +0.251 A 
ATOM     14  N   UNL     1      -1.682  -0.765  24.373  0.00  0.00    -0.190 NA
ATOM     15  C   UNL     1      -1.133  -0.335  24.813  0.00  0.00    +0.203 A 
ATOM     16  N   UNL     1      -1.140  -0.629  25.585  0.00  0.00    -0.056 NA
ATOM     17  O   UNL     1      -1.694  -1.239  25.620  0.00  0.00    -0.336 OA
ENDROOT
BRANCH  15  18
ATOM     18  C   UNL     1      -0.660   0.280  24.533  0.00  0.00    +0.043 A 
ATOM     19  C   UNL     1       0.019   0.111  24.096  0.00  0.00    +0.024 A 
ATOM     20  C   UNL     1       0.493   0.725  23.816  0.00  0.00    +0.100 A 
ATOM     21  N   UNL     1       0.288   1.508  23.973  0.00  0.00    -0.229 NA
ATOM     22  C   UNL     1      -0.390   1.678  24.410  0.00  0.00    +0.132 A 
ATOM     23  C   UNL     1      -0.865   1.063  24.690  0.00  0.00    +0.037 A 
BRANCH  22  24
ATOM     24  N   UNL     1      -0.595   2.461  24.567  0.00  0.00    -0.290 N 
ATOM     25  C   UNL     1      -1.324   2.636  24.910  0.00  0.00    +0.114 C 
ATOM     26  C   UNL     1      -1.529   3.419  25.067  0.00  0.00    +0.115 C 
ATOM     27  N   UNL     1      -1.005   4.028  24.881  0.00  0.00    -0.276 N 
ATOM     28  C   UNL     1      -0.275   3.854  24.538  0.00  0.00    +0.115 C 
ATOM     29  C   UNL     1      -0.070   3.070  24.381  0.00  0.00    +0.114 C 
ATOM     30  C   UNL     1      -1.209   4.812  25.038  0.00  0.00    +0.226 C 
ATOM     31  C   UNL     1      -1.939   4.987  25.382  0.00  0.00    +0.095 C 
ATOM     32  O   UNL     1      -0.685   5.421  24.852  0.00  0.00    -0.275 OA
ENDBRANCH  22  24
ENDBRANCH  15  18
BRANCH  13  12
ATOM      8  N   UNL     1      -3.415  -1.718  24.583  0.00  0.00    -0.268 NA
ATOM      9  C   UNL     1      -3.787  -2.420  24.361  0.00  0.00    +0.072 C 
ATOM     10  C   UNL     1      -3.210  -3.007  24.300  0.00  0.00    +0.019 C 
ATOM     11  C   UNL     1      -2.481  -2.667  24.483  0.00  0.00    +0.027 C 
ATOM     12  C   UNL     1      -2.608  -1.870  24.658  0.00  0.00    +0.138 C 
BRANCH   8   5
ATOM      1  C   UNL     1      -4.896   1.189  25.080  0.00  0.00    +0.090 C 
ATOM      2  N   UNL     1      -4.525   0.461  24.955  0.00  0.00    -0.271 NA
ATOM      3  C   UNL     1      -4.355  -0.029  25.595  0.00  0.00    +0.074 C 
ATOM      4  C   UNL     1      -3.985  -0.756  25.471  0.00  0.00    +0.033 C 
ATOM      5  C   UNL     1      -3.785  -0.992  24.707  0.00  0.00    +0.061 C 
ATOM      6  C   UNL     1      -3.955  -0.501  24.066  0.00  0.00    +0.033 C 
ATOM      7  C   UNL     1      -4.325   0.226  24.190  0.00  0.00    +0.074 C 
ENDBRANCH   8   5
ENDBRANCH  13  12
TORSDOF 4
ENDMDL
MODEL 5
REMARK VINA RESULT:     -10.8      1.824      4.055
REMARK  Name = 
REMARK  4 active torsions:
REMARK  status: ('A' for Active; 'I' for Inactive)
REMARK    1  A    between atoms: C_5  and  N_8
REMARK    2  A    between atoms: C_12  and  C_13
REMARK    3  A    between atoms: C_15  and  C_18
REMARK    4  A    between atoms: C_22  and  N_24
REMARK                            x       y       z     vdW  Elec       q    Type
REMARK                         _______ _______ _______ _____ _____    ______ ____
ROOT
ATOM     13  C   UNL     1      -4.212   1.688  24.722  0.00  0.00    +0.251 A 
ATOM     14  N   UNL     1      -3.652   1.207  25.089  0.00  0.00    -0.190 NA
ATOM     15  C   UNL     1      -3.205   0.840  24.502  0.00  0.00    +0.203 A 
ATOM     16  N   UNL     1      -3.489   1.094  23.770  0.00  0.00    -0.056 NA
ATOM     17  O   UNL     1      -4.112   1.618  23.906  0.00  0.00    -0.336 OA
ENDROOT
BRANCH  15  18
ATOM     18  C   UNL     1      -2.584   0.311  24.623  0.00  0.00    +0.043 A 
ATOM     19  C   UNL     1      -2.707  -0.376  25.064  0.00  0.00    +0.024 A 
ATOM     20  C   UNL     1      -2.087  -0.905  25.186  0.00  0.00    +0.100 A 
ATOM     21  N   UNL     1      -1.342  -0.748  24.867  0.00  0.00    -0.229 NA
ATOM     22  C   UNL     1      -1.218  -0.061  24.426  0.00  0.00    +0.132 A 
ATOM     23  C   UNL     1      -1.839   0.468  24.305  0.00  0.00    +0.037 A 
BRANCH  22  24
ATOM     24  N   UNL     1      -0.474   0.096  24.108  0.00  0.00    -0.290 N 
ATOM     25  C   UNL     1      -0.114  -0.455  23.611  0.00  0.00    +0.114 C 
ATOM     26  C   UNL     1       0.631  -0.298  23.292  0.00  0.00    +0.115 C 
ATOM     27  N   UNL     1       1.015   0.410  23.470  0.00  0.00    -0.276 N 
ATOM     28  C   UNL     1       0.654   0.961  23.968  0.00  0.00    +0.115 C 
ATOM     29  C   UNL     1      -0.090   0.804  24.286  0.00  0.00    +0.114 C 
ATOM     30  C   UNL     1       1.760   0.567  23.151  0.00  0.00    +0.226 C 
ATOM     31  C   UNL     1       2.120   0.016  22.654  0.00  0.00    +0.095 C 
ATOM     32  O   UNL     1       2.143   1.276  23.330  0.00  0.00    -0.275 OA
ENDBRANCH  22  24
ENDBRANCH  15  18
BRANCH  13  12
ATOM      8  N   UNL     1      -4.657   2.925  25.380  0.00  0.00    -0.268 NA
ATOM      9  C   UNL     1      -5.363   3.183  25.720  0.00  0.00    +0.072 C 
ATOM     10  C   UNL     1      -5.916   2.574  25.652  0.00  0.00    +0.019 C 
ATOM     11  C   UNL     1      -5.552   1.940  25.270  0.00  0.00    +0.027 C 
ATOM     12  C   UNL     1      -4.774   2.157  25.102  0.00  0.00    +0.138 C 
BRANCH   8   5
ATOM      1  C   UNL     1      -1.858   4.661  25.170  0.00  0.00    +0.090 C 
ATOM      2  N   UNL     1      -2.559   4.226  25.223  0.00  0.00    -0.271 NA
ATOM      3  C   UNL     1      -3.078   4.202  24.582  0.00  0.00    +0.074 C 
ATOM      4  C   UNL     1      -3.777   3.768  24.635  0.00  0.00    +0.033 C 
ATOM      5  C   UNL     1      -3.958   3.359  25.328  0.00  0.00    +0.061 C 
ATOM      6  C   UNL     1      -3.439   3.383  25.969  0.00  0.00    +0.033 C 
ATOM      7  C   UNL     1      -2.739   3.817  25.916  0.00  0.00    +0.074 C 
ENDBRANCH   8   5
ENDBRANCH  13  12
TORSDOF 4
ENDMDL
MODEL 6
REMARK VINA RESULT:     -10.7      1.844      4.328
REMARK  Name = 
REMARK  4 active torsions:
REMARK  status: ('A' for Active; 'I' for Inactive)
REMARK    1  A    between atoms: C_5  and  N_8
REMARK    2  A    between atoms: C_12  and  C_13
REMARK    3  A    between atoms: C_15  and  C_18
REMARK    4  A    between atoms: C_22  and  N_24
REMARK                            x       y       z     vdW  Elec       q    Type
REMARK                         _______ _______ _______ _____ _____    ______ ____
ROOT
ATOM     13  C   UNL     1       0.007   1.416  24.485  0.00  0.00    +0.251 A 
ATOM     14  N   UNL     1      -0.602   1.950  24.327  0.00  0.00    -0.190 NA
ATOM     15  C   UNL     1      -0.668   2.460  24.971  0.00  0.00    +0.203 A 
ATOM     16  N   UNL     1      -0.099   2.242  25.528  0.00  0.00    -0.056 NA
ATOM     17  O   UNL     1       0.317   1.597  25.228  0.00  0.00    -0.336 OA
ENDROOT
BRANCH  15  18
ATOM     18  C   UNL     1      -1.206   3.081  25.046  0.00  0.00    +0.043 A 
ATOM     19  C   UNL     1      -0.940   3.862  25.033  0.00  0.00    +0.024 A 
ATOM     20  C   UNL     1      -1.477   4.483  25.108  0.00  0.00    +0.100 A 
ATOM     21  N   UNL     1      -2.281   4.323  25.196  0.00  0.00    -0.229 NA
ATOM     22  C   UNL     1      -2.549   3.543  25.210  0.00  0.00    +0.132 A 
ATOM     23  C   UNL     1      -2.011   2.921  25.135  0.00  0.00    +0.037 A 
BRANCH  22  24
ATOM     24  N   UNL     1      -3.353   3.383  25.298  0.00  0.00    -0.290 N 
ATOM     25  C   UNL     1      -3.713   2.809  24.829  0.00  0.00    +0.114 C 
ATOM     26  C   UNL     1      -4.518   2.650  24.917  0.00  0.00    +0.115 C 
ATOM     27  N   UNL     1      -4.962   3.064  25.475  0.00  0.00    -0.276 N 
ATOM     28  C   UNL     1      -4.601   3.639  25.945  0.00  0.00    +0.115 C 
ATOM     29  C   UNL     1      -3.797   3.799  25.856  0.00  0.00    +0.114 C 
ATOM     30  C   UNL     1      -5.767   2.905  25.564  0.00  0.00    +0.226 C 
ATOM     31  C   UNL     1      -6.128   2.330  25.094  0.00  0.00    +0.095 C 
ATOM     32  O   UNL     1      -6.210   3.320  26.122  0.00  0.00    -0.275 OA
ENDBRANCH  22  24
ENDBRANCH  15  18
BRANCH  13  12
ATOM      8  N   UNL     1      -0.058   0.047  23.952  0.00  0.00    -0.268 NA
ATOM      9  C   UNL     1       0.363  -0.377  23.383  0.00  0.00    +0.072 C 
ATOM     10  C   UNL     1       0.941   0.122  23.068  0.00  0.00    +0.019 C 
ATOM     11  C   UNL     1       0.877   0.854  23.443  0.00  0.00    +0.027 C 
ATOM     12  C   UNL     1       0.260   0.808  23.990  0.00  0.00    +0.138 C 
BRANCH   8   5
ATOM      1  C   UNL     1      -2.569  -1.097  25.761  0.00  0.00    +0.090 C 
ATOM      2  N   UNL     1      -1.941  -0.811  25.308  0.00  0.00    -0.271 NA
ATOM      3  C   UNL     1      -1.173  -0.835  25.607  0.00  0.00    +0.074 C 
ATOM      4  C   UNL     1      -0.545  -0.549  25.155  0.00  0.00    +0.033 C 
ATOM      5  C   UNL     1      -0.685  -0.239  24.404  0.00  0.00    +0.061 C 
ATOM      6  C   UNL     1      -1.454  -0.214  24.104  0.00  0.00    +0.033 C 
ATOM      7  C   UNL     1      -2.082  -0.500  24.557  0.00  0.00    +0.074 C 
ENDBRANCH   8   5
ENDBRANCH  13  12
TORSDOF 4
ENDMDL
MODEL 7
REMARK VINA RESULT:     -10.4      1.583      3.854
REMARK  Name = 
REMARK  4 active torsions:
REMARK  status: ('A' for Active; 'I' for Inactive)
REMARK    1  A    between atoms: C_5  and  N_8
REMARK    2  A    between atoms: C_12  and  C_13
REMARK    3  A    between atoms: C_15  and  C_18
REMARK    4  A    between atoms: C_22  and  N_24
REMARK                            x       y       z     vdW  Elec       q    Type
REMARK                         _______ _______ _______ _____ _____    ______ ____
ROOT
ATOM     13  C   UNL     1      -0.826  -0.073  24.354  0.00  0.00    +0.251 A 
ATOM     14  N   UNL     1      -1.594   0.064  24.085  0.00  0.00    -0.190 NA
ATOM     15  C   UNL     1      -2.119  -0.181  24.670  0.00  0.00    +0.203 A 
ATOM     16  N   UNL     1      -1.676  -0.471  25.304  0.00  0.00    -0.056 NA
ATOM     17  O   UNL     1      -0.877  -0.404  25.108  0.00  0.00    -0.336 OA
ENDROOT
BRANCH  15  18
ATOM     18  C   UNL     1      -2.942  -0.145  24.632  0.00  0.00    +0.043 A 
ATOM     19  C   UNL     1      -3.373  -0.806  24.390  0.00  0.00    +0.024 A 
ATOM     20  C   UNL     1      -4.196  -0.771  24.351  0.00  0.00    +0.100 A 
ATOM     21  N   UNL     1      -4.589  -0.074  24.554  0.00  0.00    -0.229 NA
ATOM     22  C   UNL     1      -4.159   0.587  24.796  0.00  0.00    +0.132 A 
ATOM     23  C   UNL     1      -3.335   0.552  24.835  0.00  0.00    +0.037 A 
BRANCH  22  24
ATOM     24  N   UNL     1      -4.551   1.284  24.999  0.00  0.00    -0.290 N 
ATOM     25  C   UNL     1      -4.263   2.010  24.737  0.00  0.00    +0.114 C 
ATOM     26  C   UNL     1      -4.656   2.707  24.940  0.00  0.00    +0.115 C 
ATOM     27  N   UNL     1      -5.337   2.676  25.405  0.00  0.00    -0.276 N 
ATOM     28  C   UNL     1      -5.625   1.949  25.667  0.00  0.00    +0.115 C 
ATOM     29  C   UNL     1      -5.233   1.252  25.464  0.00  0.00    +0.114 C 
ATOM     30  C   UNL     1      -5.730   3.373  25.608  0.00  0.00    +0.226 C 
ATOM     31  C   UNL     1      -5.441   4.101  25.346  0.00  0.00    +0.095 C 
ATOM     32  O   UNL     1      -6.411   3.342  26.072  0.00  0.00    -0.275 OA
ENDBRANCH  22  24
ENDBRANCH  15  18
BRANCH  13  12
ATOM      8  N   UNL     1       0.258   0.820  23.918  0.00  0.00    -0.268 NA
ATOM      9  C   UNL     1       0.928   0.734  23.445  0.00  0.00    +0.072 C 
ATOM     10  C   UNL     1       0.954  -0.046  23.178  0.00  0.00    +0.019 C 
ATOM     11  C   UNL     1       0.300  -0.443  23.486  0.00  0.00    +0.027 C 
ATOM     12  C   UNL     1      -0.131   0.092  23.944  0.00  0.00    +0.138 C 
BRANCH   8   5
ATOM      1  C   UNL     1      -0.702   3.585  25.442  0.00  0.00    +0.090 C 
ATOM      2  N   UNL     1      -0.462   2.893  25.060  0.00  0.00    -0.271 NA
ATOM      3  C   UNL     1      -0.019   2.330  25.468  0.00  0.00    +0.074 C 
ATOM      4  C   UNL     1       0.221   1.639  25.087  0.00  0.00    +0.033 C 
ATOM      5  C   UNL     1       0.018   1.510  24.298  0.00  0.00    +0.061 C 
ATOM      6  C   UNL     1      -0.426   2.074  23.890  0.00  0.00    +0.033 C 
ATOM      7  C   UNL     1      -0.666   2.765  24.271  0.00  0.00    +0.074 C 
ENDBRANCH   8   5
ENDBRANCH  13  12
TORSDOF 4
ENDMDL
MODEL 8
REMARK VINA RESULT:      -9.9      1.718      4.770
REMARK  Name = 
REMARK  4 active torsions:
REMARK  status: ('A' for Active; 'I' for Inactive)
REMARK    1  A    between atoms: C_5  and  N_8
REMARK    2  A    between atoms: C_12  and  C_13
REMARK    3  A    between atoms: C_15  and  C_18
REMARK    4  A    between atoms: C_22  and  N_24
REMARK                            x       y       z     vdW  Elec       q    Type
REMARK                         _______ _______ _______ _____ _____    ______ ____
ROOT
ATOM     13  C   UNL     1      -3.636   1.688  24.540  0.00  0.00    +0.251 A 
ATOM     14  N   UNL     1      -2.940   1.703  24.983  0.00  0.00    -0.190 NA
ATOM     15  C   UNL     1      -2.310   1.826  24.467  0.00  0.00    +0.203 A 
ATOM     16  N   UNL     1      -2.614   1.887  23.703  0.00  0.00    -0.056 NA
ATOM     17  O   UNL     1      -3.434   1.802  23.747  0.00  0.00    -0.336 OA
ENDROOT
BRANCH  15  18
ATOM     18  C   UNL     1      -1.513   1.878  24.677  0.00  0.00    +0.043 A 
ATOM     19  C   UNL     1      -1.290   2.308  25.345  0.00  0.00    +0.024 A 
ATOM     20  C   UNL     1      -0.495   2.361  25.555  0.00  0.00    +0.100 A 
ATOM     21  N   UNL     1       0.079   1.984  25.097  0.00  0.00    -0.229 NA
ATOM     22  C   UNL     1      -0.143   1.554  24.429  0.00  0.00    +0.132 A 
ATOM     23  C   UNL     1      -0.940   1.501  24.219  0.00  0.00    +0.037 A 
BRANCH  22  24
ATOM     24  N   UNL     1       0.430   1.177  23.971  0.00  0.00    -0.290 N 
ATOM     25  C   UNL     1       1.167   1.530  23.863  0.00  0.00    +0.114 C 
ATOM     26  C   UNL     1       1.741   1.153  23.405  0.00  0.00    +0.115 C 
ATOM     27  N   UNL     1       1.577   0.424  23.055  0.00  0.00    -0.276 N 
ATOM     28  C   UNL     1       0.838   0.072  23.163  0.00  0.00    +0.115 C 
ATOM     29  C   UNL     1       0.265   0.449  23.621  0.00  0.00    +0.114 C 
ATOM     30  C   UNL     1       2.150   0.047  22.597  0.00  0.00    +0.226 C 
ATOM     31  C   UNL     1       2.889   0.400  22.488  0.00  0.00    +0.095 C 
ATOM     32  O   UNL     1       1.985  -0.682  22.247  0.00  0.00    -0.275 OA
ENDBRANCH  22  24
ENDBRANCH  15  18
BRANCH  13  12
ATOM      8  N   UNL     1      -4.761   0.854  24.986  0.00  0.00    -0.268 NA
ATOM      9  C   UNL     1      -5.519   1.004  25.274  0.00  0.00    +0.072 C 
ATOM     10  C   UNL     1      -5.625   1.822  25.300  0.00  0.00    +0.019 C 
ATOM     11  C   UNL     1      -4.932   2.178  25.028  0.00  0.00    +0.027 C 
ATOM     12  C   UNL     1      -4.398   1.579  24.834  0.00  0.00    +0.138 C 
BRANCH   8   5
ATOM      1  C   UNL     1      -3.414  -2.123  24.522  0.00  0.00    +0.090 C 
ATOM      2  N   UNL     1      -3.751  -1.378  24.638  0.00  0.00    -0.271 NA
ATOM      3  C   UNL     1      -3.698  -1.012  25.375  0.00  0.00    +0.074 C 
ATOM      4  C   UNL     1      -4.035  -0.268  25.491  0.00  0.00    +0.033 C 
ATOM      5  C   UNL     1      -4.424   0.111  24.870  0.00  0.00    +0.061 C 
ATOM      6  C   UNL     1      -4.477  -0.256  24.132  0.00  0.00    +0.033 C 
ATOM      7  C   UNL     1      -4.140  -1.000  24.016  0.00  0.00    +0.074 C 
ENDBRANCH   8   5
ENDBRANCH  13  12
TORSDOF 4
ENDMDL
