REMARK  Name = 
REMARK  8 active torsions:
REMARK  status: ('A' for Active; 'I' for Inactive)
REMARK    1  A    between atoms: C_2  and  C_4
REMARK    2  A    between atoms: C_6  and  C_7
REMARK    3  A    between atoms: C_7  and  C_8
REMARK    4  A    between atoms: N_10  and  C_11
REMARK    5  A    between atoms: C_19  and  C_20
REMARK    6  A    between atoms: C_20  and  N_21
REMARK    7  A    between atoms: C_22  and  C_24
REMARK    8  A    between atoms: C_27  and  C_30
REMARK                            x       y       z     vdW  Elec       q    Type
REMARK                         _______ _______ _______ _____ _____    ______ ____
ROOT
ATOM      4  C   UNL     1       2.858  -2.475   0.000  0.00  0.00    +0.006 C 
ATOM      5  C   UNL     1       3.572  -2.888   0.000  0.00  0.00    +0.005 C 
ATOM      6  C   UNL     1       3.572  -3.712   0.000  0.00  0.00    +0.027 C 
ATOM     16  C   UNL     1       2.858  -4.125   0.000  0.00  0.00    -0.048 C 
ATOM     17  C   UNL     1       2.858  -4.950   0.000  0.00  0.00    +0.026 C 
ATOM     18  C   UNL     1       2.143  -3.712   0.000  0.00  0.00    -0.033 C 
ATOM     19  C   UNL     1       2.143  -2.888   0.000  0.00  0.00    +0.043 C 
ENDROOT
BRANCH   4   2
ATOM      1  C   UNL     1       2.143  -1.238   0.000  0.00  0.00    +0.000 C 
ATOM      2  C   UNL     1       2.858  -1.650   0.000  0.00  0.00    +0.000 C 
ATOM      3  C   UNL     1       3.572  -1.238   0.000  0.00  0.00    +0.000 C 
ENDBRANCH   4   2
BRANCH   6   7
ATOM      7  C   UNL     1       4.287  -4.125   0.000  0.00  0.00    +0.091 C 
BRANCH   7   8
ATOM      8  C   UNL     1       4.287  -4.950   0.000  0.00  0.00    +0.242 C 
ATOM      9  O   UNL     1       3.572  -5.362   0.000  0.00  0.00    -0.273 OA
ATOM     10  N   UNL     1       5.001  -5.362   0.000  0.00  0.00    -0.207 NA
BRANCH  10  11
ATOM     11  C   UNL     1       5.001  -6.188   0.000  0.00  0.00    +0.095 C 
ATOM     12  C   UNL     1       5.669  -6.672   0.000  0.00  0.00    +0.022 C 
ATOM     13  C   UNL     1       5.414  -7.457   0.000  0.00  0.00    +0.002 C 
ATOM     14  C   UNL     1       4.589  -7.457   0.000  0.00  0.00    +0.002 C 
ATOM     15  C   UNL     1       4.334  -6.672   0.000  0.00  0.00    +0.022 C 
ENDBRANCH  10  11
ENDBRANCH   7   8
ENDBRANCH   6   7
BRANCH  19  20
ATOM     20  C   UNL     1       1.429  -2.475   0.000  0.00  0.00    +0.120 C 
BRANCH  20  21
ATOM     21  N   UNL     1       1.429  -1.650   0.000  0.00  0.00    -0.201 NA
ATOM     22  C   UNL     1       0.715  -1.238   0.000  0.00  0.00    +0.265 C 
ATOM     23  O   UNL     1       0.000  -1.650   0.000  0.00  0.00    -0.268 OA
BRANCH  22  24
ATOM     24  C   UNL     1       0.715  -0.412   0.000  0.00  0.00    +0.055 A 
ATOM     25  C   UNL     1       0.000   0.000   0.000  0.00  0.00    +0.005 A 
ATOM     26  C   UNL     1       0.000   0.825   0.000  0.00  0.00    +0.010 A 
ATOM     27  C   UNL     1       0.715   1.238   0.000  0.00  0.00    +0.068 A 
ATOM     28  C   UNL     1       1.429   0.825   0.000  0.00  0.00    +0.010 A 
ATOM     29  C   UNL     1       1.429   0.000   0.000  0.00  0.00    +0.005 A 
BRANCH  27  30
ATOM     30  C   UNL     1       0.715   2.062   0.000  0.00  0.00    +0.100 C 
ATOM     31  N   UNL     1       0.715   2.888   0.000  0.00  0.00    -0.191 NA
ENDBRANCH  27  30
ENDBRANCH  22  24
ENDBRANCH  20  21
ENDBRANCH  19  20
TORSDOF 8
