MODEL 1
REMARK VINA RESULT:     -11.7      0.000      0.000
REMARK  Name = 
REMARK  5 active torsions:
REMARK  status: ('A' for Active; 'I' for Inactive)
REMARK    1  A    between atoms: C_3  and  C_4
REMARK    2  A    between atoms: C_4  and  N_5
REMARK    3  A    between atoms: C_6  and  C_8
REMARK    4  A    between atoms: C_16  and  N_17
REMARK    5  A    between atoms: N_17  and  C_18
REMARK                            x       y       z     vdW  Elec       q    Type
REMARK                         _______ _______ _______ _____ _____    ______ ____
ROOT
ATOM      1  O   UNL     1      -4.902   1.302  25.411  0.00  0.00    -0.219 OA
ATOM      2  C   UNL     1      -4.248   1.145  24.934  0.00  0.00    +0.199 C 
ATOM      3  C   UNL     1      -3.639   1.672  24.758  0.00  0.00    +0.169 C 
ATOM     14  O   UNL     1      -3.102   1.285  24.264  0.00  0.00    -0.350 OA
ATOM     15  C   UNL     1      -3.380   0.519  24.135  0.00  0.00    +0.162 C 
ATOM     16  C   UNL     1      -4.089   0.432  24.549  0.00  0.00    +0.135 C 
ENDROOT
BRANCH   3   4
ATOM      4  C   UNL     1      -3.576   2.449  25.028  0.00  0.00    +0.148 C 
BRANCH   4   5
ATOM      5  N   UNL     1      -2.870   2.865  24.929  0.00  0.00    -0.199 NA
ATOM      6  C   UNL     1      -2.753   3.578  25.326  0.00  0.00    +0.265 C 
ATOM      7  O   UNL     1      -3.341   3.876  25.822  0.00  0.00    -0.268 OA
BRANCH   6   8
ATOM      8  C   UNL     1      -2.047   3.994  25.227  0.00  0.00    +0.058 A 
ATOM      9  C   UNL     1      -1.326   3.594  25.243  0.00  0.00    +0.025 A 
ATOM     10  C   UNL     1      -0.621   4.011  25.144  0.00  0.00    +0.099 A 
ATOM     11  N   UNL     1      -0.637   4.827  25.030  0.00  0.00    -0.242 NA
ATOM     12  C   UNL     1      -1.359   5.228  25.014  0.00  0.00    +0.099 A 
ATOM     13  C   UNL     1      -2.064   4.811  25.113  0.00  0.00    +0.025 A 
ENDBRANCH   6   8
ENDBRANCH   4   5
ENDBRANCH   3   4
BRANCH  16  17
ATOM     17  N   UNL     1      -4.555  -0.247  24.574  0.00  0.00    -0.216 NA
BRANCH  17  18
ATOM     18  C   UNL     1      -4.201  -0.992  24.586  0.00  0.00    +0.073 C 
ATOM     19  C   UNL     1      -4.239  -1.478  23.921  0.00  0.00    +0.023 C 
ATOM     20  C   UNL     1      -3.884  -2.223  23.932  0.00  0.00    +0.068 C 
ATOM     21  C   UNL     1      -3.491  -2.481  24.610  0.00  0.00    +0.264 C 
ATOM     22  F   UNL     1      -3.379  -3.136  24.121  0.00  0.00    -0.204 F 
ATOM     23  F   UNL     1      -3.059  -2.967  25.117  0.00  0.00    -0.204 F 
ATOM     24  C   UNL     1      -3.452  -1.995  25.275  0.00  0.00    +0.068 C 
ATOM     25  C   UNL     1      -3.807  -1.250  25.263  0.00  0.00    +0.023 C 
ENDBRANCH  17  18
ENDBRANCH  16  17
TORSDOF 5
ENDMDL
MODEL 2
REMARK VINA RESULT:     -11.1      1.769      2.115
REMARK  Name = 
REMARK  5 active torsions:
REMARK  status: ('A' for Active; 'I' for Inactive)
REMARK    1  A    between atoms: C_3  and  C_4
REMARK    2  A    between atoms: C_4  and  N_5
REMARK    3  A    between atoms: C_6  and  C_8
REMARK    4  A    between atoms: C_16  and  N_17
REMARK    5  A    between atoms: N_17  and  C_18
REMARK                            x       y       z     vdW  Elec       q    Type
REMARK                         _______ _______ _______ _____ _____    ______ ____
ROOT
ATOM      1  O   UNL     1      -1.278  -0.190  26.379  0.00  0.00    -0.219 OA
ATOM      2  C   UNL     1      -1.403  -0.072  25.572  0.00  0.00    +0.199 C 
ATOM      3  C   UNL     1      -1.178   0.593  25.139  0.00  0.00    +0.169 C 
ATOM     14  O   UNL     1      -1.411   0.477  24.356  0.00  0.00    -0.350 OA
ATOM     15  C   UNL     1      -1.781  -0.258  24.305  0.00  0.00    +0.162 C 
ATOM     16  C   UNL     1      -1.776  -0.598  25.057  0.00  0.00    +0.135 C 
ENDROOT
BRANCH   3   4
ATOM      4  C   UNL     1      -0.787   1.256  25.436  0.00  0.00    +0.148 C 
BRANCH   4   5
ATOM      5  N   UNL     1      -1.099   2.009  25.310  0.00  0.00    -0.199 NA
ATOM      6  C   UNL     1      -0.704   2.673  25.599  0.00  0.00    +0.265 C 
ATOM      7  O   UNL     1       0.003   2.584  26.015  0.00  0.00    -0.268 OA
BRANCH   6   8
ATOM      8  C   UNL     1      -1.016   3.427  25.472  0.00  0.00    +0.058 A 
ATOM      9  C   UNL     1      -0.591   3.981  25.034  0.00  0.00    +0.025 A 
ATOM     10  C   UNL     1      -0.903   4.734  24.908  0.00  0.00    +0.099 A 
ATOM     11  N   UNL     1      -1.640   4.933  25.221  0.00  0.00    -0.242 NA
ATOM     12  C   UNL     1      -2.065   4.379  25.660  0.00  0.00    +0.099 A 
ATOM     13  C   UNL     1      -1.753   3.625  25.786  0.00  0.00    +0.025 A 
ENDBRANCH   6   8
ENDBRANCH   4   5
ENDBRANCH   3   4
BRANCH  16  17
ATOM     17  N   UNL     1      -2.089  -1.334  25.259  0.00  0.00    -0.216 NA
BRANCH  17  18
ATOM     18  C   UNL     1      -2.752  -1.623  24.863  0.00  0.00    +0.073 C 
ATOM     19  C   UNL     1      -3.465  -1.210  24.895  0.00  0.00    +0.023 C 
ATOM     20  C   UNL     1      -4.128  -1.500  24.499  0.00  0.00    +0.068 C 
ATOM     21  C   UNL     1      -4.078  -2.203  24.071  0.00  0.00    +0.264 C 
ATOM     22  F   UNL     1      -4.870  -2.011  23.938  0.00  0.00    -0.204 F 
ATOM     23  F   UNL     1      -4.303  -2.839  23.597  0.00  0.00    -0.204 F 
ATOM     24  C   UNL     1      -3.365  -2.617  24.039  0.00  0.00    +0.068 C 
ATOM     25  C   UNL     1      -2.702  -2.327  24.435  0.00  0.00    +0.023 C 
ENDBRANCH  17  18
ENDBRANCH  16  17
TORSDOF 5
ENDMDL
MODEL 3
REMARK VINA RESULT:     -11.0      2.921      5.945
REMARK  Name = 
REMARK  5 active torsions:
REMARK  status: ('A' for Active; 'I' for Inactive)
REMARK    1  A    between atoms: C_3  and  C_4
REMARK    2  A    between atoms: C_4  and  N_5
REMARK    3  A    between atoms: C_6  and  C_8
REMARK    4  A    between atoms: C_16  and  N_17
REMARK    5  A    between atoms: N_17  and  C_18
REMARK                            x       y       z     vdW  Elec       q    Type
REMARK                         _______ _______ _______ _____ _____    ______ ____
ROOT
ATOM      1  O   UNL     1      -0.671   1.016  25.901  0.00  0.00    -0.219 OA
ATOM      2  C   UNL     1      -1.282   1.318  25.435  0.00  0.00    +0.199 C 
ATOM      3  C   UNL     1      -1.733   0.892  24.891  0.00  0.00    +0.169 C 
ATOM     14  O   UNL     1      -2.279   1.410  24.552  0.00  0.00    -0.350 OA
ATOM     15  C   UNL     1      -2.165   2.156  24.887  0.00  0.00    +0.162 C 
ATOM     16  C   UNL     1      -1.549   2.099  25.433  0.00  0.00    +0.135 C 
ENDROOT
BRANCH   3   4
ATOM      4  C   UNL     1      -1.652   0.090  24.717  0.00  0.00    +0.148 C 
BRANCH   4   5
ATOM      5  N   UNL     1      -2.322  -0.383  24.629  0.00  0.00    -0.199 NA
ATOM      6  C   UNL     1      -2.240  -1.188  24.471  0.00  0.00    +0.265 C 
ATOM      7  O   UNL     1      -1.489  -1.521  24.401  0.00  0.00    -0.268 OA
BRANCH   6   8
ATOM      8  C   UNL     1      -2.911  -1.662  24.384  0.00  0.00    +0.058 A 
ATOM      9  C   UNL     1      -3.546  -1.398  23.930  0.00  0.00    +0.025 A 
ATOM     10  C   UNL     1      -4.216  -1.872  23.843  0.00  0.00    +0.099 A 
ATOM     11  N   UNL     1      -4.250  -2.609  24.210  0.00  0.00    -0.242 NA
ATOM     12  C   UNL     1      -3.614  -2.874  24.665  0.00  0.00    +0.099 A 
ATOM     13  C   UNL     1      -2.944  -2.400  24.752  0.00  0.00    +0.025 A 
ENDBRANCH   6   8
ENDBRANCH   4   5
ENDBRANCH   3   4
BRANCH  16  17
ATOM     17  N   UNL     1      -1.253   2.714  25.895  0.00  0.00    -0.216 NA
BRANCH  17  18
ATOM     18  C   UNL     1      -1.245   3.485  25.601  0.00  0.00    +0.073 C 
ATOM     19  C   UNL     1      -0.598   3.754  25.166  0.00  0.00    +0.023 C 
ATOM     20  C   UNL     1      -0.590   4.525  24.872  0.00  0.00    +0.068 C 
ATOM     21  C   UNL     1      -1.229   5.026  25.013  0.00  0.00    +0.264 C 
ATOM     22  F   UNL     1      -0.746   5.531  24.574  0.00  0.00    -0.204 F 
ATOM     23  F   UNL     1      -1.701   5.703  25.001  0.00  0.00    -0.204 F 
ATOM     24  C   UNL     1      -1.877   4.757  25.447  0.00  0.00    +0.068 C 
ATOM     25  C   UNL     1      -1.885   3.986  25.741  0.00  0.00    +0.023 C 
ENDBRANCH  17  18
ENDBRANCH  16  17
TORSDOF 5
ENDMDL
