MODEL 1
REMARK VINA RESULT:      -8.7      0.000      0.000
REMARK  Name = 
REMARK  4 active torsions:
REMARK  status: ('A' for Active; 'I' for Inactive)
REMARK    1  A    between atoms: N_2  and  C_4
REMARK    2  A    between atoms: C_7  and  C_8
REMARK    3  A    between atoms: C_8  and  N_9
REMARK    4  A    between atoms: C_10  and  C_12
REMARK                            x       y       z     vdW  Elec       q    Type
REMARK                         _______ _______ _______ _____ _____    ______ ____
ROOT
ATOM      4  C   UNL     1      -4.175   2.550  24.840  0.00  0.00    +0.121 C 
ATOM      5  C   UNL     1      -4.838   2.079  24.702  0.00  0.00    +0.161 C 
ATOM      6  O   UNL     1      -4.584   1.297  24.630  0.00  0.00    -0.350 OA
ATOM      7  C   UNL     1      -3.764   1.285  24.723  0.00  0.00    +0.168 C 
ATOM     17  C   UNL     1      -3.512   2.060  24.853  0.00  0.00    +0.198 C 
ATOM     18  O   UNL     1      -2.732   2.301  24.974  0.00  0.00    -0.219 OA
ENDROOT
BRANCH   4   2
ATOM      1  C   UNL     1      -3.984   3.866  24.317  0.00  0.00    +0.090 C 
ATOM      2  N   UNL     1      -4.175   3.368  24.946  0.00  0.00    -0.267 NA
ATOM      3  C   UNL     1      -4.367   3.688  25.682  0.00  0.00    +0.090 C 
ENDBRANCH   4   2
BRANCH   7   8
ATOM      8  C   UNL     1      -3.282   0.617  24.691  0.00  0.00    +0.147 C 
BRANCH   8   9
ATOM      9  N   UNL     1      -3.616  -0.128  24.576  0.00  0.00    -0.203 NA
ATOM     10  C   UNL     1      -3.131  -0.792  24.507  0.00  0.00    +0.241 C 
ATOM     11  O   UNL     1      -2.312  -0.710  24.554  0.00  0.00    -0.273 OA
BRANCH  10  12
ATOM     12  C   UNL     1      -3.466  -1.537  24.392  0.00  0.00    +0.078 C 
ATOM     13  C   UNL     1      -4.056  -1.723  23.846  0.00  0.00    +0.009 C 
ATOM     14  C   UNL     1      -4.226  -2.527  23.918  0.00  0.00    +0.001 C 
ATOM     15  C   UNL     1      -3.741  -2.838  24.509  0.00  0.00    +0.001 C 
ATOM     16  C   UNL     1      -3.272  -2.226  24.802  0.00  0.00    +0.009 C 
ENDBRANCH  10  12
ENDBRANCH   8   9
ENDBRANCH   7   8
TORSDOF 4
ENDMDL
MODEL 2
REMARK VINA RESULT:      -8.7      1.847      2.370
REMARK  Name = 
REMARK  4 active torsions:
REMARK  status: ('A' for Active; 'I' for Inactive)
REMARK    1  A    between atoms: N_2  and  C_4
REMARK    2  A    between atoms: C_7  and  C_8
REMARK    3  A    between atoms: C_8  and  N_9
REMARK    4  A    between atoms: C_10  and  C_12
REMARK                            x       y       z     vdW  Elec       q    Type
REMARK                         _______ _______ _______ _____ _____    ______ ____
ROOT
ATOM      4  C   UNL     1      -1.004   1.768  24.836  0.00  0.00    +0.121 C 
ATOM      5  C   UNL     1      -0.714   1.057  24.534  0.00  0.00    +0.161 C 
ATOM      6  O   UNL     1      -1.326   0.504  24.552  0.00  0.00    -0.350 OA
ATOM      7  C   UNL     1      -1.995   0.873  24.864  0.00  0.00    +0.168 C 
ATOM     17  C   UNL     1      -1.795   1.654  25.040  0.00  0.00    +0.198 C 
ATOM     18  O   UNL     1      -2.299   2.223  25.363  0.00  0.00    -0.219 OA
ENDROOT
BRANCH   4   2
ATOM      1  C   UNL     1      -0.179   2.629  25.624  0.00  0.00    +0.090 C 
ATOM      2  N   UNL     1      -0.577   2.469  24.919  0.00  0.00    -0.267 NA
ATOM      3  C   UNL     1      -0.549   3.011  24.297  0.00  0.00    +0.090 C 
ENDBRANCH   4   2
BRANCH   7   8
ATOM      8  C   UNL     1      -2.732   0.524  24.981  0.00  0.00    +0.147 C 
BRANCH   8   9
ATOM      9  N   UNL     1      -2.879  -0.235  24.694  0.00  0.00    -0.203 NA
ATOM     10  C   UNL     1      -3.587  -0.617  24.880  0.00  0.00    +0.241 C 
ATOM     11  O   UNL     1      -4.146  -0.240  25.353  0.00  0.00    -0.273 OA
BRANCH  10  12
ATOM     12  C   UNL     1      -3.732  -1.376  24.593  0.00  0.00    +0.078 C 
ATOM     13  C   UNL     1      -4.180  -1.564  23.926  0.00  0.00    +0.009 C 
ATOM     14  C   UNL     1      -4.182  -2.385  23.841  0.00  0.00    +0.001 C 
ATOM     15  C   UNL     1      -3.734  -2.705  24.456  0.00  0.00    +0.001 C 
ATOM     16  C   UNL     1      -3.457  -2.081  24.920  0.00  0.00    +0.009 C 
ENDBRANCH  10  12
ENDBRANCH   8   9
ENDBRANCH   7   8
TORSDOF 4
ENDMDL
MODEL 3
REMARK VINA RESULT:      -8.3      1.284      4.504
REMARK  Name = 
REMARK  4 active torsions:
REMARK  status: ('A' for Active; 'I' for Inactive)
REMARK    1  A    between atoms: N_2  and  C_4
REMARK    2  A    between atoms: C_7  and  C_8
REMARK    3  A    between atoms: C_8  and  N_9
REMARK    4  A    between atoms: C_10  and  C_12
REMARK                            x       y       z     vdW  Elec       q    Type
REMARK                         _______ _______ _______ _____ _____    ______ ____
ROOT
ATOM      4  C   UNL     1      -3.382  -1.469  24.969  0.00  0.00    +0.121 C 
ATOM      5  C   UNL     1      -3.215  -1.094  25.685  0.00  0.00    +0.161 C 
ATOM      6  O   UNL     1      -3.651  -0.394  25.715  0.00  0.00    -0.350 OA
ATOM      7  C   UNL     1      -4.088  -0.336  25.017  0.00  0.00    +0.168 C 
ATOM     17  C   UNL     1      -3.921  -1.000  24.557  0.00  0.00    +0.198 C 
ATOM     18  O   UNL     1      -4.239  -1.166  23.813  0.00  0.00    -0.219 OA
ENDROOT
BRANCH   4   2
ATOM      1  C   UNL     1      -3.535  -2.863  24.702  0.00  0.00    +0.090 C 
ATOM      2  N   UNL     1      -3.066  -2.186  24.711  0.00  0.00    -0.267 NA
ATOM      3  C   UNL     1      -2.280  -2.223  24.462  0.00  0.00    +0.090 C 
ENDBRANCH   4   2
BRANCH   7   8
ATOM      8  C   UNL     1      -4.600   0.279  24.816  0.00  0.00    +0.147 C 
BRANCH   8   9
ATOM      9  N   UNL     1      -4.368   1.062  24.926  0.00  0.00    -0.203 NA
ATOM     10  C   UNL     1      -4.917   1.672  24.831  0.00  0.00    +0.241 C 
ATOM     11  O   UNL     1      -5.696   1.497  24.625  0.00  0.00    -0.273 OA
BRANCH  10  12
ATOM     12  C   UNL     1      -4.684   2.455  24.941  0.00  0.00    +0.078 C 
ATOM     13  C   UNL     1      -4.921   2.948  25.559  0.00  0.00    +0.009 C 
ATOM     14  C   UNL     1      -4.558   3.682  25.454  0.00  0.00    +0.001 C 
ATOM     15  C   UNL     1      -4.095   3.642  24.772  0.00  0.00    +0.001 C 
ATOM     16  C   UNL     1      -4.174   2.884  24.455  0.00  0.00    +0.009 C 
ENDBRANCH  10  12
ENDBRANCH   8   9
ENDBRANCH   7   8
TORSDOF 4
ENDMDL
MODEL 4
REMARK VINA RESULT:      -8.1      2.235      4.931
REMARK  Name = 
REMARK  4 active torsions:
REMARK  status: ('A' for Active; 'I' for Inactive)
REMARK    1  A    between atoms: N_2  and  C_4
REMARK    2  A    between atoms: C_7  and  C_8
REMARK    3  A    between atoms: C_8  and  N_9
REMARK    4  A    between atoms: C_10  and  C_12
REMARK                            x       y       z     vdW  Elec       q    Type
REMARK                         _______ _______ _______ _____ _____    ______ ____
ROOT
ATOM      4  C   UNL     1      -2.222  -0.379  24.866  0.00  0.00    +0.121 C 
ATOM      5  C   UNL     1      -2.493   0.127  24.273  0.00  0.00    +0.161 C 
ATOM      6  O   UNL     1      -2.148   0.867  24.392  0.00  0.00    -0.350 OA
ATOM      7  C   UNL     1      -1.664   0.820  25.058  0.00  0.00    +0.168 C 
ATOM     17  C   UNL     1      -1.710   0.049  25.350  0.00  0.00    +0.198 C 
ATOM     18  O   UNL     1      -1.312  -0.241  26.013  0.00  0.00    -0.219 OA
ENDROOT
BRANCH   4   2
ATOM      1  C   UNL     1      -1.956  -1.761  24.622  0.00  0.00    +0.090 C 
ATOM      2  N   UNL     1      -2.426  -1.173  24.958  0.00  0.00    -0.267 NA
ATOM      3  C   UNL     1      -3.101  -1.377  25.386  0.00  0.00    +0.090 C 
ENDBRANCH   4   2
BRANCH   7   8
ATOM      8  C   UNL     1      -1.214   1.433  25.375  0.00  0.00    +0.147 C 
BRANCH   8   9
ATOM      9  N   UNL     1      -1.425   2.217  25.231  0.00  0.00    -0.203 NA
ATOM     10  C   UNL     1      -0.982   2.831  25.559  0.00  0.00    +0.241 C 
ATOM     11  O   UNL     1      -0.328   2.660  26.032  0.00  0.00    -0.273 OA
BRANCH  10  12
ATOM     12  C   UNL     1      -1.193   3.615  25.414  0.00  0.00    +0.078 C 
ATOM     13  C   UNL     1      -0.745   4.168  24.998  0.00  0.00    +0.009 C 
ATOM     14  C   UNL     1      -1.164   4.879  24.986  0.00  0.00    +0.001 C 
ATOM     15  C   UNL     1      -1.872   4.765  25.395  0.00  0.00    +0.001 C 
ATOM     16  C   UNL     1      -1.890   3.983  25.659  0.00  0.00    +0.009 C 
ENDBRANCH  10  12
ENDBRANCH   8   9
ENDBRANCH   7   8
TORSDOF 4
ENDMDL
