MODEL 1
REMARK VINA RESULT:     -11.2      0.000      0.000
REMARK  Name = 
REMARK  4 active torsions:
REMARK  status: ('A' for Active; 'I' for Inactive)
REMARK    1  A    between atoms: C_2  and  C_3
REMARK    2  A    between atoms: C_8  and  C_9
REMARK    3  A    between atoms: C_9  and  C_10
REMARK    4  A    between atoms: N_20  and  C_21
REMARK                            x       y       z     vdW  Elec       q    Type
REMARK                         _______ _______ _______ _____ _____    ______ ____
ROOT
ATOM      3  C   UNL     1      -4.545   1.696  24.903  0.00  0.00    +0.020 C 
ATOM      4  C   UNL     1      -4.411   0.889  24.799  0.00  0.00    +0.095 C 
ATOM      5  N   UNL     1      -3.772   0.631  24.344  0.00  0.00    -0.263 N 
ATOM      6  C   UNL     1      -3.267   1.181  23.994  0.00  0.00    +0.095 C 
ATOM      7  C   UNL     1      -3.401   1.990  24.098  0.00  0.00    +0.022 C 
ATOM      8  C   UNL     1      -4.040   2.246  24.553  0.00  0.00    +0.012 C 
ATOM     18  C   UNL     1      -3.639  -0.176  24.240  0.00  0.00    +0.323 C 
ATOM     19  O   UNL     1      -3.000  -0.433  23.786  0.00  0.00    -0.251 OA
ATOM     20  N   UNL     1      -4.144  -0.726  24.591  0.00  0.00    -0.190 NA
ENDROOT
BRANCH  20  21
ATOM     21  C   UNL     1      -4.010  -1.534  24.486  0.00  0.00    +0.097 C 
ATOM     22  C   UNL     1      -3.534  -1.946  25.020  0.00  0.00    +0.022 C 
ATOM     23  C   UNL     1      -3.401  -2.752  24.916  0.00  0.00    +0.002 C 
ATOM     24  C   UNL     1      -3.743  -3.148  24.279  0.00  0.00    +0.000 C 
ATOM     25  C   UNL     1      -4.219  -2.736  23.745  0.00  0.00    +0.002 C 
ATOM     26  C   UNL     1      -4.353  -1.929  23.849  0.00  0.00    +0.022 C 
ENDBRANCH  20  21
BRANCH   3   2
ATOM      1  C   UNL     1      -5.916   1.583  25.288  0.00  0.00    +0.000 C 
ATOM      2  C   UNL     1      -5.183   1.954  25.357  0.00  0.00    +0.002 C 
ENDBRANCH   3   2
BRANCH   8   9
ATOM      9  C   UNL     1      -4.173   3.054  24.657  0.00  0.00    +0.087 C 
BRANCH   9  10
ATOM     10  C   UNL     1      -3.554   3.591  24.560  0.00  0.00    +0.247 C 
ATOM     11  O   UNL     1      -3.420   3.936  23.823  0.00  0.00    -0.273 OA
ATOM     12  N   UNL     1      -3.070   3.781  25.200  0.00  0.00    -0.154 NA
ATOM     13  C   UNL     1      -2.451   4.318  25.103  0.00  0.00    +0.186 A 
ATOM     14  N   UNL     1      -2.250   4.705  24.403  0.00  0.00    -0.221 NA
ATOM     15  C   UNL     1      -1.598   5.188  24.556  0.00  0.00    +0.108 A 
ATOM     16  C   UNL     1      -1.397   5.099  25.351  0.00  0.00    +0.059 A 
ATOM     17  S   UNL     1      -1.924   4.561  25.689  0.00  0.00    -0.049 S 
ENDBRANCH   9  10
ENDBRANCH   8   9
TORSDOF 4
ENDMDL
MODEL 2
REMARK VINA RESULT:     -11.1      1.857      5.475
REMARK  Name = 
REMARK  4 active torsions:
REMARK  status: ('A' for Active; 'I' for Inactive)
REMARK    1  A    between atoms: C_2  and  C_3
REMARK    2  A    between atoms: C_8  and  C_9
REMARK    3  A    between atoms: C_9  and  C_10
REMARK    4  A    between atoms: N_20  and  C_21
REMARK                            x       y       z     vdW  Elec       q    Type
REMARK                         _______ _______ _______ _____ _____    ______ ____
ROOT
ATOM      3  C   UNL     1      -4.061   1.593  24.759  0.00  0.00    +0.020 C 
ATOM      4  C   UNL     1      -3.516   2.211  24.785  0.00  0.00    +0.095 C 
ATOM      5  N   UNL     1      -2.718   2.052  24.923  0.00  0.00    -0.263 N 
ATOM      6  C   UNL     1      -2.466   1.275  25.036  0.00  0.00    +0.095 C 
ATOM      7  C   UNL     1      -3.012   0.656  25.010  0.00  0.00    +0.022 C 
ATOM      8  C   UNL     1      -3.809   0.815  24.872  0.00  0.00    +0.012 C 
ATOM     18  C   UNL     1      -2.173   2.670  24.949  0.00  0.00    +0.323 C 
ATOM     19  O   UNL     1      -1.375   2.511  25.087  0.00  0.00    -0.251 OA
ATOM     20  N   UNL     1      -2.425   3.447  24.837  0.00  0.00    -0.190 NA
ENDROOT
BRANCH  20  21
ATOM     21  C   UNL     1      -1.879   4.066  24.862  0.00  0.00    +0.097 C 
ATOM     22  C   UNL     1      -1.148   3.988  24.489  0.00  0.00    +0.022 C 
ATOM     23  C   UNL     1      -0.603   4.606  24.515  0.00  0.00    +0.002 C 
ATOM     24  C   UNL     1      -0.789   5.303  24.914  0.00  0.00    +0.000 C 
ATOM     25  C   UNL     1      -1.520   5.381  25.288  0.00  0.00    +0.002 C 
ATOM     26  C   UNL     1      -2.066   4.763  25.262  0.00  0.00    +0.022 C 
ENDBRANCH  20  21
BRANCH   3   2
ATOM      1  C   UNL     1      -5.210   2.422  24.948  0.00  0.00    +0.000 C 
ATOM      2  C   UNL     1      -4.859   1.751  24.621  0.00  0.00    +0.002 C 
ENDBRANCH   3   2
BRANCH   8   9
ATOM      9  C   UNL     1      -4.355   0.196  24.846  0.00  0.00    +0.087 C 
BRANCH   9  10
ATOM     10  C   UNL     1      -4.101  -0.582  24.946  0.00  0.00    +0.247 C 
ATOM     11  O   UNL     1      -3.779  -0.821  25.667  0.00  0.00    -0.273 OA
ATOM     12  N   UNL     1      -4.169  -1.121  24.326  0.00  0.00    -0.154 NA
ATOM     13  C   UNL     1      -3.915  -1.899  24.426  0.00  0.00    +0.186 A 
ATOM     14  N   UNL     1      -3.584  -2.217  25.111  0.00  0.00    -0.221 NA
ATOM     15  C   UNL     1      -3.412  -3.011  24.967  0.00  0.00    +0.108 A 
ATOM     16  C   UNL     1      -3.637  -3.184  24.192  0.00  0.00    +0.059 A 
ATOM     17  S   UNL     1      -3.948  -2.497  23.858  0.00  0.00    -0.049 S 
ENDBRANCH   9  10
ENDBRANCH   8   9
TORSDOF 4
ENDMDL
MODEL 3
REMARK VINA RESULT:      -9.9      1.819      2.524
REMARK  Name = 
REMARK  4 active torsions:
REMARK  status: ('A' for Active; 'I' for Inactive)
REMARK    1  A    between atoms: C_2  and  C_3
REMARK    2  A    between atoms: C_8  and  C_9
REMARK    3  A    between atoms: C_9  and  C_10
REMARK    4  A    between atoms: N_20  and  C_21
REMARK                            x       y       z     vdW  Elec       q    Type
REMARK                         _______ _______ _______ _____ _____    ______ ____
ROOT
ATOM      3  C   UNL     1      -0.988   0.775  24.744  0.00  0.00    +0.020 C 
ATOM      4  C   UNL     1      -1.516   0.149  24.648  0.00  0.00    +0.095 C 
ATOM      5  N   UNL     1      -2.278   0.200  24.958  0.00  0.00    -0.263 N 
ATOM      6  C   UNL     1      -2.513   0.879  25.365  0.00  0.00    +0.095 C 
ATOM      7  C   UNL     1      -1.985   1.506  25.461  0.00  0.00    +0.022 C 
ATOM      8  C   UNL     1      -1.223   1.454  25.150  0.00  0.00    +0.012 C 
ATOM     18  C   UNL     1      -2.806  -0.426  24.862  0.00  0.00    +0.323 C 
ATOM     19  O   UNL     1      -3.569  -0.375  25.173  0.00  0.00    -0.251 OA
ATOM     20  N   UNL     1      -2.571  -1.105  24.456  0.00  0.00    -0.190 NA
ENDROOT
BRANCH  20  21
ATOM     21  C   UNL     1      -3.099  -1.732  24.360  0.00  0.00    +0.097 C 
ATOM     22  C   UNL     1      -3.741  -1.656  23.847  0.00  0.00    +0.022 C 
ATOM     23  C   UNL     1      -4.268  -2.283  23.752  0.00  0.00    +0.002 C 
ATOM     24  C   UNL     1      -4.154  -2.985  24.168  0.00  0.00    +0.000 C 
ATOM     25  C   UNL     1      -3.512  -3.061  24.681  0.00  0.00    +0.002 C 
ATOM     26  C   UNL     1      -2.984  -2.434  24.777  0.00  0.00    +0.022 C 
ENDBRANCH  20  21
BRANCH   3   2
ATOM      1  C   UNL     1      -0.032   0.119  23.908  0.00  0.00    +0.000 C 
ATOM      2  C   UNL     1      -0.225   0.724  24.433  0.00  0.00    +0.002 C 
ENDBRANCH   3   2
BRANCH   8   9
ATOM      9  C   UNL     1      -0.695   2.081  25.246  0.00  0.00    +0.087 C 
BRANCH   9  10
ATOM     10  C   UNL     1      -0.979   2.851  25.329  0.00  0.00    +0.247 C 
ATOM     11  O   UNL     1      -1.572   3.014  25.880  0.00  0.00    -0.273 OA
ATOM     12  N   UNL     1      -0.672   3.457  24.862  0.00  0.00    -0.154 NA
ATOM     13  C   UNL     1      -0.956   4.227  24.945  0.00  0.00    +0.186 A 
ATOM     14  N   UNL     1      -1.544   4.473  25.469  0.00  0.00    -0.221 NA
ATOM     15  C   UNL     1      -1.654   5.284  25.367  0.00  0.00    +0.108 A 
ATOM     16  C   UNL     1      -1.134   5.540  24.779  0.00  0.00    +0.059 A 
ATOM     17  S   UNL     1      -0.703   4.886  24.518  0.00  0.00    -0.049 S 
ENDBRANCH   9  10
ENDBRANCH   8   9
TORSDOF 4
ENDMDL
MODEL 4
REMARK VINA RESULT:      -9.4      3.123      4.602
REMARK  Name = 
REMARK  4 active torsions:
REMARK  status: ('A' for Active; 'I' for Inactive)
REMARK    1  A    between atoms: C_2  and  C_3
REMARK    2  A    between atoms: C_8  and  C_9
REMARK    3  A    between atoms: C_9  and  C_10
REMARK    4  A    between atoms: N_20  and  C_21
REMARK                            x       y       z     vdW  Elec       q    Type
REMARK                         _______ _______ _______ _____ _____    ______ ____
ROOT
ATOM      3  C   UNL     1      -1.867   0.029  24.866  0.00  0.00    +0.020 C 
ATOM      4  C   UNL     1      -2.540   0.500  24.940  0.00  0.00    +0.095 C 
ATOM      5  N   UNL     1      -2.657   1.136  24.427  0.00  0.00    -0.263 N 
ATOM      6  C   UNL     1      -2.101   1.301  23.841  0.00  0.00    +0.095 C 
ATOM      7  C   UNL     1      -1.427   0.830  23.767  0.00  0.00    +0.022 C 
ATOM      8  C   UNL     1      -1.310   0.194  24.280  0.00  0.00    +0.012 C 
ATOM     18  C   UNL     1      -3.330   1.607  24.501  0.00  0.00    +0.323 C 
ATOM     19  O   UNL     1      -3.447   2.243  23.989  0.00  0.00    -0.251 OA
ATOM     20  N   UNL     1      -3.887   1.442  25.087  0.00  0.00    -0.190 NA
ENDROOT
BRANCH  20  21
ATOM     21  C   UNL     1      -4.561   1.913  25.161  0.00  0.00    +0.097 C 
ATOM     22  C   UNL     1      -4.502   2.669  25.486  0.00  0.00    +0.022 C 
ATOM     23  C   UNL     1      -5.175   3.139  25.560  0.00  0.00    +0.002 C 
ATOM     24  C   UNL     1      -5.907   2.854  25.309  0.00  0.00    +0.000 C 
ATOM     25  C   UNL     1      -5.965   2.098  24.983  0.00  0.00    +0.002 C 
ATOM     26  C   UNL     1      -5.292   1.627  24.909  0.00  0.00    +0.022 C 
ENDBRANCH  20  21
BRANCH   3   2
ATOM      1  C   UNL     1      -2.397  -1.024  25.674  0.00  0.00    +0.000 C 
ATOM      2  C   UNL     1      -1.750  -0.607  25.378  0.00  0.00    +0.002 C 
ENDBRANCH   3   2
BRANCH   8   9
ATOM      9  C   UNL     1      -0.636  -0.277  24.206  0.00  0.00    +0.087 C 
BRANCH   9  10
ATOM     10  C   UNL     1       0.069   0.052  23.933  0.00  0.00    +0.247 C 
ATOM     11  O   UNL     1       0.336   0.770  24.241  0.00  0.00    -0.273 OA
ATOM     12  N   UNL     1       0.507  -0.336  23.352  0.00  0.00    -0.154 NA
ATOM     13  C   UNL     1       1.212  -0.007  23.079  0.00  0.00    +0.186 A 
ATOM     14  N   UNL     1       1.547   0.702  23.333  0.00  0.00    -0.221 NA
ATOM     15  C   UNL     1       2.249   0.818  22.914  0.00  0.00    +0.108 A 
ATOM     16  C   UNL     1       2.348   0.180  22.401  0.00  0.00    +0.059 A 
ATOM     17  S   UNL     1       1.707  -0.330  22.502  0.00  0.00    -0.049 S 
ENDBRANCH   9  10
ENDBRANCH   8   9
TORSDOF 4
ENDMDL
MODEL 5
REMARK VINA RESULT:      -8.9      2.677      6.049
REMARK  Name = 
REMARK  4 active torsions:
REMARK  status: ('A' for Active; 'I' for Inactive)
REMARK    1  A    between atoms: C_2  and  C_3
REMARK    2  A    between atoms: C_8  and  C_9
REMARK    3  A    between atoms: C_9  and  C_10
REMARK    4  A    between atoms: N_20  and  C_21
REMARK                            x       y       z     vdW  Elec       q    Type
REMARK                         _______ _______ _______ _____ _____    ______ ____
ROOT
ATOM      3  C   UNL     1      -0.691   0.590  24.326  0.00  0.00    +0.020 C 
ATOM      4  C   UNL     1      -0.799   1.398  24.451  0.00  0.00    +0.095 C 
ATOM      5  N   UNL     1      -1.214   1.661  25.114  0.00  0.00    -0.263 N 
ATOM      6  C   UNL     1      -1.521   1.116  25.651  0.00  0.00    +0.095 C 
ATOM      7  C   UNL     1      -1.413   0.307  25.526  0.00  0.00    +0.022 C 
ATOM      8  C   UNL     1      -0.998   0.045  24.863  0.00  0.00    +0.012 C 
ATOM     18  C   UNL     1      -1.321   2.469  25.239  0.00  0.00    +0.323 C 
ATOM     19  O   UNL     1      -1.736   2.733  25.902  0.00  0.00    -0.251 OA
ATOM     20  N   UNL     1      -1.014   3.014  24.702  0.00  0.00    -0.190 NA
ENDROOT
BRANCH  20  21
ATOM     21  C   UNL     1      -1.122   3.823  24.827  0.00  0.00    +0.097 C 
ATOM     22  C   UNL     1      -1.874   4.119  24.991  0.00  0.00    +0.022 C 
ATOM     23  C   UNL     1      -1.982   4.927  25.116  0.00  0.00    +0.002 C 
ATOM     24  C   UNL     1      -1.337   5.439  25.077  0.00  0.00    +0.000 C 
ATOM     25  C   UNL     1      -0.585   5.144  24.913  0.00  0.00    +0.002 C 
ATOM     26  C   UNL     1      -0.476   4.336  24.788  0.00  0.00    +0.022 C 
ENDBRANCH  20  21
BRANCH   3   2
ATOM      1  C   UNL     1       0.393   0.734  23.406  0.00  0.00    +0.000 C 
ATOM      2  C   UNL     1      -0.276   0.326  23.663  0.00  0.00    +0.002 C 
ENDBRANCH   3   2
BRANCH   8   9
ATOM      9  C   UNL     1      -0.890  -0.764  24.738  0.00  0.00    +0.087 C 
BRANCH   9  10
ATOM     10  C   UNL     1      -1.489  -1.296  24.937  0.00  0.00    +0.247 C 
ATOM     11  O   UNL     1      -1.578  -1.542  25.720  0.00  0.00    -0.273 OA
ATOM     12  N   UNL     1      -1.998  -1.580  24.354  0.00  0.00    -0.154 NA
ATOM     13  C   UNL     1      -2.596  -2.112  24.554  0.00  0.00    +0.186 A 
ATOM     14  N   UNL     1      -2.752  -2.407  25.308  0.00  0.00    -0.221 NA
ATOM     15  C   UNL     1      -3.397  -2.920  25.254  0.00  0.00    +0.108 A 
ATOM     16  C   UNL     1      -3.639  -2.942  24.465  0.00  0.00    +0.059 A 
ATOM     17  S   UNL     1      -3.145  -2.443  24.032  0.00  0.00    -0.049 S 
ENDBRANCH   9  10
ENDBRANCH   8   9
TORSDOF 4
ENDMDL
MODEL 6
REMARK VINA RESULT:      -7.9      3.319      4.491
REMARK  Name = 
REMARK  4 active torsions:
REMARK  status: ('A' for Active; 'I' for Inactive)
REMARK    1  A    between atoms: C_2  and  C_3
REMARK    2  A    between atoms: C_8  and  C_9
REMARK    3  A    between atoms: C_9  and  C_10
REMARK    4  A    between atoms: N_20  and  C_21
REMARK                            x       y       z     vdW  Elec       q    Type
REMARK                         _______ _______ _______ _____ _____    ______ ____
ROOT
ATOM      3  C   UNL     1      -1.836  -0.244  24.631  0.00  0.00    +0.020 C 
ATOM      4  C   UNL     1      -1.105  -0.172  24.257  0.00  0.00    +0.095 C 
ATOM      5  N   UNL     1      -0.909   0.528  23.865  0.00  0.00    -0.263 N 
ATOM      6  C   UNL     1      -1.445   1.154  23.847  0.00  0.00    +0.095 C 
ATOM      7  C   UNL     1      -2.178   1.082  24.221  0.00  0.00    +0.022 C 
ATOM      8  C   UNL     1      -2.372   0.382  24.613  0.00  0.00    +0.012 C 
ATOM     18  C   UNL     1      -0.178   0.600  23.491  0.00  0.00    +0.323 C 
ATOM     19  O   UNL     1       0.018   1.299  23.099  0.00  0.00    -0.251 OA
ATOM     20  N   UNL     1       0.359  -0.026  23.508  0.00  0.00    -0.190 NA
ENDROOT
BRANCH  20  21
ATOM     21  C   UNL     1       1.091   0.046  23.134  0.00  0.00    +0.097 C 
ATOM     22  C   UNL     1       1.212  -0.299  22.395  0.00  0.00    +0.022 C 
ATOM     23  C   UNL     1       1.944  -0.226  22.021  0.00  0.00    +0.002 C 
ATOM     24  C   UNL     1       2.554   0.191  22.386  0.00  0.00    +0.000 C 
ATOM     25  C   UNL     1       2.432   0.536  23.126  0.00  0.00    +0.002 C 
ATOM     26  C   UNL     1       1.701   0.464  23.500  0.00  0.00    +0.022 C 
ENDBRANCH  20  21
BRANCH   3   2
ATOM      1  C   UNL     1      -1.754  -1.667  24.741  0.00  0.00    +0.000 C 
ATOM      2  C   UNL     1      -2.032  -0.944  25.023  0.00  0.00    +0.002 C 
ENDBRANCH   3   2
BRANCH   8   9
ATOM      9  C   UNL     1      -3.105   0.310  24.987  0.00  0.00    +0.087 C 
BRANCH   9  10
ATOM     10  C   UNL     1      -3.572   0.978  25.113  0.00  0.00    +0.247 C 
ATOM     11  O   UNL     1      -3.224   1.682  25.366  0.00  0.00    -0.273 OA
ATOM     12  N   UNL     1      -4.386   0.942  24.985  0.00  0.00    -0.154 NA
ATOM     13  C   UNL     1      -4.853   1.610  25.111  0.00  0.00    +0.186 A 
ATOM     14  N   UNL     1      -4.585   2.349  25.362  0.00  0.00    -0.221 NA
ATOM     15  C   UNL     1      -5.237   2.852  25.413  0.00  0.00    +0.108 A 
ATOM     16  C   UNL     1      -5.908   2.425  25.194  0.00  0.00    +0.059 A 
ATOM     17  S   UNL     1      -5.670   1.657  25.006  0.00  0.00    -0.049 S 
ENDBRANCH   9  10
ENDBRANCH   8   9
TORSDOF 4
ENDMDL
