MODEL 1
REMARK VINA RESULT:     -12.1      0.000      0.000
REMARK  Name = 
REMARK  6 active torsions:
REMARK  status: ('A' for Active; 'I' for Inactive)
REMARK    1  A    between atoms: C_2  and  C_4
REMARK    2  A    between atoms: C_4  and  C_5
REMARK    3  A    between atoms: C_7  and  C_25
REMARK    4  A    between atoms: N_11  and  C_12
REMARK    5  A    between atoms: C_12  and  C_13
REMARK    6  A    between atoms: N_27  and  C_28
REMARK                            x       y       z     vdW  Elec       q    Type
REMARK                         _______ _______ _______ _____ _____    ______ ____
ROOT
ATOM      5  C   UNL     1      -3.628  -0.181  24.899  0.00  0.00    +0.095 C 
ATOM      6  N   UNL     1      -2.831  -0.391  24.878  0.00  0.00    -0.207 NA
ATOM      7  C   UNL     1      -2.169   0.103  24.869  0.00  0.00    +0.155 C 
ATOM      8  C   UNL     1      -2.142   0.927  24.879  0.00  0.00    +0.055 C 
ATOM      9  C   UNL     1      -2.769   1.462  24.899  0.00  0.00    -0.002 A 
ATOM     10  C   UNL     1      -2.669   2.281  24.907  0.00  0.00    +0.072 A 
ATOM     11  N   UNL     1      -3.416   2.630  24.928  0.00  0.00    -0.320 N 
ATOM     19  C   UNL     1      -3.979   2.027  24.933  0.00  0.00    +0.060 A 
ATOM     20  C   UNL     1      -3.579   1.305  24.916  0.00  0.00    +0.011 A 
ATOM     21  C   UNL     1      -3.961   0.573  24.915  0.00  0.00    -0.005 A 
ATOM     22  C   UNL     1      -4.828   0.612  24.935  0.00  0.00    -0.003 A 
ATOM     23  C   UNL     1      -5.229   1.333  24.953  0.00  0.00    +0.001 A 
ATOM     24  C   UNL     1      -4.803   2.041  24.952  0.00  0.00    +0.017 A 
ENDROOT
BRANCH   7  25
ATOM     25  C   UNL     1      -1.438  -0.280  24.848  0.00  0.00    +0.257 C 
ATOM     26  O   UNL     1      -1.122  -0.604  25.539  0.00  0.00    -0.272 OA
ATOM     27  N   UNL     1      -1.023  -0.338  24.138  0.00  0.00    -0.206 NA
BRANCH  27  28
ATOM     28  C   UNL     1      -0.292  -0.721  24.118  0.00  0.00    +0.095 C 
ATOM     29  C   UNL     1       0.505  -0.726  23.908  0.00  0.00    +0.023 C 
ATOM     30  C   UNL     1       0.176  -1.377  24.292  0.00  0.00    +0.023 C 
ENDBRANCH  27  28
ENDBRANCH   7  25
BRANCH   5   4
ATOM      4  C   UNL     1      -4.163  -0.809  24.903  0.00  0.00    +0.022 C 
BRANCH   4   2
ATOM      1  C   UNL     1      -4.066  -1.589  23.709  0.00  0.00    +0.000 C 
ATOM      2  C   UNL     1      -3.970  -1.517  24.525  0.00  0.00    +0.002 C 
ATOM      3  C   UNL     1      -3.681  -2.153  24.965  0.00  0.00    +0.000 C 
ENDBRANCH   4   2
ENDBRANCH   5   4
BRANCH  11  12
ATOM     12  C   UNL     1      -3.574   3.439  24.941  0.00  0.00    +0.155 C 
BRANCH  12  13
ATOM     13  C   UNL     1      -3.009   3.965  25.231  0.00  0.00    +0.123 A 
ATOM     14  N   UNL     1      -2.911   4.186  26.021  0.00  0.00    -0.080 NA
ATOM     15  O   UNL     1      -2.284   4.720  26.060  0.00  0.00    -0.358 OA
ATOM     16  C   UNL     1      -1.994   4.830  25.296  0.00  0.00    +0.155 A 
ATOM     17  C   UNL     1      -1.366   5.321  25.081  0.00  0.00    +0.075 C 
ATOM     18  C   UNL     1      -2.442   4.364  24.784  0.00  0.00    +0.056 A 
ENDBRANCH  12  13
ENDBRANCH  11  12
TORSDOF 6
ENDMDL
MODEL 2
REMARK VINA RESULT:     -12.0      1.819      3.030
REMARK  Name = 
REMARK  6 active torsions:
REMARK  status: ('A' for Active; 'I' for Inactive)
REMARK    1  A    between atoms: C_2  and  C_4
REMARK    2  A    between atoms: C_4  and  C_5
REMARK    3  A    between atoms: C_7  and  C_25
REMARK    4  A    between atoms: N_11  and  C_12
REMARK    5  A    between atoms: C_12  and  C_13
REMARK    6  A    between atoms: N_27  and  C_28
REMARK                            x       y       z     vdW  Elec       q    Type
REMARK                         _______ _______ _______ _____ _____    ______ ____
ROOT
ATOM      5  C   UNL     1      -4.599   1.891  24.671  0.00  0.00    +0.095 C 
ATOM      6  N   UNL     1      -4.532   1.069  24.688  0.00  0.00    -0.207 NA
ATOM      7  C   UNL     1      -3.847   0.610  24.712  0.00  0.00    +0.155 C 
ATOM      8  C   UNL     1      -3.061   0.859  24.725  0.00  0.00    +0.055 C 
ATOM      9  C   UNL     1      -2.765   1.629  24.717  0.00  0.00    -0.002 A 
ATOM     10  C   UNL     1      -1.959   1.806  24.732  0.00  0.00    +0.072 A 
ATOM     11  N   UNL     1      -1.878   2.627  24.718  0.00  0.00    -0.320 N 
ATOM     19  C   UNL     1      -2.634   2.957  24.695  0.00  0.00    +0.060 A 
ATOM     20  C   UNL     1      -3.182   2.340  24.694  0.00  0.00    +0.011 A 
ATOM     21  C   UNL     1      -3.999   2.456  24.674  0.00  0.00    -0.005 A 
ATOM     22  C   UNL     1      -4.250   3.287  24.653  0.00  0.00    -0.003 A 
ATOM     23  C   UNL     1      -3.703   3.905  24.653  0.00  0.00    +0.001 A 
ATOM     24  C   UNL     1      -2.895   3.739  24.674  0.00  0.00    +0.017 A 
ENDROOT
BRANCH   7  25
ATOM     25  C   UNL     1      -3.965  -0.207  24.725  0.00  0.00    +0.257 C 
ATOM     26  O   UNL     1      -4.087  -0.595  25.443  0.00  0.00    -0.272 OA
ATOM     27  N   UNL     1      -3.960  -0.635  24.020  0.00  0.00    -0.206 NA
BRANCH  27  28
ATOM     28  C   UNL     1      -4.077  -1.452  24.033  0.00  0.00    +0.095 C 
ATOM     29  C   UNL     1      -4.534  -2.111  23.840  0.00  0.00    +0.023 C 
ATOM     30  C   UNL     1      -3.825  -2.207  24.251  0.00  0.00    +0.023 C 
ENDBRANCH  27  28
ENDBRANCH   7  25
BRANCH   5   4
ATOM      4  C   UNL     1      -5.369   2.186  24.648  0.00  0.00    +0.022 C 
BRANCH   4   2
ATOM      1  C   UNL     1      -5.940   1.976  25.942  0.00  0.00    +0.000 C 
ATOM      2  C   UNL     1      -5.953   1.852  25.126  0.00  0.00    +0.002 C 
ATOM      3  C   UNL     1      -6.550   1.393  24.788  0.00  0.00    +0.000 C 
ENDBRANCH   4   2
ENDBRANCH   5   4
BRANCH  11  12
ATOM     12  C   UNL     1      -1.168   3.045  24.726  0.00  0.00    +0.155 C 
BRANCH  12  13
ATOM     13  C   UNL     1      -0.537   2.779  25.186  0.00  0.00    +0.123 A 
ATOM     14  N   UNL     1       0.098   2.323  24.920  0.00  0.00    -0.080 NA
ATOM     15  O   UNL     1       0.597   2.184  25.562  0.00  0.00    -0.358 OA
ATOM     16  C   UNL     1       0.271   2.554  26.224  0.00  0.00    +0.155 A 
ATOM     17  C   UNL     1       0.590   2.555  26.985  0.00  0.00    +0.075 C 
ATOM     18  C   UNL     1      -0.429   2.921  25.991  0.00  0.00    +0.056 A 
ENDBRANCH  12  13
ENDBRANCH  11  12
TORSDOF 6
ENDMDL
MODEL 3
REMARK VINA RESULT:     -11.5      1.385      5.236
REMARK  Name = 
REMARK  6 active torsions:
REMARK  status: ('A' for Active; 'I' for Inactive)
REMARK    1  A    between atoms: C_2  and  C_4
REMARK    2  A    between atoms: C_4  and  C_5
REMARK    3  A    between atoms: C_7  and  C_25
REMARK    4  A    between atoms: N_11  and  C_12
REMARK    5  A    between atoms: C_12  and  C_13
REMARK    6  A    between atoms: N_27  and  C_28
REMARK                            x       y       z     vdW  Elec       q    Type
REMARK                         _______ _______ _______ _____ _____    ______ ____
ROOT
ATOM      5  C   UNL     1      -1.735   2.529  24.792  0.00  0.00    +0.095 C 
ATOM      6  N   UNL     1      -2.526   2.765  24.806  0.00  0.00    -0.207 NA
ATOM      7  C   UNL     1      -3.203   2.294  24.802  0.00  0.00    +0.155 C 
ATOM      8  C   UNL     1      -3.257   1.471  24.782  0.00  0.00    +0.055 C 
ATOM      9  C   UNL     1      -2.648   0.916  24.762  0.00  0.00    -0.002 A 
ATOM     10  C   UNL     1      -2.775   0.101  24.743  0.00  0.00    +0.072 A 
ATOM     11  N   UNL     1      -2.040  -0.273  24.726  0.00  0.00    -0.320 N 
ATOM     19  C   UNL     1      -1.457   0.312  24.735  0.00  0.00    +0.060 A 
ATOM     20  C   UNL     1      -1.833   1.046  24.757  0.00  0.00    +0.011 A 
ATOM     21  C   UNL     1      -1.427   1.765  24.770  0.00  0.00    -0.005 A 
ATOM     22  C   UNL     1      -0.562   1.697  24.759  0.00  0.00    -0.003 A 
ATOM     23  C   UNL     1      -0.185   0.963  24.737  0.00  0.00    +0.001 A 
ATOM     24  C   UNL     1      -0.634   0.270  24.725  0.00  0.00    +0.017 A 
ENDROOT
BRANCH   7  25
ATOM     25  C   UNL     1      -3.922   2.700  24.819  0.00  0.00    +0.257 C 
ATOM     26  O   UNL     1      -4.236   3.013  24.123  0.00  0.00    -0.272 OA
ATOM     27  N   UNL     1      -4.325   2.794  25.532  0.00  0.00    -0.206 NA
BRANCH  27  28
ATOM     28  C   UNL     1      -5.043   3.200  25.549  0.00  0.00    +0.095 C 
ATOM     29  C   UNL     1      -5.866   3.193  25.599  0.00  0.00    +0.023 C 
ATOM     30  C   UNL     1      -5.463   3.910  25.528  0.00  0.00    +0.023 C 
ENDBRANCH  27  28
ENDBRANCH   7  25
BRANCH   5   4
ATOM      4  C   UNL     1      -1.180   3.139  24.801  0.00  0.00    +0.022 C 
BRANCH   4   2
ATOM      1  C   UNL     1      -1.290   3.735  26.095  0.00  0.00    +0.000 C 
ATOM      2  C   UNL     1      -1.306   3.804  25.274  0.00  0.00    +0.002 C 
ATOM      3  C   UNL     1      -1.448   4.538  24.923  0.00  0.00    +0.000 C 
ENDBRANCH   4   2
ENDBRANCH   5   4
BRANCH  11  12
ATOM     12  C   UNL     1      -1.909  -1.086  24.705  0.00  0.00    +0.155 C 
BRANCH  12  13
ATOM     13  C   UNL     1      -2.539  -1.609  24.804  0.00  0.00    +0.123 A 
ATOM     14  N   UNL     1      -2.922  -1.778  25.516  0.00  0.00    -0.080 NA
ATOM     15  O   UNL     1      -3.516  -2.328  25.361  0.00  0.00    -0.358 OA
ATOM     16  C   UNL     1      -3.502  -2.498  24.554  0.00  0.00    +0.155 A 
ATOM     17  C   UNL     1      -4.004  -3.022  24.160  0.00  0.00    +0.075 C 
ATOM     18  C   UNL     1      -2.898  -2.054  24.210  0.00  0.00    +0.056 A 
ENDBRANCH  12  13
ENDBRANCH  11  12
TORSDOF 6
ENDMDL
MODEL 4
REMARK VINA RESULT:     -11.4      1.554      4.295
REMARK  Name = 
REMARK  6 active torsions:
REMARK  status: ('A' for Active; 'I' for Inactive)
REMARK    1  A    between atoms: C_2  and  C_4
REMARK    2  A    between atoms: C_4  and  C_5
REMARK    3  A    between atoms: C_7  and  C_25
REMARK    4  A    between atoms: N_11  and  C_12
REMARK    5  A    between atoms: C_12  and  C_13
REMARK    6  A    between atoms: N_27  and  C_28
REMARK                            x       y       z     vdW  Elec       q    Type
REMARK                         _______ _______ _______ _____ _____    ______ ____
ROOT
ATOM      5  C   UNL     1      -3.338   2.786  24.863  0.00  0.00    +0.095 C 
ATOM      6  N   UNL     1      -2.549   2.739  24.625  0.00  0.00    -0.207 NA
ATOM      7  C   UNL     1      -2.133   2.081  24.351  0.00  0.00    +0.155 C 
ATOM      8  C   UNL     1      -2.402   1.308  24.249  0.00  0.00    +0.055 C 
ATOM      9  C   UNL     1      -3.154   1.002  24.394  0.00  0.00    -0.002 A 
ATOM     10  C   UNL     1      -3.356   0.212  24.267  0.00  0.00    +0.072 A 
ATOM     11  N   UNL     1      -4.149   0.115  24.473  0.00  0.00    -0.320 N 
ATOM     19  C   UNL     1      -4.438   0.845  24.726  0.00  0.00    +0.060 A 
ATOM     20  C   UNL     1      -3.823   1.393  24.677  0.00  0.00    +0.011 A 
ATOM     21  C   UNL     1      -3.904   2.188  24.886  0.00  0.00    -0.005 A 
ATOM     22  C   UNL     1      -4.694   2.414  25.166  0.00  0.00    -0.003 A 
ATOM     23  C   UNL     1      -5.310   1.867  25.216  0.00  0.00    +0.001 A 
ATOM     24  C   UNL     1      -5.181   1.082  24.995  0.00  0.00    +0.017 A 
ENDROOT
BRANCH   7  25
ATOM     25  C   UNL     1      -1.342   2.214  24.155  0.00  0.00    +0.257 C 
ATOM     26  O   UNL     1      -1.152   2.606  23.454  0.00  0.00    -0.272 OA
ATOM     27  N   UNL     1      -0.743   1.955  24.659  0.00  0.00    -0.206 NA
BRANCH  27  28
ATOM     28  C   UNL     1       0.047   2.089  24.462  0.00  0.00    +0.095 C 
ATOM     29  C   UNL     1       0.755   1.824  24.132  0.00  0.00    +0.023 C 
ATOM     30  C   UNL     1       0.707   2.584  24.450  0.00  0.00    +0.023 C 
ENDBRANCH  27  28
ENDBRANCH   7  25
BRANCH   5   4
ATOM      4  C   UNL     1      -3.592   3.531  25.110  0.00  0.00    +0.022 C 
BRANCH   4   2
ATOM      1  C   UNL     1      -2.912   3.935  26.300  0.00  0.00    +0.000 C 
ATOM      2  C   UNL     1      -3.068   4.038  25.497  0.00  0.00    +0.002 C 
ATOM      3  C   UNL     1      -2.702   4.649  25.079  0.00  0.00    +0.000 C 
ENDBRANCH   4   2
ENDBRANCH   5   4
BRANCH  11  12
ATOM     12  C   UNL     1      -4.579  -0.588  24.432  0.00  0.00    +0.155 C 
BRANCH  12  13
ATOM     13  C   UNL     1      -4.208  -1.308  24.589  0.00  0.00    +0.123 A 
ATOM     14  N   UNL     1      -3.895  -1.545  25.315  0.00  0.00    -0.080 NA
ATOM     15  O   UNL     1      -3.579  -2.301  25.222  0.00  0.00    -0.358 OA
ATOM     16  C   UNL     1      -3.697  -2.532  24.438  0.00  0.00    +0.155 A 
ATOM     17  C   UNL     1      -3.466  -3.250  24.105  0.00  0.00    +0.075 C 
ATOM     18  C   UNL     1      -4.086  -1.918  24.048  0.00  0.00    +0.056 A 
ENDBRANCH  12  13
ENDBRANCH  11  12
TORSDOF 6
ENDMDL
MODEL 5
REMARK VINA RESULT:     -11.3      0.975      4.358
REMARK  Name = 
REMARK  6 active torsions:
REMARK  status: ('A' for Active; 'I' for Inactive)
REMARK    1  A    between atoms: C_2  and  C_4
REMARK    2  A    between atoms: C_4  and  C_5
REMARK    3  A    between atoms: C_7  and  C_25
REMARK    4  A    between atoms: N_11  and  C_12
REMARK    5  A    between atoms: C_12  and  C_13
REMARK    6  A    between atoms: N_27  and  C_28
REMARK                            x       y       z     vdW  Elec       q    Type
REMARK                         _______ _______ _______ _____ _____    ______ ____
ROOT
ATOM      5  C   UNL     1      -4.169   2.207  24.926  0.00  0.00    +0.095 C 
ATOM      6  N   UNL     1      -3.591   2.770  25.098  0.00  0.00    -0.207 NA
ATOM      7  C   UNL     1      -2.772   2.673  25.128  0.00  0.00    +0.155 C 
ATOM      8  C   UNL     1      -2.330   1.989  24.995  0.00  0.00    +0.055 C 
ATOM      9  C   UNL     1      -2.597   1.234  24.797  0.00  0.00    -0.002 A 
ATOM     10  C   UNL     1      -2.094   0.591  24.677  0.00  0.00    +0.072 A 
ATOM     11  N   UNL     1      -2.559  -0.065  24.491  0.00  0.00    -0.320 N 
ATOM     19  C   UNL     1      -3.349   0.173  24.495  0.00  0.00    +0.060 A 
ATOM     20  C   UNL     1      -3.373   0.976  24.685  0.00  0.00    +0.011 A 
ATOM     21  C   UNL     1      -4.072   1.410  24.742  0.00  0.00    -0.005 A 
ATOM     22  C   UNL     1      -4.797   0.958  24.587  0.00  0.00    -0.003 A 
ATOM     23  C   UNL     1      -4.775   0.155  24.398  0.00  0.00    +0.001 A 
ATOM     24  C   UNL     1      -4.050  -0.237  24.352  0.00  0.00    +0.017 A 
ENDROOT
BRANCH   7  25
ATOM     25  C   UNL     1      -2.338   3.349  25.318  0.00  0.00    +0.257 C 
ATOM     26  O   UNL     1      -2.166   3.521  26.107  0.00  0.00    -0.272 OA
ATOM     27  N   UNL     1      -2.076   3.852  24.719  0.00  0.00    -0.206 NA
BRANCH  27  28
ATOM     28  C   UNL     1      -1.643   4.528  24.910  0.00  0.00    +0.095 C 
ATOM     29  C   UNL     1      -0.919   4.920  24.963  0.00  0.00    +0.023 C 
ATOM     30  C   UNL     1      -1.615   5.305  25.186  0.00  0.00    +0.023 C 
ENDBRANCH  27  28
ENDBRANCH   7  25
BRANCH   5   4
ATOM      4  C   UNL     1      -4.947   2.480  24.940  0.00  0.00    +0.022 C 
BRANCH   4   2
ATOM      1  C   UNL     1      -5.250   3.827  25.311  0.00  0.00    +0.000 C 
ATOM      2  C   UNL     1      -5.182   3.029  25.510  0.00  0.00    +0.002 C 
ATOM      3  C   UNL     1      -5.349   2.779  26.279  0.00  0.00    +0.000 C 
ENDBRANCH   4   2
ENDBRANCH   5   4
BRANCH  11  12
ATOM     12  C   UNL     1      -2.283  -0.825  24.328  0.00  0.00    +0.155 C 
BRANCH  12  13
ATOM     13  C   UNL     1      -1.516  -1.041  24.540  0.00  0.00    +0.123 A 
ATOM     14  N   UNL     1      -0.821  -0.780  24.179  0.00  0.00    -0.080 NA
ATOM     15  O   UNL     1      -0.185  -1.133  24.567  0.00  0.00    -0.358 OA
ATOM     16  C   UNL     1      -0.486  -1.611  25.168  0.00  0.00    +0.155 A 
ATOM     17  C   UNL     1      -0.041  -2.067  25.693  0.00  0.00    +0.075 C 
ATOM     18  C   UNL     1      -1.308  -1.554  25.151  0.00  0.00    +0.056 A 
ENDBRANCH  12  13
ENDBRANCH  11  12
TORSDOF 6
ENDMDL
MODEL 6
REMARK VINA RESULT:     -11.0      1.237      2.906
REMARK  Name = 
REMARK  6 active torsions:
REMARK  status: ('A' for Active; 'I' for Inactive)
REMARK    1  A    between atoms: C_2  and  C_4
REMARK    2  A    between atoms: C_4  and  C_5
REMARK    3  A    between atoms: C_7  and  C_25
REMARK    4  A    between atoms: N_11  and  C_12
REMARK    5  A    between atoms: C_12  and  C_13
REMARK    6  A    between atoms: N_27  and  C_28
REMARK                            x       y       z     vdW  Elec       q    Type
REMARK                         _______ _______ _______ _____ _____    ______ ____
ROOT
ATOM      5  C   UNL     1      -1.352   0.038  25.110  0.00  0.00    +0.095 C 
ATOM      6  N   UNL     1      -1.958  -0.516  25.027  0.00  0.00    -0.207 NA
ATOM      7  C   UNL     1      -2.763  -0.384  24.902  0.00  0.00    +0.155 C 
ATOM      8  C   UNL     1      -3.160   0.335  24.829  0.00  0.00    +0.055 C 
ATOM      9  C   UNL     1      -2.852   1.100  24.863  0.00  0.00    -0.002 A 
ATOM     10  C   UNL     1      -3.312   1.780  24.781  0.00  0.00    +0.072 A 
ATOM     11  N   UNL     1      -2.813   2.434  24.846  0.00  0.00    -0.320 N 
ATOM     19  C   UNL     1      -2.045   2.159  24.968  0.00  0.00    +0.060 A 
ATOM     20  C   UNL     1      -2.069   1.334  24.978  0.00  0.00    +0.011 A 
ATOM     21  C   UNL     1      -1.402   0.860  25.088  0.00  0.00    -0.005 A 
ATOM     22  C   UNL     1      -0.658   1.296  25.194  0.00  0.00    -0.003 A 
ATOM     23  C   UNL     1      -0.633   2.120  25.184  0.00  0.00    +0.001 A 
ATOM     24  C   UNL     1      -1.328   2.552  25.071  0.00  0.00    +0.017 A 
ENDROOT
BRANCH   7  25
ATOM     25  C   UNL     1      -3.231  -1.060  24.842  0.00  0.00    +0.257 C 
ATOM     26  O   UNL     1      -3.557  -1.398  25.521  0.00  0.00    -0.272 OA
ATOM     27  N   UNL     1      -3.375  -1.399  24.103  0.00  0.00    -0.206 NA
BRANCH  27  28
ATOM     28  C   UNL     1      -3.843  -2.075  24.044  0.00  0.00    +0.095 C 
ATOM     29  C   UNL     1      -4.545  -2.439  23.808  0.00  0.00    +0.023 C 
ATOM     30  C   UNL     1      -3.954  -2.882  24.178  0.00  0.00    +0.023 C 
ENDBRANCH  27  28
ENDBRANCH   7  25
BRANCH   5   4
ATOM      4  C   UNL     1      -0.598  -0.273  25.230  0.00  0.00    +0.022 C 
BRANCH   4   2
ATOM      1  C   UNL     1      -0.380  -1.682  25.319  0.00  0.00    +0.000 C 
ATOM      2  C   UNL     1      -0.384  -0.987  24.875  0.00  0.00    +0.002 C 
ATOM      3  C   UNL     1      -0.176  -1.004  24.077  0.00  0.00    +0.000 C 
ENDBRANCH   4   2
ENDBRANCH   5   4
BRANCH  11  12
ATOM     12  C   UNL     1      -3.042   3.225  24.798  0.00  0.00    +0.155 C 
BRANCH  12  13
ATOM     13  C   UNL     1      -3.705   3.490  25.211  0.00  0.00    +0.123 A 
ATOM     14  N   UNL     1      -3.723   3.717  26.005  0.00  0.00    -0.080 NA
ATOM     15  O   UNL     1      -4.495   3.941  26.188  0.00  0.00    -0.358 OA
ATOM     16  C   UNL     1      -4.954   3.853  25.508  0.00  0.00    +0.155 A 
ATOM     17  C   UNL     1      -5.761   4.015  25.443  0.00  0.00    +0.075 C 
ATOM     18  C   UNL     1      -4.466   3.574  24.905  0.00  0.00    +0.056 A 
ENDBRANCH  12  13
ENDBRANCH  11  12
TORSDOF 6
ENDMDL
MODEL 7
REMARK VINA RESULT:     -10.7      1.583      3.329
REMARK  Name = 
REMARK  6 active torsions:
REMARK  status: ('A' for Active; 'I' for Inactive)
REMARK    1  A    between atoms: C_2  and  C_4
REMARK    2  A    between atoms: C_4  and  C_5
REMARK    3  A    between atoms: C_7  and  C_25
REMARK    4  A    between atoms: N_11  and  C_12
REMARK    5  A    between atoms: C_12  and  C_13
REMARK    6  A    between atoms: N_27  and  C_28
REMARK                            x       y       z     vdW  Elec       q    Type
REMARK                         _______ _______ _______ _____ _____    ______ ____
ROOT
ATOM      5  C   UNL     1      -2.806  -0.331  24.672  0.00  0.00    +0.095 C 
ATOM      6  N   UNL     1      -3.542   0.040  24.678  0.00  0.00    -0.207 NA
ATOM      7  C   UNL     1      -3.712   0.844  24.760  0.00  0.00    +0.155 C 
ATOM      8  C   UNL     1      -3.188   1.473  24.855  0.00  0.00    +0.055 C 
ATOM      9  C   UNL     1      -2.364   1.456  24.893  0.00  0.00    -0.002 A 
ATOM     10  C   UNL     1      -1.899   2.130  24.990  0.00  0.00    +0.072 A 
ATOM     11  N   UNL     1      -1.108   1.895  25.002  0.00  0.00    -0.320 N 
ATOM     19  C   UNL     1      -1.084   1.075  24.912  0.00  0.00    +0.060 A 
ATOM     20  C   UNL     1      -1.861   0.803  24.844  0.00  0.00    +0.011 A 
ATOM     21  C   UNL     1      -2.058   0.008  24.746  0.00  0.00    -0.005 A 
ATOM     22  C   UNL     1      -1.382  -0.536  24.718  0.00  0.00    -0.003 A 
ATOM     23  C   UNL     1      -0.605  -0.265  24.785  0.00  0.00    +0.001 A 
ATOM     24  C   UNL     1      -0.457   0.541  24.882  0.00  0.00    +0.017 A 
ENDROOT
BRANCH   7  25
ATOM     25  C   UNL     1      -4.513   1.043  24.743  0.00  0.00    +0.257 C 
ATOM     26  O   UNL     1      -4.955   0.919  24.057  0.00  0.00    -0.272 OA
ATOM     27  N   UNL     1      -4.871   1.367  25.412  0.00  0.00    -0.206 NA
BRANCH  27  28
ATOM     28  C   UNL     1      -5.672   1.566  25.395  0.00  0.00    +0.095 C 
ATOM     29  C   UNL     1      -6.418   1.552  25.745  0.00  0.00    +0.023 C 
ATOM     30  C   UNL     1      -6.311   1.924  25.016  0.00  0.00    +0.023 C 
ENDBRANCH  27  28
ENDBRANCH   7  25
BRANCH   5   4
ATOM      4  C   UNL     1      -2.820  -1.151  24.580  0.00  0.00    +0.022 C 
BRANCH   4   2
ATOM      1  C   UNL     1      -3.537  -1.744  25.664  0.00  0.00    +0.000 C 
ATOM      2  C   UNL     1      -3.464  -1.586  24.858  0.00  0.00    +0.002 C 
ATOM      3  C   UNL     1      -4.034  -1.862  24.329  0.00  0.00    +0.000 C 
ENDBRANCH   4   2
ENDBRANCH   5   4
BRANCH  11  12
ATOM     12  C   UNL     1      -0.455   2.391  25.089  0.00  0.00    +0.155 C 
BRANCH  12  13
ATOM     13  C   UNL     1      -0.494   3.174  24.831  0.00  0.00    +0.123 A 
ATOM     14  N   UNL     1      -0.289   3.447  24.080  0.00  0.00    -0.080 NA
ATOM     15  O   UNL     1      -0.413   4.262  24.063  0.00  0.00    -0.358 OA
ATOM     16  C   UNL     1      -0.694   4.493  24.804  0.00  0.00    +0.155 A 
ATOM     17  C   UNL     1      -0.891   5.262  25.030  0.00  0.00    +0.075 C 
ATOM     18  C   UNL     1      -0.744   3.820  25.278  0.00  0.00    +0.056 A 
ENDBRANCH  12  13
ENDBRANCH  11  12
TORSDOF 6
ENDMDL
MODEL 8
REMARK VINA RESULT:     -10.6      1.818      3.533
REMARK  Name = 
REMARK  6 active torsions:
REMARK  status: ('A' for Active; 'I' for Inactive)
REMARK    1  A    between atoms: C_2  and  C_4
REMARK    2  A    between atoms: C_4  and  C_5
REMARK    3  A    between atoms: C_7  and  C_25
REMARK    4  A    between atoms: N_11  and  C_12
REMARK    5  A    between atoms: C_12  and  C_13
REMARK    6  A    between atoms: N_27  and  C_28
REMARK                            x       y       z     vdW  Elec       q    Type
REMARK                         _______ _______ _______ _____ _____    ______ ____
ROOT
ATOM      5  C   UNL     1      -1.201   2.516  25.202  0.00  0.00    +0.095 C 
ATOM      6  N   UNL     1      -1.105   1.715  25.028  0.00  0.00    -0.207 NA
ATOM      7  C   UNL     1      -1.681   1.160  24.827  0.00  0.00    +0.155 C 
ATOM      8  C   UNL     1      -2.495   1.268  24.751  0.00  0.00    +0.055 C 
ATOM      9  C   UNL     1      -2.935   1.958  24.857  0.00  0.00    -0.002 A 
ATOM     10  C   UNL     1      -3.754   1.995  24.764  0.00  0.00    +0.072 A 
ATOM     11  N   UNL     1      -3.994   2.770  24.915  0.00  0.00    -0.320 N 
ATOM     19  C   UNL     1      -3.323   3.212  25.101  0.00  0.00    +0.060 A 
ATOM     20  C   UNL     1      -2.668   2.711  25.066  0.00  0.00    +0.011 A 
ATOM     21  C   UNL     1      -1.896   2.958  25.219  0.00  0.00    -0.005 A 
ATOM     22  C   UNL     1      -1.815   3.798  25.425  0.00  0.00    -0.003 A 
ATOM     23  C   UNL     1      -2.469   4.300  25.460  0.00  0.00    +0.001 A 
ATOM     24  C   UNL     1      -3.223   4.007  25.298  0.00  0.00    +0.017 A 
ENDROOT
BRANCH   7  25
ATOM     25  C   UNL     1      -1.406   0.395  24.683  0.00  0.00    +0.257 C 
ATOM     26  O   UNL     1      -1.076   0.206  23.951  0.00  0.00    -0.272 OA
ATOM     27  N   UNL     1      -1.462  -0.180  25.272  0.00  0.00    -0.206 NA
BRANCH  27  28
ATOM     28  C   UNL     1      -1.186  -0.945  25.127  0.00  0.00    +0.095 C 
ATOM     29  C   UNL     1      -1.320  -1.712  24.855  0.00  0.00    +0.023 C 
ATOM     30  C   UNL     1      -0.577  -1.501  25.148  0.00  0.00    +0.023 C 
ENDBRANCH  27  28
ENDBRANCH   7  25
BRANCH   5   4
ATOM      4  C   UNL     1      -0.510   2.927  25.384  0.00  0.00    +0.022 C 
BRANCH   4   2
ATOM      1  C   UNL     1       0.149   2.408  26.541  0.00  0.00    +0.000 C 
ATOM      2  C   UNL     1       0.129   2.531  25.726  0.00  0.00    +0.002 C 
ATOM      3  C   UNL     1       0.746   2.257  25.251  0.00  0.00    +0.000 C 
ENDBRANCH   4   2
ENDBRANCH   5   4
BRANCH  11  12
ATOM     12  C   UNL     1      -4.767   3.053  24.885  0.00  0.00    +0.155 C 
BRANCH  12  13
ATOM     13  C   UNL     1      -5.390   2.583  25.154  0.00  0.00    +0.123 A 
ATOM     14  N   UNL     1      -5.869   2.099  24.687  0.00  0.00    -0.080 NA
ATOM     15  O   UNL     1      -6.418   1.732  25.182  0.00  0.00    -0.358 OA
ATOM     16  C   UNL     1      -6.278   1.989  25.953  0.00  0.00    +0.155 A 
ATOM     17  C   UNL     1      -6.700   1.760  26.624  0.00  0.00    +0.075 C 
ATOM     18  C   UNL     1      -5.643   2.515  25.935  0.00  0.00    +0.056 A 
ENDBRANCH  12  13
ENDBRANCH  11  12
TORSDOF 6
ENDMDL
