MODEL 1
REMARK VINA RESULT:      -8.5      0.000      0.000
REMARK  Name = 
REMARK  5 active torsions:
REMARK  status: ('A' for Active; 'I' for Inactive)
REMARK    1  A    between atoms: C_2  and  C_3
REMARK    2  A    between atoms: C_2  and  C_25
REMARK    3  A    between atoms: C_14  and  C_16
REMARK    4  A    between atoms: N_27  and  C_29
REMARK    5  A    between atoms: C_29  and  C_30
REMARK                            x       y       z     vdW  Elec       q    Type
REMARK                         _______ _______ _______ _____ _____    ______ ____
ROOT
ATOM      3  C   UNL     1      -2.465   0.645  24.692  0.00  0.00    +0.039 C 
ATOM      4  C   UNL     1      -2.250   1.422  24.863  0.00  0.00    +0.003 C 
ATOM      5  C   UNL     1      -1.487   1.685  24.696  0.00  0.00    +0.001 C 
ATOM      6  C   UNL     1      -0.937   1.170  24.358  0.00  0.00    +0.007 C 
ATOM      7  C   UNL     1      -0.722   1.948  24.529  0.00  0.00    +0.000 C 
ATOM      8  C   UNL     1      -0.173   1.434  24.191  0.00  0.00    +0.034 C 
ATOM      9  C   UNL     1       0.375   0.919  23.853  0.00  0.00    +0.023 A 
ATOM     10  C   UNL     1       0.160   0.141  23.681  0.00  0.00    +0.063 A 
ATOM     11  N   UNL     1       0.815  -0.237  23.351  0.00  0.00    -0.227 NA
ATOM     12  C   UNL     1       1.435   0.307  23.318  0.00  0.00    +0.185 A 
ATOM     13  N   UNL     1       2.192   0.162  23.027  0.00  0.00    -0.154 NA
ATOM     14  C   UNL     1       2.757   0.763  23.030  0.00  0.00    +0.247 C 
ATOM     15  O   UNL     1       2.564   1.508  23.324  0.00  0.00    -0.273 OA
ATOM     19  S   UNL     1       1.163   1.021  23.629  0.00  0.00    -0.054 S 
ATOM     20  C   UNL     1      -0.603  -0.122  23.848  0.00  0.00    +0.043 C 
ATOM     21  C   UNL     1      -0.818  -0.900  23.676  0.00  0.00    +0.006 C 
ATOM     22  C   UNL     1      -1.152   0.393  24.186  0.00  0.00    +0.036 C 
ATOM     23  C   UNL     1      -1.916   0.129  24.353  0.00  0.00    +0.153 C 
ATOM     24  O   UNL     1      -2.131  -0.648  24.181  0.00  0.00    -0.223 OA
ENDROOT
BRANCH  14  16
ATOM     16  C   UNL     1       3.515   0.617  22.738  0.00  0.00    +0.079 C 
ATOM     17  C   UNL     1       4.024   0.500  22.099  0.00  0.00    +0.010 C 
ATOM     18  C   UNL     1       4.318   0.481  22.870  0.00  0.00    +0.010 C 
ENDBRANCH  14  16
BRANCH   3   2
ATOM      1  C   UNL     1      -3.341  -0.287  25.330  0.00  0.00    +0.010 C 
ATOM      2  C   UNL     1      -3.229   0.381  24.858  0.00  0.00    +0.079 C 
BRANCH   2  25
ATOM     25  C   UNL     1      -3.881   0.783  24.553  0.00  0.00    +0.226 C 
ATOM     26  O   UNL     1      -3.878   1.037  23.767  0.00  0.00    -0.275 OA
ATOM     27  N   UNL     1      -4.536   0.933  25.032  0.00  0.00    -0.274 N 
ATOM     28  C   UNL     1      -4.538   0.679  25.817  0.00  0.00    +0.115 C 
BRANCH  27  29
ATOM     29  C   UNL     1      -5.187   1.335  24.727  0.00  0.00    +0.120 C 
BRANCH  29  30
ATOM     30  C   UNL     1      -5.766   1.630  25.236  0.00  0.00    -0.005 C 
ATOM     31  C   UNL     1      -6.424   2.022  24.930  0.00  0.00    -0.003 C 
ENDBRANCH  29  30
ENDBRANCH  27  29
ENDBRANCH   2  25
ENDBRANCH   3   2
TORSDOF 5
ENDMDL
MODEL 2
REMARK VINA RESULT:      -8.0      1.242      1.816
REMARK  Name = 
REMARK  5 active torsions:
REMARK  status: ('A' for Active; 'I' for Inactive)
REMARK    1  A    between atoms: C_2  and  C_3
REMARK    2  A    between atoms: C_2  and  C_25
REMARK    3  A    between atoms: C_14  and  C_16
REMARK    4  A    between atoms: N_27  and  C_29
REMARK    5  A    between atoms: C_29  and  C_30
REMARK                            x       y       z     vdW  Elec       q    Type
REMARK                         _______ _______ _______ _____ _____    ______ ____
ROOT
ATOM      3  C   UNL     1      -2.582   2.172  24.737  0.00  0.00    +0.039 C 
ATOM      4  C   UNL     1      -2.704   1.371  24.585  0.00  0.00    +0.003 C 
ATOM      5  C   UNL     1      -2.080   0.901  24.323  0.00  0.00    +0.001 C 
ATOM      6  C   UNL     1      -1.331   1.233  24.213  0.00  0.00    +0.007 C 
ATOM      7  C   UNL     1      -1.454   0.430  24.061  0.00  0.00    +0.000 C 
ATOM      8  C   UNL     1      -0.707   0.761  23.951  0.00  0.00    +0.034 C 
ATOM      9  C   UNL     1       0.041   1.092  23.841  0.00  0.00    +0.023 A 
ATOM     10  C   UNL     1       0.164   1.895  23.993  0.00  0.00    +0.063 A 
ATOM     11  N   UNL     1       0.956   2.065  23.836  0.00  0.00    -0.227 NA
ATOM     12  C   UNL     1       1.322   1.369  23.587  0.00  0.00    +0.185 A 
ATOM     13  N   UNL     1       2.114   1.289  23.372  0.00  0.00    -0.154 NA
ATOM     14  C   UNL     1       2.404   0.554  23.133  0.00  0.00    +0.247 C 
ATOM     15  O   UNL     1       1.902  -0.099  23.109  0.00  0.00    -0.273 OA
ATOM     19  S   UNL     1       0.757   0.768  23.590  0.00  0.00    -0.054 S 
ATOM     20  C   UNL     1      -0.461   2.364  24.255  0.00  0.00    +0.043 C 
ATOM     21  C   UNL     1      -0.338   3.166  24.407  0.00  0.00    +0.006 C 
ATOM     22  C   UNL     1      -1.209   2.033  24.365  0.00  0.00    +0.036 C 
ATOM     23  C   UNL     1      -1.833   2.504  24.627  0.00  0.00    +0.153 C 
ATOM     24  O   UNL     1      -1.711   3.306  24.779  0.00  0.00    -0.223 OA
ENDROOT
BRANCH  14  16
ATOM     16  C   UNL     1       3.197   0.474  22.919  0.00  0.00    +0.079 C 
ATOM     17  C   UNL     1       3.817   0.644  22.401  0.00  0.00    +0.010 C 
ATOM     18  C   UNL     1       3.949   0.168  23.063  0.00  0.00    +0.010 C 
ENDBRANCH  14  16
BRANCH   3   2
ATOM      1  C   UNL     1      -3.089   3.177  25.616  0.00  0.00    +0.010 C 
ATOM      2  C   UNL     1      -3.207   2.643  24.999  0.00  0.00    +0.079 C 
BRANCH   2  25
ATOM     25  C   UNL     1      -3.948   2.581  24.644  0.00  0.00    +0.226 C 
ATOM     26  O   UNL     1      -4.013   2.578  23.820  0.00  0.00    -0.275 OA
ATOM     27  N   UNL     1      -4.626   2.521  25.111  0.00  0.00    -0.274 N 
ATOM     28  C   UNL     1      -4.562   2.523  25.933  0.00  0.00    +0.115 C 
BRANCH  27  29
ATOM     29  C   UNL     1      -5.367   2.458  24.756  0.00  0.00    +0.120 C 
BRANCH  29  30
ATOM     30  C   UNL     1      -6.004   2.147  25.179  0.00  0.00    -0.005 C 
ATOM     31  C   UNL     1      -6.609   1.751  24.783  0.00  0.00    -0.003 C 
ENDBRANCH  29  30
ENDBRANCH  27  29
ENDBRANCH   2  25
ENDBRANCH   3   2
TORSDOF 5
ENDMDL
MODEL 3
REMARK VINA RESULT:      -8.0      1.249      6.045
REMARK  Name = 
REMARK  5 active torsions:
REMARK  status: ('A' for Active; 'I' for Inactive)
REMARK    1  A    between atoms: C_2  and  C_3
REMARK    2  A    between atoms: C_2  and  C_25
REMARK    3  A    between atoms: C_14  and  C_16
REMARK    4  A    between atoms: N_27  and  C_29
REMARK    5  A    between atoms: C_29  and  C_30
REMARK                            x       y       z     vdW  Elec       q    Type
REMARK                         _______ _______ _______ _____ _____    ______ ____
ROOT
ATOM      3  C   UNL     1      -0.040   0.593  23.505  0.00  0.00    +0.039 C 
ATOM      4  C   UNL     1      -0.181   1.283  23.077  0.00  0.00    +0.003 C 
ATOM      5  C   UNL     1      -0.901   1.676  23.153  0.00  0.00    +0.001 C 
ATOM      6  C   UNL     1      -1.483   1.378  23.657  0.00  0.00    +0.007 C 
ATOM      7  C   UNL     1      -1.623   2.070  23.228  0.00  0.00    +0.000 C 
ATOM      8  C   UNL     1      -2.204   1.772  23.733  0.00  0.00    +0.034 C 
ATOM      9  C   UNL     1      -2.786   1.474  24.237  0.00  0.00    +0.023 A 
ATOM     10  C   UNL     1      -2.645   0.783  24.666  0.00  0.00    +0.063 A 
ATOM     11  N   UNL     1      -3.317   0.622  25.117  0.00  0.00    -0.227 NA
ATOM     12  C   UNL     1      -3.873   1.214  24.967  0.00  0.00    +0.185 A 
ATOM     13  N   UNL     1      -4.624   1.268  25.301  0.00  0.00    -0.154 NA
ATOM     14  C   UNL     1      -5.122   1.894  25.098  0.00  0.00    +0.247 C 
ATOM     15  O   UNL     1      -4.867   2.464  24.559  0.00  0.00    -0.273 OA
ATOM     19  S   UNL     1      -3.544   1.740  24.423  0.00  0.00    -0.054 S 
ATOM     20  C   UNL     1      -1.924   0.390  24.590  0.00  0.00    +0.043 C 
ATOM     21  C   UNL     1      -1.784  -0.301  25.019  0.00  0.00    +0.006 C 
ATOM     22  C   UNL     1      -1.343   0.688  24.086  0.00  0.00    +0.036 C 
ATOM     23  C   UNL     1      -0.622   0.295  24.010  0.00  0.00    +0.153 C 
ATOM     24  O   UNL     1      -0.481  -0.396  24.439  0.00  0.00    -0.223 OA
ENDROOT
BRANCH  14  16
ATOM     16  C   UNL     1      -5.874   1.949  25.433  0.00  0.00    +0.079 C 
ATOM     17  C   UNL     1      -6.695   1.908  25.356  0.00  0.00    +0.010 C 
ATOM     18  C   UNL     1      -6.356   2.083  26.089  0.00  0.00    +0.010 C 
ENDBRANCH  14  16
BRANCH   3   2
ATOM      1  C   UNL     1       0.694  -0.616  23.305  0.00  0.00    +0.010 C 
ATOM      2  C   UNL     1       0.681   0.199  23.430  0.00  0.00    +0.079 C 
BRANCH   2  25
ATOM     25  C   UNL     1       1.388   0.620  23.480  0.00  0.00    +0.226 C 
ATOM     26  O   UNL     1       1.462   1.241  24.019  0.00  0.00    -0.275 OA
ATOM     27  N   UNL     1       2.023   0.421  22.992  0.00  0.00    -0.274 N 
ATOM     28  C   UNL     1       1.950  -0.200  22.453  0.00  0.00    +0.115 C 
BRANCH  27  29
ATOM     29  C   UNL     1       2.730   0.841  23.042  0.00  0.00    +0.120 C 
BRANCH  29  30
ATOM     30  C   UNL     1       3.381   0.611  22.589  0.00  0.00    -0.005 C 
ATOM     31  C   UNL     1       4.121   0.948  22.729  0.00  0.00    -0.003 C 
ENDBRANCH  29  30
ENDBRANCH  27  29
ENDBRANCH   2  25
ENDBRANCH   3   2
TORSDOF 5
ENDMDL
MODEL 4
REMARK VINA RESULT:      -7.2      3.104      4.324
REMARK  Name = 
REMARK  5 active torsions:
REMARK  status: ('A' for Active; 'I' for Inactive)
REMARK    1  A    between atoms: C_2  and  C_3
REMARK    2  A    between atoms: C_2  and  C_25
REMARK    3  A    between atoms: C_14  and  C_16
REMARK    4  A    between atoms: N_27  and  C_29
REMARK    5  A    between atoms: C_29  and  C_30
REMARK                            x       y       z     vdW  Elec       q    Type
REMARK                         _______ _______ _______ _____ _____    ______ ____
ROOT
ATOM      3  C   UNL     1      -3.719  -0.430  25.141  0.00  0.00    +0.039 C 
ATOM      4  C   UNL     1      -4.403   0.017  25.032  0.00  0.00    +0.003 C 
ATOM      5  C   UNL     1      -4.352   0.837  24.961  0.00  0.00    +0.001 C 
ATOM      6  C   UNL     1      -3.616   1.210  24.999  0.00  0.00    +0.007 C 
ATOM      7  C   UNL     1      -4.301   1.658  24.889  0.00  0.00    +0.000 C 
ATOM      8  C   UNL     1      -3.566   2.030  24.927  0.00  0.00    +0.034 C 
ATOM      9  C   UNL     1      -2.831   2.403  24.965  0.00  0.00    +0.023 A 
ATOM     10  C   UNL     1      -2.146   1.955  25.075  0.00  0.00    +0.063 A 
ATOM     11  N   UNL     1      -1.504   2.473  25.090  0.00  0.00    -0.227 NA
ATOM     12  C   UNL     1      -1.791   3.240  24.990  0.00  0.00    +0.185 A 
ATOM     13  N   UNL     1      -1.338   3.928  24.971  0.00  0.00    -0.154 NA
ATOM     14  C   UNL     1      -1.704   4.660  24.867  0.00  0.00    +0.247 C 
ATOM     15  O   UNL     1      -2.522   4.703  24.782  0.00  0.00    -0.273 OA
ATOM     19  S   UNL     1      -2.611   3.197  24.913  0.00  0.00    -0.054 S 
ATOM     20  C   UNL     1      -2.198   1.135  25.146  0.00  0.00    +0.043 C 
ATOM     21  C   UNL     1      -1.513   0.688  25.256  0.00  0.00    +0.006 C 
ATOM     22  C   UNL     1      -2.933   0.763  25.108  0.00  0.00    +0.036 C 
ATOM     23  C   UNL     1      -2.983  -0.057  25.179  0.00  0.00    +0.153 C 
ATOM     24  O   UNL     1      -2.299  -0.505  25.289  0.00  0.00    -0.223 OA
ENDROOT
BRANCH  14  16
ATOM     16  C   UNL     1      -1.249   5.349  24.848  0.00  0.00    +0.079 C 
ATOM     17  C   UNL     1      -0.543   5.733  24.663  0.00  0.00    +0.010 C 
ATOM     18  C   UNL     1      -1.168   6.156  24.998  0.00  0.00    +0.010 C 
ENDBRANCH  14  16
BRANCH   3   2
ATOM      1  C   UNL     1      -3.606  -1.612  25.937  0.00  0.00    +0.010 C 
ATOM      2  C   UNL     1      -3.769  -1.251  25.213  0.00  0.00    +0.079 C 
BRANCH   2  25
ATOM     25  C   UNL     1      -3.981  -1.710  24.562  0.00  0.00    +0.226 C 
ATOM     26  O   UNL     1      -4.411  -1.373  23.942  0.00  0.00    -0.275 OA
ATOM     27  N   UNL     1      -3.766  -2.506  24.529  0.00  0.00    -0.274 N 
ATOM     28  C   UNL     1      -3.337  -2.842  25.149  0.00  0.00    +0.115 C 
BRANCH  27  29
ATOM     29  C   UNL     1      -3.978  -2.965  23.878  0.00  0.00    +0.120 C 
BRANCH  29  30
ATOM     30  C   UNL     1      -3.667  -3.724  23.788  0.00  0.00    -0.005 C 
ATOM     31  C   UNL     1      -3.823  -4.156  23.104  0.00  0.00    -0.003 C 
ENDBRANCH  29  30
ENDBRANCH  27  29
ENDBRANCH   2  25
ENDBRANCH   3   2
TORSDOF 5
ENDMDL
MODEL 5
REMARK VINA RESULT:      -7.0      3.392      5.175
REMARK  Name = 
REMARK  5 active torsions:
REMARK  status: ('A' for Active; 'I' for Inactive)
REMARK    1  A    between atoms: C_2  and  C_3
REMARK    2  A    between atoms: C_2  and  C_25
REMARK    3  A    between atoms: C_14  and  C_16
REMARK    4  A    between atoms: N_27  and  C_29
REMARK    5  A    between atoms: C_29  and  C_30
REMARK                            x       y       z     vdW  Elec       q    Type
REMARK                         _______ _______ _______ _____ _____    ______ ____
ROOT
ATOM      3  C   UNL     1      -3.433   3.140  25.297  0.00  0.00    +0.039 C 
ATOM      4  C   UNL     1      -4.214   3.104  25.036  0.00  0.00    +0.003 C 
ATOM      5  C   UNL     1      -4.535   2.384  24.794  0.00  0.00    +0.001 C 
ATOM      6  C   UNL     1      -4.074   1.699  24.813  0.00  0.00    +0.007 C 
ATOM      7  C   UNL     1      -4.856   1.663  24.552  0.00  0.00    +0.000 C 
ATOM      8  C   UNL     1      -4.396   0.979  24.571  0.00  0.00    +0.034 C 
ATOM      9  C   UNL     1      -3.935   0.295  24.590  0.00  0.00    +0.023 A 
ATOM     10  C   UNL     1      -3.152   0.331  24.851  0.00  0.00    +0.063 A 
ATOM     11  N   UNL     1      -2.834  -0.429  24.809  0.00  0.00    -0.227 NA
ATOM     12  C   UNL     1      -3.420  -0.935  24.522  0.00  0.00    +0.185 A 
ATOM     13  N   UNL     1      -3.339  -1.746  24.394  0.00  0.00    -0.154 NA
ATOM     14  C   UNL     1      -3.976  -2.182  24.103  0.00  0.00    +0.247 C 
ATOM     15  O   UNL     1      -4.693  -1.809  23.942  0.00  0.00    -0.273 OA
ATOM     19  S   UNL     1      -4.100  -0.488  24.387  0.00  0.00    -0.054 S 
ATOM     20  C   UNL     1      -2.832   1.052  25.093  0.00  0.00    +0.043 C 
ATOM     21  C   UNL     1      -2.050   1.087  25.354  0.00  0.00    +0.006 C 
ATOM     22  C   UNL     1      -3.293   1.736  25.074  0.00  0.00    +0.036 C 
ATOM     23  C   UNL     1      -2.972   2.455  25.316  0.00  0.00    +0.153 C 
ATOM     24  O   UNL     1      -2.190   2.492  25.577  0.00  0.00    -0.223 OA
ENDROOT
BRANCH  14  16
ATOM     16  C   UNL     1      -3.894  -2.994  23.975  0.00  0.00    +0.079 C 
ATOM     17  C   UNL     1      -3.525  -3.711  24.149  0.00  0.00    +0.010 C 
ATOM     18  C   UNL     1      -4.121  -3.681  23.579  0.00  0.00    +0.010 C 
ENDBRANCH  14  16
BRANCH   3   2
ATOM      1  C   UNL     1      -3.193   4.105  26.323  0.00  0.00    +0.010 C 
ATOM      2  C   UNL     1      -3.111   3.861  25.539  0.00  0.00    +0.079 C 
BRANCH   2  25
ATOM     25  C   UNL     1      -2.709   4.336  24.999  0.00  0.00    +0.226 C 
ATOM     26  O   UNL     1      -2.978   4.395  24.221  0.00  0.00    -0.275 OA
ATOM     27  N   UNL     1      -2.036   4.751  25.235  0.00  0.00    -0.274 N 
ATOM     28  C   UNL     1      -1.767   4.692  26.013  0.00  0.00    +0.115 C 
BRANCH  27  29
ATOM     29  C   UNL     1      -1.634   5.226  24.695  0.00  0.00    +0.120 C 
BRANCH  29  30
ATOM     30  C   UNL     1      -0.850   5.443  24.838  0.00  0.00    -0.005 C 
ATOM     31  C   UNL     1      -0.307   5.463  24.218  0.00  0.00    -0.003 C 
ENDBRANCH  29  30
ENDBRANCH  27  29
ENDBRANCH   2  25
ENDBRANCH   3   2
TORSDOF 5
ENDMDL
