MODEL 1
REMARK VINA RESULT:     -12.3      0.000      0.000
REMARK  Name = 
REMARK  3 active torsions:
REMARK  status: ('A' for Active; 'I' for Inactive)
REMARK    1  A    between atoms: C_4  and  C_13
REMARK    2  A    between atoms: N_5  and  C_7
REMARK    3  A    between atoms: C_15  and  C_18
REMARK                            x       y       z     vdW  Elec       q    Type
REMARK                         _______ _______ _______ _____ _____    ______ ____
ROOT
ATOM      1  O   UNL     1      -5.841   2.994  25.302  0.00  0.00    -0.222 OA
ATOM      2  C   UNL     1      -5.203   2.527  25.069  0.00  0.00    +0.170 C 
ATOM      3  C   UNL     1      -5.058   1.751  25.308  0.00  0.00    +0.060 C 
ATOM      4  C   UNL     1      -4.362   1.498  24.943  0.00  0.00    +0.140 C 
ATOM      5  N   UNL     1      -4.078   2.118  24.479  0.00  0.00    -0.265 NA
ATOM      6  C   UNL     1      -4.598   2.754  24.557  0.00  0.00    +0.106 C 
ENDROOT
BRANCH   5   7
ATOM      7  C   UNL     1      -3.394   2.105  24.018  0.00  0.00    +0.058 C 
ATOM      8  C   UNL     1      -3.436   1.879  23.225  0.00  0.00    +0.016 C 
ATOM      9  C   UNL     1      -2.752   1.866  22.763  0.00  0.00    +0.001 C 
ATOM     10  C   UNL     1      -2.027   2.078  23.095  0.00  0.00    +0.000 C 
ATOM     11  C   UNL     1      -1.985   2.303  23.886  0.00  0.00    +0.001 C 
ATOM     12  C   UNL     1      -2.669   2.317  24.348  0.00  0.00    +0.016 C 
ENDBRANCH   5   7
BRANCH   4  13
ATOM     13  C   UNL     1      -4.013   0.755  25.027  0.00  0.00    +0.251 A 
ATOM     14  N   UNL     1      -4.247   0.063  24.644  0.00  0.00    -0.190 NA
ATOM     15  C   UNL     1      -3.747  -0.546  24.889  0.00  0.00    +0.203 A 
ATOM     16  N   UNL     1      -3.204  -0.230  25.424  0.00  0.00    -0.056 NA
ATOM     17  O   UNL     1      -3.368   0.575  25.509  0.00  0.00    -0.336 OA
BRANCH  15  18
ATOM     18  C   UNL     1      -3.783  -1.333  24.643  0.00  0.00    +0.039 A 
ATOM     19  C   UNL     1      -4.202  -1.532  23.961  0.00  0.00    +0.003 A 
ATOM     20  C   UNL     1      -4.238  -2.319  23.715  0.00  0.00    +0.000 A 
ATOM     21  C   UNL     1      -3.856  -2.906  24.151  0.00  0.00    +0.000 A 
ATOM     22  C   UNL     1      -3.437  -2.706  24.833  0.00  0.00    +0.000 A 
ATOM     23  C   UNL     1      -3.401  -1.919  25.079  0.00  0.00    +0.003 A 
ENDBRANCH  15  18
ENDBRANCH   4  13
TORSDOF 3
ENDMDL
MODEL 2
REMARK VINA RESULT:     -11.9      1.405      2.437
REMARK  Name = 
REMARK  3 active torsions:
REMARK  status: ('A' for Active; 'I' for Inactive)
REMARK    1  A    between atoms: C_4  and  C_13
REMARK    2  A    between atoms: N_5  and  C_7
REMARK    3  A    between atoms: C_15  and  C_18
REMARK                            x       y       z     vdW  Elec       q    Type
REMARK                         _______ _______ _______ _____ _____    ______ ____
ROOT
ATOM      1  O   UNL     1       0.450   1.953  24.267  0.00  0.00    -0.222 OA
ATOM      2  C   UNL     1      -0.357   1.794  24.330  0.00  0.00    +0.170 C 
ATOM      3  C   UNL     1      -0.692   1.093  24.605  0.00  0.00    +0.060 C 
ATOM      4  C   UNL     1      -1.513   1.174  24.574  0.00  0.00    +0.140 C 
ATOM      5  N   UNL     1      -1.684   1.926  24.281  0.00  0.00    -0.265 NA
ATOM      6  C   UNL     1      -0.968   2.309  24.129  0.00  0.00    +0.106 C 
ENDROOT
BRANCH   5   7
ATOM      7  C   UNL     1      -2.437   2.240  24.159  0.00  0.00    +0.058 C 
ATOM      8  C   UNL     1      -2.797   2.172  23.419  0.00  0.00    +0.016 C 
ATOM      9  C   UNL     1      -3.550   2.486  23.297  0.00  0.00    +0.001 C 
ATOM     10  C   UNL     1      -3.943   2.868  23.915  0.00  0.00    +0.000 C 
ATOM     11  C   UNL     1      -3.583   2.935  24.654  0.00  0.00    +0.001 C 
ATOM     12  C   UNL     1      -2.829   2.621  24.776  0.00  0.00    +0.016 C 
ENDBRANCH   5   7
BRANCH   4  13
ATOM     13  C   UNL     1      -2.065   0.604  24.798  0.00  0.00    +0.251 A 
ATOM     14  N   UNL     1      -2.306  -0.042  24.346  0.00  0.00    -0.190 NA
ATOM     15  C   UNL     1      -2.864  -0.466  24.782  0.00  0.00    +0.203 A 
ATOM     16  N   UNL     1      -2.968  -0.081  25.505  0.00  0.00    -0.056 NA
ATOM     17  O   UNL     1      -2.474   0.580  25.515  0.00  0.00    -0.336 OA
BRANCH  15  18
ATOM     18  C   UNL     1      -3.250  -1.153  24.539  0.00  0.00    +0.039 A 
ATOM     19  C   UNL     1      -3.947  -1.102  24.100  0.00  0.00    +0.003 A 
ATOM     20  C   UNL     1      -4.333  -1.788  23.857  0.00  0.00    +0.000 A 
ATOM     21  C   UNL     1      -4.022  -2.528  24.052  0.00  0.00    +0.000 A 
ATOM     22  C   UNL     1      -3.326  -2.579  24.491  0.00  0.00    +0.000 A 
ATOM     23  C   UNL     1      -2.939  -1.892  24.735  0.00  0.00    +0.003 A 
ENDBRANCH  15  18
ENDBRANCH   4  13
TORSDOF 3
ENDMDL
MODEL 3
REMARK VINA RESULT:     -11.9      1.513      4.147
REMARK  Name = 
REMARK  3 active torsions:
REMARK  status: ('A' for Active; 'I' for Inactive)
REMARK    1  A    between atoms: C_4  and  C_13
REMARK    2  A    between atoms: N_5  and  C_7
REMARK    3  A    between atoms: C_15  and  C_18
REMARK                            x       y       z     vdW  Elec       q    Type
REMARK                         _______ _______ _______ _____ _____    ______ ____
ROOT
ATOM      1  O   UNL     1       0.060   0.367  24.275  0.00  0.00    -0.222 OA
ATOM      2  C   UNL     1      -0.750   0.242  24.363  0.00  0.00    +0.170 C 
ATOM      3  C   UNL     1      -1.345   0.789  24.198  0.00  0.00    +0.060 C 
ATOM      4  C   UNL     1      -2.071   0.433  24.365  0.00  0.00    +0.140 C 
ATOM      5  N   UNL     1      -1.924  -0.333  24.633  0.00  0.00    -0.265 NA
ATOM      6  C   UNL     1      -1.107  -0.451  24.632  0.00  0.00    +0.106 C 
ENDROOT
BRANCH   5   7
ATOM      7  C   UNL     1      -2.492  -0.885  24.862  0.00  0.00    +0.058 C 
ATOM      8  C   UNL     1      -2.724  -0.934  25.653  0.00  0.00    +0.016 C 
ATOM      9  C   UNL     1      -3.293  -1.486  25.883  0.00  0.00    +0.001 C 
ATOM     10  C   UNL     1      -3.630  -1.989  25.321  0.00  0.00    +0.000 C 
ATOM     11  C   UNL     1      -3.399  -1.939  24.532  0.00  0.00    +0.001 C 
ATOM     12  C   UNL     1      -2.829  -1.387  24.302  0.00  0.00    +0.016 C 
ENDBRANCH   5   7
BRANCH   4  13
ATOM     13  C   UNL     1      -2.813   0.782  24.280  0.00  0.00    +0.251 A 
ATOM     14  N   UNL     1      -3.195   1.254  24.838  0.00  0.00    -0.190 NA
ATOM     15  C   UNL     1      -3.922   1.485  24.524  0.00  0.00    +0.203 A 
ATOM     16  N   UNL     1      -3.990   1.155  23.770  0.00  0.00    -0.056 NA
ATOM     17  O   UNL     1      -3.305   0.721  23.619  0.00  0.00    -0.336 OA
BRANCH  15  18
ATOM     18  C   UNL     1      -4.483   1.961  24.897  0.00  0.00    +0.039 A 
ATOM     19  C   UNL     1      -4.314   2.754  25.052  0.00  0.00    +0.003 A 
ATOM     20  C   UNL     1      -4.875   3.229  25.424  0.00  0.00    +0.000 A 
ATOM     21  C   UNL     1      -5.605   2.913  25.643  0.00  0.00    +0.000 A 
ATOM     22  C   UNL     1      -5.774   2.121  25.488  0.00  0.00    +0.000 A 
ATOM     23  C   UNL     1      -5.213   1.644  25.115  0.00  0.00    +0.003 A 
ENDBRANCH  15  18
ENDBRANCH   4  13
TORSDOF 3
ENDMDL
MODEL 4
REMARK VINA RESULT:     -11.7      1.560      3.944
REMARK  Name = 
REMARK  3 active torsions:
REMARK  status: ('A' for Active; 'I' for Inactive)
REMARK    1  A    between atoms: C_4  and  C_13
REMARK    2  A    between atoms: N_5  and  C_7
REMARK    3  A    between atoms: C_15  and  C_18
REMARK                            x       y       z     vdW  Elec       q    Type
REMARK                         _______ _______ _______ _____ _____    ______ ____
ROOT
ATOM      1  O   UNL     1      -4.344  -2.923  23.871  0.00  0.00    -0.222 OA
ATOM      2  C   UNL     1      -3.981  -2.210  24.072  0.00  0.00    +0.170 C 
ATOM      3  C   UNL     1      -4.283  -1.456  23.927  0.00  0.00    +0.060 C 
ATOM      4  C   UNL     1      -3.742  -0.905  24.219  0.00  0.00    +0.140 C 
ATOM      5  N   UNL     1      -3.107  -1.320  24.544  0.00  0.00    -0.265 NA
ATOM      6  C   UNL     1      -3.255  -2.126  24.453  0.00  0.00    +0.106 C 
ENDROOT
BRANCH   5   7
ATOM      7  C   UNL     1      -2.441  -0.986  24.898  0.00  0.00    +0.058 C 
ATOM      8  C   UNL     1      -1.784  -0.791  24.438  0.00  0.00    +0.016 C 
ATOM      9  C   UNL     1      -1.117  -0.457  24.792  0.00  0.00    +0.001 C 
ATOM     10  C   UNL     1      -1.107  -0.320  25.606  0.00  0.00    +0.000 C 
ATOM     11  C   UNL     1      -1.763  -0.516  26.065  0.00  0.00    +0.001 C 
ATOM     12  C   UNL     1      -2.430  -0.849  25.711  0.00  0.00    +0.016 C 
ENDBRANCH   5   7
BRANCH   4  13
ATOM     13  C   UNL     1      -3.822  -0.085  24.191  0.00  0.00    +0.251 A 
ATOM     14  N   UNL     1      -4.253   0.379  24.720  0.00  0.00    -0.190 NA
ATOM     15  C   UNL     1      -4.183   1.167  24.484  0.00  0.00    +0.203 A 
ATOM     16  N   UNL     1      -3.708   1.190  23.809  0.00  0.00    -0.056 NA
ATOM     17  O   UNL     1      -3.485   0.416  23.628  0.00  0.00    -0.336 OA
BRANCH  15  18
ATOM     18  C   UNL     1      -4.526   1.818  24.857  0.00  0.00    +0.039 A 
ATOM     19  C   UNL     1      -4.071   2.485  25.024  0.00  0.00    +0.003 A 
ATOM     20  C   UNL     1      -4.415   3.135  25.397  0.00  0.00    +0.000 A 
ATOM     21  C   UNL     1      -5.214   3.118  25.604  0.00  0.00    +0.000 A 
ATOM     22  C   UNL     1      -5.668   2.451  25.438  0.00  0.00    +0.000 A 
ATOM     23  C   UNL     1      -5.325   1.800  25.064  0.00  0.00    +0.003 A 
ENDBRANCH  15  18
ENDBRANCH   4  13
TORSDOF 3
ENDMDL
MODEL 5
REMARK VINA RESULT:     -11.7      1.390      3.611
REMARK  Name = 
REMARK  3 active torsions:
REMARK  status: ('A' for Active; 'I' for Inactive)
REMARK    1  A    between atoms: C_4  and  C_13
REMARK    2  A    between atoms: N_5  and  C_7
REMARK    3  A    between atoms: C_15  and  C_18
REMARK                            x       y       z     vdW  Elec       q    Type
REMARK                         _______ _______ _______ _____ _____    ______ ____
ROOT
ATOM      1  O   UNL     1      -6.284   2.124  25.071  0.00  0.00    -0.222 OA
ATOM      2  C   UNL     1      -5.560   1.743  24.964  0.00  0.00    +0.170 C 
ATOM      3  C   UNL     1      -4.840   2.110  24.799  0.00  0.00    +0.060 C 
ATOM      4  C   UNL     1      -4.264   1.523  24.735  0.00  0.00    +0.140 C 
ATOM      5  N   UNL     1      -4.629   0.793  24.862  0.00  0.00    -0.265 NA
ATOM      6  C   UNL     1      -5.431   0.931  25.003  0.00  0.00    +0.106 C 
ENDROOT
BRANCH   5   7
ATOM      7  C   UNL     1      -4.258   0.057  24.849  0.00  0.00    +0.058 C 
ATOM      8  C   UNL     1      -3.948  -0.260  25.545  0.00  0.00    +0.016 C 
ATOM      9  C   UNL     1      -3.577  -0.997  25.533  0.00  0.00    +0.001 C 
ATOM     10  C   UNL     1      -3.517  -1.417  24.824  0.00  0.00    +0.000 C 
ATOM     11  C   UNL     1      -3.827  -1.100  24.129  0.00  0.00    +0.001 C 
ATOM     12  C   UNL     1      -4.198  -0.363  24.142  0.00  0.00    +0.016 C 
ENDBRANCH   5   7
BRANCH   4  13
ATOM     13  C   UNL     1      -3.465   1.643  24.575  0.00  0.00    +0.251 A 
ATOM     14  N   UNL     1      -2.885   1.853  25.123  0.00  0.00    -0.190 NA
ATOM     15  C   UNL     1      -2.166   1.915  24.724  0.00  0.00    +0.203 A 
ATOM     16  N   UNL     1      -2.300   1.743  23.929  0.00  0.00    -0.056 NA
ATOM     17  O   UNL     1      -3.103   1.575  23.836  0.00  0.00    -0.336 OA
BRANCH  15  18
ATOM     18  C   UNL     1      -1.439   2.114  25.061  0.00  0.00    +0.039 A 
ATOM     19  C   UNL     1      -1.359   2.819  25.482  0.00  0.00    +0.003 A 
ATOM     20  C   UNL     1      -0.633   3.017  25.818  0.00  0.00    +0.000 A 
ATOM     21  C   UNL     1       0.013   2.511  25.735  0.00  0.00    +0.000 A 
ATOM     22  C   UNL     1      -0.067   1.806  25.315  0.00  0.00    +0.000 A 
ATOM     23  C   UNL     1      -0.794   1.607  24.978  0.00  0.00    +0.003 A 
ENDBRANCH  15  18
ENDBRANCH   4  13
TORSDOF 3
ENDMDL
MODEL 6
REMARK VINA RESULT:     -11.5      2.053      4.633
REMARK  Name = 
REMARK  3 active torsions:
REMARK  status: ('A' for Active; 'I' for Inactive)
REMARK    1  A    between atoms: C_4  and  C_13
REMARK    2  A    between atoms: N_5  and  C_7
REMARK    3  A    between atoms: C_15  and  C_18
REMARK                            x       y       z     vdW  Elec       q    Type
REMARK                         _______ _______ _______ _____ _____    ______ ____
ROOT
ATOM      1  O   UNL     1      -0.234  -1.714  25.377  0.00  0.00    -0.222 OA
ATOM      2  C   UNL     1      -0.828  -1.177  25.179  0.00  0.00    +0.170 C 
ATOM      3  C   UNL     1      -0.717  -0.381  24.991  0.00  0.00    +0.060 C 
ATOM      4  C   UNL     1      -1.457  -0.053  24.830  0.00  0.00    +0.140 C 
ATOM      5  N   UNL     1      -2.024  -0.646  24.919  0.00  0.00    -0.265 NA
ATOM      6  C   UNL     1      -1.634  -1.341  25.135  0.00  0.00    +0.106 C 
ENDROOT
BRANCH   5   7
ATOM      7  C   UNL     1      -2.837  -0.559  24.811  0.00  0.00    +0.058 C 
ATOM      8  C   UNL     1      -3.322  -0.384  25.456  0.00  0.00    +0.016 C 
ATOM      9  C   UNL     1      -4.136  -0.298  25.348  0.00  0.00    +0.001 C 
ATOM     10  C   UNL     1      -4.464  -0.387  24.596  0.00  0.00    +0.000 C 
ATOM     11  C   UNL     1      -3.979  -0.562  23.953  0.00  0.00    +0.001 C 
ATOM     12  C   UNL     1      -3.165  -0.648  24.060  0.00  0.00    +0.016 C 
ENDBRANCH   5   7
BRANCH   4  13
ATOM     13  C   UNL     1      -1.604   0.731  24.618  0.00  0.00    +0.251 A 
ATOM     14  N   UNL     1      -1.666   1.370  25.135  0.00  0.00    -0.190 NA
ATOM     15  C   UNL     1      -1.815   2.047  24.687  0.00  0.00    +0.203 A 
ATOM     16  N   UNL     1      -1.845   1.826  23.893  0.00  0.00    -0.056 NA
ATOM     17  O   UNL     1      -1.714   1.012  23.850  0.00  0.00    -0.336 OA
BRANCH  15  18
ATOM     18  C   UNL     1      -1.916   2.811  24.982  0.00  0.00    +0.039 A 
ATOM     19  C   UNL     1      -2.675   3.099  25.130  0.00  0.00    +0.003 A 
ATOM     20  C   UNL     1      -2.775   3.863  25.425  0.00  0.00    +0.000 A 
ATOM     21  C   UNL     1      -2.118   4.339  25.572  0.00  0.00    +0.000 A 
ATOM     22  C   UNL     1      -1.359   4.051  25.425  0.00  0.00    +0.000 A 
ATOM     23  C   UNL     1      -1.258   3.286  25.130  0.00  0.00    +0.003 A 
ENDBRANCH  15  18
ENDBRANCH   4  13
TORSDOF 3
ENDMDL
