MODEL 1
REMARK VINA RESULT:      -9.3      0.000      0.000
REMARK  Name = 
REMARK  7 active torsions:
REMARK  status: ('A' for Active; 'I' for Inactive)
REMARK    1  A    between atoms: O_2  and  C_3
REMARK    2  A    between atoms: C_8  and  C_9
REMARK    3  A    between atoms: C_9  and  C_10
REMARK    4  A    between atoms: C_12  and  C_13
REMARK    5  A    between atoms: C_16  and  C_17
REMARK    6  A    between atoms: C_17  and  N_18
REMARK    7  A    between atoms: N_21  and  C_22
REMARK                            x       y       z     vdW  Elec       q    Type
REMARK                         _______ _______ _______ _____ _____    ______ ____
ROOT
ATOM     10  C   UNL     1      -2.469   1.357  23.483  0.00  0.00    +0.026 C 
ATOM     11  C   UNL     1      -2.254   0.996  24.193  0.00  0.00    +0.005 C 
ATOM     12  C   UNL     1      -1.461   0.828  24.346  0.00  0.00    +0.006 C 
ATOM     16  C   UNL     1      -0.883   1.020  23.790  0.00  0.00    +0.043 C 
ATOM     29  C   UNL     1      -1.098   1.381  23.079  0.00  0.00    -0.033 C 
ATOM     30  C   UNL     1      -1.891   1.549  22.925  0.00  0.00    -0.048 C 
ATOM     31  C   UNL     1      -2.106   1.910  22.215  0.00  0.00    +0.026 C 
ENDROOT
BRANCH  12  13
ATOM     13  C   UNL     1      -1.245   0.468  25.056  0.00  0.00    +0.000 C 
ATOM     14  C   UNL     1      -0.978   0.927  25.688  0.00  0.00    +0.000 C 
ATOM     15  C   UNL     1      -1.297  -0.352  25.135  0.00  0.00    +0.000 C 
ENDBRANCH  12  13
BRANCH  10   9
ATOM      9  C   UNL     1      -3.262   1.525  23.329  0.00  0.00    +0.070 C 
BRANCH   9   8
ATOM      3  C   UNL     1      -5.410   2.816  25.839  0.00  0.00    +0.140 A 
ATOM      4  C   UNL     1      -5.206   2.128  25.433  0.00  0.00    +0.058 A 
ATOM      5  C   UNL     1      -4.617   2.149  24.856  0.00  0.00    +0.103 A 
ATOM      6  C   UNL     1      -4.233   2.858  24.683  0.00  0.00    +0.100 A 
ATOM      7  N   UNL     1      -3.679   2.711  24.091  0.00  0.00    -0.229 NA
ATOM      8  C   UNL     1      -3.720   1.911  23.896  0.00  0.00    +0.139 A 
ATOM     32  N   UNL     1      -4.300   1.564  24.369  0.00  0.00    -0.229 NA
ATOM     33  C   UNL     1      -4.438   3.548  25.089  0.00  0.00    +0.024 A 
ATOM     34  C   UNL     1      -5.027   3.526  25.666  0.00  0.00    +0.039 A 
BRANCH   3   2
ATOM      1  C   UNL     1      -6.383   2.086  26.589  0.00  0.00    +0.252 C 
ATOM      2  O   UNL     1      -5.999   2.796  26.416  0.00  0.00    -0.471 OA
ENDBRANCH   3   2
ENDBRANCH   9   8
ENDBRANCH  10   9
BRANCH  16  17
ATOM     17  C   UNL     1      -0.090   0.852  23.942  0.00  0.00    +0.121 C 
BRANCH  17  18
ATOM     18  N   UNL     1       0.376   0.500  23.360  0.00  0.00    -0.187 NA
ATOM     19  C   UNL     1       1.197   0.578  23.385  0.00  0.00    +0.344 C 
ATOM     20  O   UNL     1       1.552   1.009  23.993  0.00  0.00    -0.249 OA
ATOM     21  N   UNL     1       1.663   0.225  22.802  0.00  0.00    -0.161 NA
BRANCH  21  22
ATOM     22  C   UNL     1       2.484   0.304  22.828  0.00  0.00    +0.075 A 
ATOM     23  C   UNL     1       2.953  -0.341  23.038  0.00  0.00    +0.019 A 
ATOM     24  C   UNL     1       3.774  -0.264  23.064  0.00  0.00    +0.031 A 
ATOM     25  C   UNL     1       4.126   0.460  22.879  0.00  0.00    +0.140 A 
ATOM     26  F   UNL     1       4.947   0.537  22.905  0.00  0.00    -0.204 F 
ATOM     27  C   UNL     1       3.656   1.105  22.670  0.00  0.00    +0.031 A 
ATOM     28  C   UNL     1       2.835   1.026  22.644  0.00  0.00    +0.019 A 
ENDBRANCH  21  22
ENDBRANCH  17  18
ENDBRANCH  16  17
TORSDOF 7
ENDMDL
MODEL 2
REMARK VINA RESULT:      -8.0      2.479      6.891
REMARK  Name = 
REMARK  7 active torsions:
REMARK  status: ('A' for Active; 'I' for Inactive)
REMARK    1  A    between atoms: O_2  and  C_3
REMARK    2  A    between atoms: C_8  and  C_9
REMARK    3  A    between atoms: C_9  and  C_10
REMARK    4  A    between atoms: C_12  and  C_13
REMARK    5  A    between atoms: C_16  and  C_17
REMARK    6  A    between atoms: C_17  and  N_18
REMARK    7  A    between atoms: N_21  and  C_22
REMARK                            x       y       z     vdW  Elec       q    Type
REMARK                         _______ _______ _______ _____ _____    ______ ____
ROOT
ATOM     10  C   UNL     1      -0.510  -0.009  24.366  0.00  0.00    +0.026 C 
ATOM     11  C   UNL     1      -0.224   0.740  24.559  0.00  0.00    +0.005 C 
ATOM     12  C   UNL     1      -0.750   1.338  24.777  0.00  0.00    +0.006 C 
ATOM     16  C   UNL     1      -1.560   1.188  24.801  0.00  0.00    +0.043 C 
ATOM     29  C   UNL     1      -1.846   0.438  24.607  0.00  0.00    -0.033 C 
ATOM     30  C   UNL     1      -1.321  -0.160  24.390  0.00  0.00    -0.048 C 
ATOM     31  C   UNL     1      -1.607  -0.910  24.196  0.00  0.00    +0.026 C 
ENDROOT
BRANCH  12  13
ATOM     13  C   UNL     1      -0.464   2.088  24.970  0.00  0.00    +0.000 C 
ATOM     14  C   UNL     1      -0.396   2.667  24.387  0.00  0.00    +0.000 C 
ATOM     15  C   UNL     1      -0.245   2.258  25.748  0.00  0.00    +0.000 C 
ENDBRANCH  12  13
BRANCH  10   9
ATOM      9  C   UNL     1       0.014  -0.607  24.148  0.00  0.00    +0.070 C 
BRANCH   9   8
ATOM      3  C   UNL     1       2.927   0.171  22.280  0.00  0.00    +0.140 A 
ATOM      4  C   UNL     1       2.631   0.105  23.046  0.00  0.00    +0.058 A 
ATOM      5  C   UNL     1       1.845  -0.114  23.169  0.00  0.00    +0.103 A 
ATOM      6  C   UNL     1       1.355  -0.267  22.523  0.00  0.00    +0.100 A 
ATOM      7  N   UNL     1       0.610  -0.470  22.811  0.00  0.00    -0.229 NA
ATOM      8  C   UNL     1       0.639  -0.443  23.635  0.00  0.00    +0.139 A 
ATOM     32  N   UNL     1       1.402  -0.223  23.855  0.00  0.00    -0.229 NA
ATOM     33  C   UNL     1       1.651  -0.201  21.755  0.00  0.00    +0.024 A 
ATOM     34  C   UNL     1       2.437   0.018  21.634  0.00  0.00    +0.039 A 
BRANCH   3   2
ATOM      1  C   UNL     1       4.096   0.875  22.704  0.00  0.00    +0.252 C 
ATOM      2  O   UNL     1       3.712   0.390  22.158  0.00  0.00    -0.471 OA
ENDBRANCH   3   2
ENDBRANCH   9   8
ENDBRANCH  10   9
BRANCH  16  17
ATOM     17  C   UNL     1      -2.085   1.786  25.018  0.00  0.00    +0.121 C 
BRANCH  17  18
ATOM     18  N   UNL     1      -2.867   1.762  24.757  0.00  0.00    -0.187 NA
ATOM     19  C   UNL     1      -3.408   2.326  25.020  0.00  0.00    +0.344 C 
ATOM     20  O   UNL     1      -3.166   2.915  25.545  0.00  0.00    -0.249 OA
ATOM     21  N   UNL     1      -4.190   2.302  24.758  0.00  0.00    -0.161 NA
BRANCH  21  22
ATOM     22  C   UNL     1      -4.731   2.867  25.022  0.00  0.00    +0.075 A 
ATOM     23  C   UNL     1      -5.375   2.638  25.483  0.00  0.00    +0.019 A 
ATOM     24  C   UNL     1      -5.916   3.202  25.747  0.00  0.00    +0.031 A 
ATOM     25  C   UNL     1      -5.811   3.997  25.551  0.00  0.00    +0.140 A 
ATOM     26  F   UNL     1      -6.352   4.561  25.815  0.00  0.00    -0.204 F 
ATOM     27  C   UNL     1      -5.166   4.227  25.090  0.00  0.00    +0.031 A 
ATOM     28  C   UNL     1      -4.626   3.661  24.826  0.00  0.00    +0.019 A 
ENDBRANCH  21  22
ENDBRANCH  17  18
ENDBRANCH  16  17
TORSDOF 7
ENDMDL
MODEL 3
REMARK VINA RESULT:      -6.2     17.428     19.122
REMARK  Name = 
REMARK  7 active torsions:
REMARK  status: ('A' for Active; 'I' for Inactive)
REMARK    1  A    between atoms: O_2  and  C_3
REMARK    2  A    between atoms: C_8  and  C_9
REMARK    3  A    between atoms: C_9  and  C_10
REMARK    4  A    between atoms: C_12  and  C_13
REMARK    5  A    between atoms: C_16  and  C_17
REMARK    6  A    between atoms: C_17  and  N_18
REMARK    7  A    between atoms: N_21  and  C_22
REMARK                            x       y       z     vdW  Elec       q    Type
REMARK                         _______ _______ _______ _____ _____    ______ ____
ROOT
ATOM     10  C   UNL     1      16.672  -6.267  28.211  0.00  0.00    +0.026 C 
ATOM     11  C   UNL     1      16.345  -6.705  27.593  0.00  0.00    +0.005 C 
ATOM     12  C   UNL     1      16.397  -6.428  26.818  0.00  0.00    +0.006 C 
ATOM     16  C   UNL     1      16.776  -5.713  26.660  0.00  0.00    +0.043 C 
ATOM     29  C   UNL     1      17.102  -5.274  27.278  0.00  0.00    -0.033 C 
ATOM     30  C   UNL     1      17.051  -5.550  28.053  0.00  0.00    -0.048 C 
ATOM     31  C   UNL     1      17.377  -5.111  28.671  0.00  0.00    +0.026 C 
ENDROOT
BRANCH  12  13
ATOM     13  C   UNL     1      16.071  -6.867  26.201  0.00  0.00    +0.000 C 
ATOM     14  C   UNL     1      16.543  -7.388  25.769  0.00  0.00    +0.000 C 
ATOM     15  C   UNL     1      15.271  -6.785  26.014  0.00  0.00    +0.000 C 
ENDBRANCH  12  13
BRANCH  10   9
ATOM      9  C   UNL     1      16.620  -6.543  28.986  0.00  0.00    +0.070 C 
BRANCH   9   8
ATOM      3  C   UNL     1      13.416  -6.718  30.498  0.00  0.00    +0.140 A 
ATOM      4  C   UNL     1      14.005  -6.194  30.255  0.00  0.00    +0.058 A 
ATOM      5  C   UNL     1      14.695  -6.482  29.906  0.00  0.00    +0.103 A 
ATOM      6  C   UNL     1      14.796  -7.294  29.801  0.00  0.00    +0.100 A 
ATOM      7  N   UNL     1      15.529  -7.415  29.444  0.00  0.00    -0.229 NA
ATOM      8  C   UNL     1      15.882  -6.679  29.328  0.00  0.00    +0.139 A 
ATOM     32  N   UNL     1      15.366  -6.103  29.614  0.00  0.00    -0.229 NA
ATOM     33  C   UNL     1      14.207  -7.818  30.044  0.00  0.00    +0.024 A 
ATOM     34  C   UNL     1      13.517  -7.530  30.393  0.00  0.00    +0.039 A 
BRANCH   3   2
ATOM      1  C   UNL     1      11.990  -6.690  30.581  0.00  0.00    +0.252 C 
ATOM      2  O   UNL     1      12.726  -6.430  30.847  0.00  0.00    -0.471 OA
ENDBRANCH   3   2
ENDBRANCH   9   8
ENDBRANCH  10   9
BRANCH  16  17
ATOM     17  C   UNL     1      16.828  -5.435  25.885  0.00  0.00    +0.121 C 
BRANCH  17  18
ATOM     18  N   UNL     1      17.236  -4.737  25.724  0.00  0.00    -0.187 NA
ATOM     19  C   UNL     1      16.997  -4.253  25.100  0.00  0.00    +0.344 C 
ATOM     20  O   UNL     1      16.349  -4.468  24.637  0.00  0.00    -0.249 OA
ATOM     21  N   UNL     1      17.405  -3.554  24.939  0.00  0.00    -0.161 NA
BRANCH  21  22
ATOM     22  C   UNL     1      17.165  -3.071  24.315  0.00  0.00    +0.075 A 
ATOM     23  C   UNL     1      16.756  -2.371  24.469  0.00  0.00    +0.019 A 
ATOM     24  C   UNL     1      16.516  -1.887  23.846  0.00  0.00    +0.031 A 
ATOM     25  C   UNL     1      16.684  -2.104  23.067  0.00  0.00    +0.140 A 
ATOM     26  F   UNL     1      16.444  -1.620  22.444  0.00  0.00    -0.204 F 
ATOM     27  C   UNL     1      17.093  -2.804  22.913  0.00  0.00    +0.031 A 
ATOM     28  C   UNL     1      17.333  -3.287  23.537  0.00  0.00    +0.019 A 
ENDBRANCH  21  22
ENDBRANCH  17  18
ENDBRANCH  16  17
TORSDOF 7
ENDMDL
MODEL 4
REMARK VINA RESULT:      -5.6     15.241     18.631
REMARK  Name = 
REMARK  7 active torsions:
REMARK  status: ('A' for Active; 'I' for Inactive)
REMARK    1  A    between atoms: O_2  and  C_3
REMARK    2  A    between atoms: C_8  and  C_9
REMARK    3  A    between atoms: C_9  and  C_10
REMARK    4  A    between atoms: C_12  and  C_13
REMARK    5  A    between atoms: C_16  and  C_17
REMARK    6  A    between atoms: C_17  and  N_18
REMARK    7  A    between atoms: N_21  and  C_22
REMARK                            x       y       z     vdW  Elec       q    Type
REMARK                         _______ _______ _______ _____ _____    ______ ____
ROOT
ATOM     10  C   UNL     1      13.013  -8.343  31.329  0.00  0.00    +0.026 C 
ATOM     11  C   UNL     1      12.807  -7.588  31.591  0.00  0.00    +0.005 C 
ATOM     12  C   UNL     1      12.028  -7.425  31.806  0.00  0.00    +0.006 C 
ATOM     16  C   UNL     1      11.454  -8.015  31.758  0.00  0.00    +0.043 C 
ATOM     29  C   UNL     1      11.660  -8.770  31.496  0.00  0.00    -0.033 C 
ATOM     30  C   UNL     1      12.439  -8.934  31.281  0.00  0.00    -0.048 C 
ATOM     31  C   UNL     1      12.644  -9.689  31.019  0.00  0.00    +0.026 C 
ENDROOT
BRANCH  12  13
ATOM     13  C   UNL     1      11.822  -6.670  32.068  0.00  0.00    +0.000 C 
ATOM     14  C   UNL     1      11.842  -6.493  32.873  0.00  0.00    +0.000 C 
ATOM     15  C   UNL     1      11.595  -6.092  31.524  0.00  0.00    +0.000 C 
ENDBRANCH  12  13
BRANCH  10   9
ATOM      9  C   UNL     1      13.792  -8.508  31.115  0.00  0.00    +0.070 C 
BRANCH   9   8
ATOM      3  C   UNL     1      15.801  -6.075  29.494  0.00  0.00    +0.140 A 
ATOM      4  C   UNL     1      15.629  -6.407  30.229  0.00  0.00    +0.058 A 
ATOM      5  C   UNL     1      15.066  -7.007  30.289  0.00  0.00    +0.103 A 
ATOM      6  C   UNL     1      14.675  -7.275  29.613  0.00  0.00    +0.100 A 
ATOM      7  N   UNL     1      14.151  -7.869  29.840  0.00  0.00    -0.229 NA
ATOM      8  C   UNL     1      14.217  -7.969  30.656  0.00  0.00    +0.139 A 
ATOM     32  N   UNL     1      14.782  -7.436  30.933  0.00  0.00    -0.229 NA
ATOM     33  C   UNL     1      14.848  -6.942  28.877  0.00  0.00    +0.024 A 
ATOM     34  C   UNL     1      15.411  -6.342  28.818  0.00  0.00    +0.039 A 
BRANCH   3   2
ATOM      1  C   UNL     1      17.038  -5.585  28.972  0.00  0.00    +0.252 C 
ATOM      2  O   UNL     1      16.364  -5.475  29.435  0.00  0.00    -0.471 OA
ENDBRANCH   3   2
ENDBRANCH   9   8
ENDBRANCH  10   9
BRANCH  16  17
ATOM     17  C   UNL     1      10.674  -7.852  31.972  0.00  0.00    +0.121 C 
BRANCH  17  18
ATOM     18  N   UNL     1      10.100  -8.441  31.918  0.00  0.00    -0.187 NA
ATOM     19  C   UNL     1       9.302  -8.250  32.003  0.00  0.00    +0.344 C 
ATOM     20  O   UNL     1       9.078  -7.467  32.144  0.00  0.00    -0.249 OA
ATOM     21  N   UNL     1       8.727  -8.839  31.949  0.00  0.00    -0.161 NA
BRANCH  21  22
ATOM     22  C   UNL     1       7.930  -8.647  32.035  0.00  0.00    +0.075 A 
ATOM     23  C   UNL     1       7.590  -8.625  32.786  0.00  0.00    +0.019 A 
ATOM     24  C   UNL     1       6.793  -8.432  32.873  0.00  0.00    +0.031 A 
ATOM     25  C   UNL     1       6.335  -8.261  32.208  0.00  0.00    +0.140 A 
ATOM     26  F   UNL     1       5.537  -8.069  32.295  0.00  0.00    -0.204 F 
ATOM     27  C   UNL     1       6.674  -8.283  31.457  0.00  0.00    +0.031 A 
ATOM     28  C   UNL     1       7.472  -8.476  31.371  0.00  0.00    +0.019 A 
ENDBRANCH  21  22
ENDBRANCH  17  18
ENDBRANCH  16  17
TORSDOF 7
ENDMDL
