MODEL 1
REMARK VINA RESULT:      -8.0      0.000      0.000
REMARK  Name = 
REMARK  7 active torsions:
REMARK  status: ('A' for Active; 'I' for Inactive)
REMARK    1  A    between atoms: O_2  and  C_3
REMARK    2  A    between atoms: C_6  and  C_7
REMARK    3  A    between atoms: C_7  and  N_8
REMARK    4  A    between atoms: N_8  and  C_9
REMARK    5  A    between atoms: C_12  and  C_13
REMARK    6  A    between atoms: C_13  and  N_14
REMARK    7  A    between atoms: N_17  and  C_18
REMARK                            x       y       z     vdW  Elec       q    Type
REMARK                         _______ _______ _______ _____ _____    ______ ____
ROOT
ATOM      9  C   UNL     1       0.771   0.656  23.518  0.00  0.00    +0.135 C 
ATOM     10  C   UNL     1       0.327   0.024  23.230  0.00  0.00    +0.162 C 
ATOM     11  O   UNL     1      -0.455   0.129  23.474  0.00  0.00    -0.350 OA
ATOM     12  C   UNL     1      -0.493   0.826  23.913  0.00  0.00    +0.169 C 
ATOM     24  C   UNL     1       0.264   1.153  23.941  0.00  0.00    +0.199 C 
ATOM     25  O   UNL     1       0.477   1.852  24.323  0.00  0.00    -0.219 OA
ENDROOT
BRANCH   9   8
ATOM      8  N   UNL     1       1.579   0.774  23.405  0.00  0.00    -0.209 NA
BRANCH   8   7
ATOM      7  C   UNL     1       1.998   0.286  22.887  0.00  0.00    +0.115 C 
BRANCH   7   6
ATOM      3  C   UNL     1       4.471   0.229  22.965  0.00  0.00    +0.139 A 
ATOM      4  C   UNL     1       4.081   0.917  22.726  0.00  0.00    +0.037 A 
ATOM      5  C   UNL     1       3.257   0.935  22.701  0.00  0.00    +0.000 A 
ATOM      6  C   UNL     1       2.823   0.267  22.913  0.00  0.00    -0.005 A 
ATOM     26  C   UNL     1       3.212  -0.420  23.151  0.00  0.00    +0.000 A 
ATOM     27  C   UNL     1       4.037  -0.438  23.177  0.00  0.00    +0.037 A 
BRANCH   3   2
ATOM      1  C   UNL     1       5.685   0.186  23.718  0.00  0.00    +0.252 C 
ATOM      2  O   UNL     1       5.295   0.211  22.991  0.00  0.00    -0.471 OA
ENDBRANCH   3   2
ENDBRANCH   7   6
ENDBRANCH   8   7
ENDBRANCH   9   8
BRANCH  12  13
ATOM     13  C   UNL     1      -1.171   1.142  24.264  0.00  0.00    +0.149 C 
BRANCH  13  14
ATOM     14  N   UNL     1      -1.910   1.014  23.920  0.00  0.00    -0.184 NA
ATOM     15  C   UNL     1      -2.591   1.282  24.299  0.00  0.00    +0.344 C 
ATOM     16  O   UNL     1      -2.534   1.678  25.020  0.00  0.00    -0.249 OA
ATOM     17  N   UNL     1      -3.331   1.154  23.956  0.00  0.00    -0.161 NA
BRANCH  17  18
ATOM     18  C   UNL     1      -4.013   1.423  24.335  0.00  0.00    +0.075 A 
ATOM     19  C   UNL     1      -4.435   0.916  24.833  0.00  0.00    +0.017 A 
ATOM     20  C   UNL     1      -5.116   1.185  25.212  0.00  0.00    +0.001 A 
ATOM     21  C   UNL     1      -5.376   1.958  25.094  0.00  0.00    +0.000 A 
ATOM     22  C   UNL     1      -4.956   2.464  24.597  0.00  0.00    +0.001 A 
ATOM     23  C   UNL     1      -4.273   2.196  24.217  0.00  0.00    +0.017 A 
ENDBRANCH  17  18
ENDBRANCH  13  14
ENDBRANCH  12  13
TORSDOF 7
ENDMDL
MODEL 2
REMARK VINA RESULT:      -7.5      0.961      7.048
REMARK  Name = 
REMARK  7 active torsions:
REMARK  status: ('A' for Active; 'I' for Inactive)
REMARK    1  A    between atoms: O_2  and  C_3
REMARK    2  A    between atoms: C_6  and  C_7
REMARK    3  A    between atoms: C_7  and  N_8
REMARK    4  A    between atoms: N_8  and  C_9
REMARK    5  A    between atoms: C_12  and  C_13
REMARK    6  A    between atoms: C_13  and  N_14
REMARK    7  A    between atoms: N_17  and  C_18
REMARK                            x       y       z     vdW  Elec       q    Type
REMARK                         _______ _______ _______ _____ _____    ______ ____
ROOT
ATOM      9  C   UNL     1      -1.587   1.030  24.147  0.00  0.00    +0.135 C 
ATOM     10  C   UNL     1      -1.459   0.259  23.882  0.00  0.00    +0.162 C 
ATOM     11  O   UNL     1      -0.658   0.181  23.701  0.00  0.00    -0.350 OA
ATOM     12  C   UNL     1      -0.291   0.904  23.853  0.00  0.00    +0.169 C 
ATOM     24  C   UNL     1      -0.864   1.429  24.130  0.00  0.00    +0.199 C 
ATOM     25  O   UNL     1      -0.737   2.214  24.349  0.00  0.00    -0.219 OA
ENDROOT
BRANCH   9   8
ATOM      8  N   UNL     1      -2.309   1.348  24.388  0.00  0.00    -0.209 NA
BRANCH   8   7
ATOM      7  C   UNL     1      -3.015   1.030  24.101  0.00  0.00    +0.115 C 
BRANCH   7   6
ATOM      3  C   UNL     1      -5.185   1.877  24.939  0.00  0.00    +0.139 A 
ATOM      4  C   UNL     1      -4.727   2.342  24.434  0.00  0.00    +0.037 A 
ATOM      5  C   UNL     1      -4.004   2.060  24.155  0.00  0.00    +0.000 A 
ATOM      6  C   UNL     1      -3.738   1.312  24.381  0.00  0.00    -0.005 A 
ATOM     26  C   UNL     1      -4.195   0.847  24.886  0.00  0.00    +0.000 A 
ATOM     27  C   UNL     1      -4.919   1.130  25.165  0.00  0.00    +0.037 A 
BRANCH   3   2
ATOM      1  C   UNL     1      -5.925   2.737  25.808  0.00  0.00    +0.252 C 
ATOM      2  O   UNL     1      -5.907   2.159  25.218  0.00  0.00    -0.471 OA
ENDBRANCH   3   2
ENDBRANCH   7   6
ENDBRANCH   8   7
ENDBRANCH   9   8
BRANCH  12  13
ATOM     13  C   UNL     1       0.511   1.072  23.748  0.00  0.00    +0.149 C 
BRANCH  13  14
ATOM     14  N   UNL     1       0.985   0.561  23.307  0.00  0.00    -0.184 NA
ATOM     15  C   UNL     1       1.804   0.652  23.313  0.00  0.00    +0.344 C 
ATOM     16  O   UNL     1       2.149   1.252  23.760  0.00  0.00    -0.249 OA
ATOM     17  N   UNL     1       2.279   0.140  22.872  0.00  0.00    -0.161 NA
BRANCH  17  18
ATOM     18  C   UNL     1       3.099   0.231  22.878  0.00  0.00    +0.075 A 
ATOM     19  C   UNL     1       3.569  -0.297  23.305  0.00  0.00    +0.017 A 
ATOM     20  C   UNL     1       4.389  -0.206  23.311  0.00  0.00    +0.001 A 
ATOM     21  C   UNL     1       4.738   0.411  22.892  0.00  0.00    +0.000 A 
ATOM     22  C   UNL     1       4.269   0.939  22.465  0.00  0.00    +0.001 A 
ATOM     23  C   UNL     1       3.449   0.848  22.459  0.00  0.00    +0.017 A 
ENDBRANCH  17  18
ENDBRANCH  13  14
ENDBRANCH  12  13
TORSDOF 7
ENDMDL
MODEL 3
REMARK VINA RESULT:      -7.4      4.532      5.955
REMARK  Name = 
REMARK  7 active torsions:
REMARK  status: ('A' for Active; 'I' for Inactive)
REMARK    1  A    between atoms: O_2  and  C_3
REMARK    2  A    between atoms: C_6  and  C_7
REMARK    3  A    between atoms: C_7  and  N_8
REMARK    4  A    between atoms: N_8  and  C_9
REMARK    5  A    between atoms: C_12  and  C_13
REMARK    6  A    between atoms: C_13  and  N_14
REMARK    7  A    between atoms: N_17  and  C_18
REMARK                            x       y       z     vdW  Elec       q    Type
REMARK                         _______ _______ _______ _____ _____    ______ ____
ROOT
ATOM      9  C   UNL     1      -4.667   0.953  24.751  0.00  0.00    +0.135 C 
ATOM     10  C   UNL     1      -5.152   1.236  25.356  0.00  0.00    +0.162 C 
ATOM     11  O   UNL     1      -5.030   2.050  25.421  0.00  0.00    -0.350 OA
ATOM     12  C   UNL     1      -4.470   2.270  24.857  0.00  0.00    +0.169 C 
ATOM     24  C   UNL     1      -4.245   1.592  24.443  0.00  0.00    +0.199 C 
ATOM     25  O   UNL     1      -3.695   1.560  23.829  0.00  0.00    -0.219 OA
ENDROOT
BRANCH   9   8
ATOM      8  N   UNL     1      -4.612   0.170  24.499  0.00  0.00    -0.209 NA
BRANCH   8   7
ATOM      7  C   UNL     1      -4.527  -0.436  25.052  0.00  0.00    +0.115 C 
BRANCH   7   6
ATOM      3  C   UNL     1      -3.255  -2.478  24.466  0.00  0.00    +0.139 A 
ATOM      4  C   UNL     1      -3.866  -2.217  23.977  0.00  0.00    +0.037 A 
ATOM      5  C   UNL     1      -4.290  -1.537  24.172  0.00  0.00    +0.000 A 
ATOM      6  C   UNL     1      -4.103  -1.117  24.857  0.00  0.00    -0.005 A 
ATOM     26  C   UNL     1      -3.492  -1.377  25.347  0.00  0.00    +0.000 A 
ATOM     27  C   UNL     1      -3.068  -2.057  25.151  0.00  0.00    +0.037 A 
BRANCH   3   2
ATOM      1  C   UNL     1      -2.007  -3.135  24.237  0.00  0.00    +0.252 C 
ATOM      2  O   UNL     1      -2.831  -3.157  24.271  0.00  0.00    -0.471 OA
ENDBRANCH   3   2
ENDBRANCH   7   6
ENDBRANCH   8   7
ENDBRANCH   9   8
BRANCH  12  13
ATOM     13  C   UNL     1      -4.184   3.034  24.730  0.00  0.00    +0.149 C 
BRANCH  13  14
ATOM     14  N   UNL     1      -3.670   3.378  25.276  0.00  0.00    -0.184 NA
ATOM     15  C   UNL     1      -3.025   3.819  25.013  0.00  0.00    +0.344 C 
ATOM     16  O   UNL     1      -2.893   3.915  24.205  0.00  0.00    -0.249 OA
ATOM     17  N   UNL     1      -2.511   4.163  25.560  0.00  0.00    -0.161 NA
BRANCH  17  18
ATOM     18  C   UNL     1      -1.865   4.604  25.296  0.00  0.00    +0.075 A 
ATOM     19  C   UNL     1      -1.151   4.227  25.125  0.00  0.00    +0.017 A 
ATOM     20  C   UNL     1      -0.505   4.668  24.862  0.00  0.00    +0.001 A 
ATOM     21  C   UNL     1      -0.573   5.484  24.770  0.00  0.00    +0.000 A 
ATOM     22  C   UNL     1      -1.287   5.861  24.940  0.00  0.00    +0.001 A 
ATOM     23  C   UNL     1      -1.933   5.420  25.204  0.00  0.00    +0.017 A 
ENDBRANCH  17  18
ENDBRANCH  13  14
ENDBRANCH  12  13
TORSDOF 7
ENDMDL
MODEL 4
REMARK VINA RESULT:      -6.2     15.222     16.619
REMARK  Name = 
REMARK  7 active torsions:
REMARK  status: ('A' for Active; 'I' for Inactive)
REMARK    1  A    between atoms: O_2  and  C_3
REMARK    2  A    between atoms: C_6  and  C_7
REMARK    3  A    between atoms: C_7  and  N_8
REMARK    4  A    between atoms: N_8  and  C_9
REMARK    5  A    between atoms: C_12  and  C_13
REMARK    6  A    between atoms: C_13  and  N_14
REMARK    7  A    between atoms: N_17  and  C_18
REMARK                            x       y       z     vdW  Elec       q    Type
REMARK                         _______ _______ _______ _____ _____    ______ ____
ROOT
ATOM      9  C   UNL     1      -4.902 -10.516  14.961  0.00  0.00    +0.135 C 
ATOM     10  C   UNL     1      -4.103 -10.612  14.781  0.00  0.00    +0.162 C 
ATOM     11  O   UNL     1      -4.017 -10.556  13.962  0.00  0.00    -0.350 OA
ATOM     12  C   UNL     1      -4.763 -10.425  13.636  0.00  0.00    +0.169 C 
ATOM     24  C   UNL     1      -5.311 -10.400  14.254  0.00  0.00    +0.199 C 
ATOM     25  O   UNL     1      -6.123 -10.281  14.176  0.00  0.00    -0.219 OA
ENDROOT
BRANCH   9   8
ATOM      8  N   UNL     1      -5.235 -10.533  15.715  0.00  0.00    -0.209 NA
BRANCH   8   7
ATOM      7  C   UNL     1      -4.769 -10.364  16.375  0.00  0.00    +0.115 C 
BRANCH   7   6
ATOM      3  C   UNL     1      -5.690 -10.667  18.653  0.00  0.00    +0.139 A 
ATOM      4  C   UNL     1      -6.189 -10.452  18.031  0.00  0.00    +0.037 A 
ATOM      5  C   UNL     1      -5.881 -10.351  17.273  0.00  0.00    +0.000 A 
ATOM      6  C   UNL     1      -5.076 -10.465  17.135  0.00  0.00    -0.005 A 
ATOM     26  C   UNL     1      -4.578 -10.680  17.756  0.00  0.00    +0.000 A 
ATOM     27  C   UNL     1      -4.885 -10.781  18.515  0.00  0.00    +0.037 A 
BRANCH   3   2
ATOM      1  C   UNL     1      -6.792 -10.600  19.561  0.00  0.00    +0.252 C 
ATOM      2  O   UNL     1      -5.998 -10.768  19.411  0.00  0.00    -0.471 OA
ENDBRANCH   3   2
ENDBRANCH   7   6
ENDBRANCH   8   7
ENDBRANCH   9   8
BRANCH  12  13
ATOM     13  C   UNL     1      -4.933 -10.334  12.833  0.00  0.00    +0.149 C 
BRANCH  13  14
ATOM     14  N   UNL     1      -4.329 -10.147  12.303  0.00  0.00    -0.184 NA
ATOM     15  C   UNL     1      -4.499 -10.060  11.501  0.00  0.00    +0.344 C 
ATOM     16  O   UNL     1      -5.271 -10.160  11.229  0.00  0.00    -0.249 OA
ATOM     17  N   UNL     1      -3.895  -9.873  10.970  0.00  0.00    -0.161 NA
BRANCH  17  18
ATOM     18  C   UNL     1      -4.065  -9.786  10.168  0.00  0.00    +0.075 A 
ATOM     19  C   UNL     1      -4.178 -10.454   9.695  0.00  0.00    +0.017 A 
ATOM     20  C   UNL     1      -4.348 -10.367   8.893  0.00  0.00    +0.001 A 
ATOM     21  C   UNL     1      -4.404  -9.614   8.562  0.00  0.00    +0.000 A 
ATOM     22  C   UNL     1      -4.291  -8.946   9.034  0.00  0.00    +0.001 A 
ATOM     23  C   UNL     1      -4.121  -9.033   9.837  0.00  0.00    +0.017 A 
ENDBRANCH  17  18
ENDBRANCH  13  14
ENDBRANCH  12  13
TORSDOF 7
ENDMDL
MODEL 5
REMARK VINA RESULT:      -6.0     14.646     15.160
REMARK  Name = 
REMARK  7 active torsions:
REMARK  status: ('A' for Active; 'I' for Inactive)
REMARK    1  A    between atoms: O_2  and  C_3
REMARK    2  A    between atoms: C_6  and  C_7
REMARK    3  A    between atoms: C_7  and  N_8
REMARK    4  A    between atoms: N_8  and  C_9
REMARK    5  A    between atoms: C_12  and  C_13
REMARK    6  A    between atoms: C_13  and  N_14
REMARK    7  A    between atoms: N_17  and  C_18
REMARK                            x       y       z     vdW  Elec       q    Type
REMARK                         _______ _______ _______ _____ _____    ______ ____
ROOT
ATOM      9  C   UNL     1      -5.191 -10.347  14.640  0.00  0.00    +0.135 C 
ATOM     10  C   UNL     1      -5.070 -10.553  15.429  0.00  0.00    +0.162 C 
ATOM     11  O   UNL     1      -5.774 -10.422  15.839  0.00  0.00    -0.350 OA
ATOM     12  C   UNL     1      -6.330 -10.134  15.303  0.00  0.00    +0.169 C 
ATOM     24  C   UNL     1      -5.971 -10.087  14.561  0.00  0.00    +0.199 C 
ATOM     25  O   UNL     1      -6.328  -9.827  13.865  0.00  0.00    -0.219 OA
ENDROOT
BRANCH   9   8
ATOM      8  N   UNL     1      -4.632 -10.391  14.035  0.00  0.00    -0.209 NA
BRANCH   8   7
ATOM      7  C   UNL     1      -3.883 -10.701  14.188  0.00  0.00    +0.115 C 
BRANCH   7   6
ATOM      3  C   UNL     1      -2.095 -10.514  12.486  0.00  0.00    +0.139 A 
ATOM      4  C   UNL     1      -1.925 -10.372  13.281  0.00  0.00    +0.037 A 
ATOM      5  C   UNL     1      -2.520 -10.434  13.848  0.00  0.00    +0.000 A 
ATOM      6  C   UNL     1      -3.286 -10.639  13.621  0.00  0.00    -0.005 A 
ATOM     26  C   UNL     1      -3.457 -10.781  12.827  0.00  0.00    +0.000 A 
ATOM     27  C   UNL     1      -2.861 -10.719  12.259  0.00  0.00    +0.037 A 
BRANCH   3   2
ATOM      1  C   UNL     1      -1.432  -9.766  11.464  0.00  0.00    +0.252 C 
ATOM      2  O   UNL     1      -1.499 -10.452  11.920  0.00  0.00    -0.471 OA
ENDBRANCH   3   2
ENDBRANCH   7   6
ENDBRANCH   8   7
ENDBRANCH   9   8
BRANCH  12  13
ATOM     13  C   UNL     1      -7.111  -9.929  15.477  0.00  0.00    +0.149 C 
BRANCH  13  14
ATOM     14  N   UNL     1      -7.296  -9.598  16.209  0.00  0.00    -0.184 NA
ATOM     15  C   UNL     1      -8.079  -9.414  16.391  0.00  0.00    +0.344 C 
ATOM     16  O   UNL     1      -8.676  -9.560  15.842  0.00  0.00    -0.249 OA
ATOM     17  N   UNL     1      -8.265  -9.083  17.125  0.00  0.00    -0.161 NA
BRANCH  17  18
ATOM     18  C   UNL     1      -9.048  -8.899  17.307  0.00  0.00    +0.075 A 
ATOM     19  C   UNL     1      -9.351  -8.155  17.116  0.00  0.00    +0.017 A 
ATOM     20  C   UNL     1     -10.135  -7.971  17.298  0.00  0.00    +0.001 A 
ATOM     21  C   UNL     1     -10.614  -8.528  17.670  0.00  0.00    +0.000 A 
ATOM     22  C   UNL     1     -10.311  -9.271  17.861  0.00  0.00    +0.001 A 
ATOM     23  C   UNL     1      -9.527  -9.456  17.679  0.00  0.00    +0.017 A 
ENDBRANCH  17  18
ENDBRANCH  13  14
ENDBRANCH  12  13
TORSDOF 7
ENDMDL
MODEL 6
REMARK VINA RESULT:      -5.8     17.521     19.154
REMARK  Name = 
REMARK  7 active torsions:
REMARK  status: ('A' for Active; 'I' for Inactive)
REMARK    1  A    between atoms: O_2  and  C_3
REMARK    2  A    between atoms: C_6  and  C_7
REMARK    3  A    between atoms: C_7  and  N_8
REMARK    4  A    between atoms: N_8  and  C_9
REMARK    5  A    between atoms: C_12  and  C_13
REMARK    6  A    between atoms: C_13  and  N_14
REMARK    7  A    between atoms: N_17  and  C_18
REMARK                            x       y       z     vdW  Elec       q    Type
REMARK                         _______ _______ _______ _____ _____    ______ ____
ROOT
ATOM      9  C   UNL     1      -7.167  -8.342   9.053  0.00  0.00    +0.135 C 
ATOM     10  C   UNL     1      -6.700  -8.551   8.406  0.00  0.00    +0.162 C 
ATOM     11  O   UNL     1      -6.037  -8.953   8.690  0.00  0.00    -0.350 OA
ATOM     12  C   UNL     1      -6.094  -8.991   9.511  0.00  0.00    +0.169 C 
ATOM     24  C   UNL     1      -6.793  -8.614   9.737  0.00  0.00    +0.199 C 
ATOM     25  O   UNL     1      -7.068  -8.524  10.509  0.00  0.00    -0.219 OA
ENDROOT
BRANCH   9   8
ATOM      8  N   UNL     1      -7.882  -7.933   9.023  0.00  0.00    -0.209 NA
BRANCH   8   7
ATOM      7  C   UNL     1      -8.084  -7.505   8.347  0.00  0.00    +0.115 C 
BRANCH   7   6
ATOM      3  C   UNL     1      -9.917  -5.843   8.434  0.00  0.00    +0.139 A 
ATOM      4  C   UNL     1      -9.137  -5.593   8.330  0.00  0.00    +0.037 A 
ATOM      5  C   UNL     1      -8.527  -6.147   8.301  0.00  0.00    +0.000 A 
ATOM      6  C   UNL     1      -8.695  -6.951   8.376  0.00  0.00    -0.005 A 
ATOM     26  C   UNL     1      -9.474  -7.202   8.480  0.00  0.00    +0.000 A 
ATOM     27  C   UNL     1     -10.085  -6.647   8.509  0.00  0.00    +0.037 A 
BRANCH   3   2
ATOM      1  C   UNL     1     -10.451  -4.615   8.934  0.00  0.00    +0.252 C 
ATOM      2  O   UNL     1     -10.527  -5.289   8.463  0.00  0.00    -0.471 OA
ENDBRANCH   3   2
ENDBRANCH   7   6
ENDBRANCH   8   7
ENDBRANCH   9   8
BRANCH  12  13
ATOM     13  C   UNL     1      -5.548  -9.346  10.020  0.00  0.00    +0.149 C 
BRANCH  13  14
ATOM     14  N   UNL     1      -4.755  -9.397   9.801  0.00  0.00    -0.184 NA
ATOM     15  C   UNL     1      -4.186  -9.601  10.362  0.00  0.00    +0.344 C 
ATOM     16  O   UNL     1      -4.410  -9.753  11.140  0.00  0.00    -0.249 OA
ATOM     17  N   UNL     1      -3.391  -9.653  10.143  0.00  0.00    -0.161 NA
BRANCH  17  18
ATOM     18  C   UNL     1      -2.822  -9.857  10.704  0.00  0.00    +0.075 A 
ATOM     19  C   UNL     1      -2.878 -10.577  11.105  0.00  0.00    +0.017 A 
ATOM     20  C   UNL     1      -2.309 -10.781  11.666  0.00  0.00    +0.001 A 
ATOM     21  C   UNL     1      -1.685 -10.267  11.827  0.00  0.00    +0.000 A 
ATOM     22  C   UNL     1      -1.629  -9.548  11.427  0.00  0.00    +0.001 A 
ATOM     23  C   UNL     1      -2.198  -9.344  10.865  0.00  0.00    +0.017 A 
ENDBRANCH  17  18
ENDBRANCH  13  14
ENDBRANCH  12  13
TORSDOF 7
ENDMDL
MODEL 7
REMARK VINA RESULT:      -5.5     15.268     17.027
REMARK  Name = 
REMARK  7 active torsions:
REMARK  status: ('A' for Active; 'I' for Inactive)
REMARK    1  A    between atoms: O_2  and  C_3
REMARK    2  A    between atoms: C_6  and  C_7
REMARK    3  A    between atoms: C_7  and  N_8
REMARK    4  A    between atoms: N_8  and  C_9
REMARK    5  A    between atoms: C_12  and  C_13
REMARK    6  A    between atoms: C_13  and  N_14
REMARK    7  A    between atoms: N_17  and  C_18
REMARK                            x       y       z     vdW  Elec       q    Type
REMARK                         _______ _______ _______ _____ _____    ______ ____
ROOT
ATOM      9  C   UNL     1      -6.622 -10.121  14.981  0.00  0.00    +0.135 C 
ATOM     10  C   UNL     1      -5.810 -10.031  15.099  0.00  0.00    +0.162 C 
ATOM     11  O   UNL     1      -5.448  -9.987  14.358  0.00  0.00    -0.350 OA
ATOM     12  C   UNL     1      -6.035 -10.050  13.783  0.00  0.00    +0.169 C 
ATOM     24  C   UNL     1      -6.761 -10.132  14.167  0.00  0.00    +0.199 C 
ATOM     25  O   UNL     1      -7.497 -10.212  13.801  0.00  0.00    -0.219 OA
ENDROOT
BRANCH   9   8
ATOM      8  N   UNL     1      -7.194 -10.187  15.570  0.00  0.00    -0.209 NA
BRANCH   8   7
ATOM      7  C   UNL     1      -7.024  -9.938  16.339  0.00  0.00    +0.115 C 
BRANCH   7   6
ATOM      3  C   UNL     1      -8.741 -10.135  18.112  0.00  0.00    +0.139 A 
ATOM      4  C   UNL     1      -8.248 -10.775  17.941  0.00  0.00    +0.037 A 
ATOM      5  C   UNL     1      -7.676 -10.709  17.351  0.00  0.00    +0.000 A 
ATOM      6  C   UNL     1      -7.597 -10.004  16.930  0.00  0.00    -0.005 A 
ATOM     26  C   UNL     1      -8.089  -9.364  17.100  0.00  0.00    +0.000 A 
ATOM     27  C   UNL     1      -8.661  -9.430  17.691  0.00  0.00    +0.037 A 
BRANCH   3   2
ATOM      1  C   UNL     1     -10.109 -10.079  18.521  0.00  0.00    +0.252 C 
ATOM      2  O   UNL     1      -9.313 -10.201  18.702  0.00  0.00    -0.471 OA
ENDBRANCH   3   2
ENDBRANCH   7   6
ENDBRANCH   8   7
ENDBRANCH   9   8
BRANCH  12  13
ATOM     13  C   UNL     1      -5.918 -10.033  12.966  0.00  0.00    +0.149 C 
BRANCH  13  14
ATOM     14  N   UNL     1      -5.209  -9.746  12.658  0.00  0.00    -0.184 NA
ATOM     15  C   UNL     1      -5.116  -9.670  11.842  0.00  0.00    +0.344 C 
ATOM     16  O   UNL     1      -5.730  -9.881  11.335  0.00  0.00    -0.249 OA
ATOM     17  N   UNL     1      -4.406  -9.382  11.533  0.00  0.00    -0.161 NA
BRANCH  17  18
ATOM     18  C   UNL     1      -4.313  -9.307  10.717  0.00  0.00    +0.075 A 
ATOM     19  C   UNL     1      -3.924  -9.896  10.290  0.00  0.00    +0.017 A 
ATOM     20  C   UNL     1      -3.830  -9.821   9.474  0.00  0.00    +0.001 A 
ATOM     21  C   UNL     1      -4.126  -9.157   9.085  0.00  0.00    +0.000 A 
ATOM     22  C   UNL     1      -4.514  -8.567   9.511  0.00  0.00    +0.001 A 
ATOM     23  C   UNL     1      -4.608  -8.643  10.328  0.00  0.00    +0.017 A 
ENDBRANCH  17  18
ENDBRANCH  13  14
ENDBRANCH  12  13
TORSDOF 7
ENDMDL
MODEL 8
REMARK VINA RESULT:      -5.3     15.229     16.155
REMARK  Name = 
REMARK  7 active torsions:
REMARK  status: ('A' for Active; 'I' for Inactive)
REMARK    1  A    between atoms: O_2  and  C_3
REMARK    2  A    between atoms: C_6  and  C_7
REMARK    3  A    between atoms: C_7  and  N_8
REMARK    4  A    between atoms: N_8  and  C_9
REMARK    5  A    between atoms: C_12  and  C_13
REMARK    6  A    between atoms: C_13  and  N_14
REMARK    7  A    between atoms: N_17  and  C_18
REMARK                            x       y       z     vdW  Elec       q    Type
REMARK                         _______ _______ _______ _____ _____    ______ ____
ROOT
ATOM      9  C   UNL     1      -4.654 -10.416  13.047  0.00  0.00    +0.135 C 
ATOM     10  C   UNL     1      -3.939 -10.525  13.443  0.00  0.00    +0.162 C 
ATOM     11  O   UNL     1      -4.104 -10.632  14.244  0.00  0.00    -0.350 OA
ATOM     12  C   UNL     1      -4.922 -10.589  14.343  0.00  0.00    +0.169 C 
ATOM     24  C   UNL     1      -5.262 -10.456  13.603  0.00  0.00    +0.199 C 
ATOM     25  O   UNL     1      -6.069 -10.376  13.448  0.00  0.00    -0.219 OA
ENDROOT
BRANCH   9   8
ATOM      8  N   UNL     1      -4.747 -10.290  12.237  0.00  0.00    -0.209 NA
BRANCH   8   7
ATOM      7  C   UNL     1      -4.164  -9.887  11.814  0.00  0.00    +0.115 C 
BRANCH   7   6
ATOM      3  C   UNL     1      -4.333  -9.697   9.351  0.00  0.00    +0.139 A 
ATOM      4  C   UNL     1      -3.960  -9.103   9.787  0.00  0.00    +0.037 A 
ATOM      5  C   UNL     1      -3.904  -9.167  10.607  0.00  0.00    +0.000 A 
ATOM      6  C   UNL     1      -4.220  -9.823  10.992  0.00  0.00    -0.005 A 
ATOM     26  C   UNL     1      -4.593 -10.417  10.558  0.00  0.00    +0.000 A 
ATOM     27  C   UNL     1      -4.649 -10.354   9.737  0.00  0.00    +0.037 A 
BRANCH   3   2
ATOM      1  C   UNL     1      -5.096  -9.388   8.183  0.00  0.00    +0.252 C 
ATOM      2  O   UNL     1      -4.389  -9.634   8.531  0.00  0.00    -0.471 OA
ENDBRANCH   3   2
ENDBRANCH   7   6
ENDBRANCH   8   7
ENDBRANCH   9   8
BRANCH  12  13
ATOM     13  C   UNL     1      -5.328 -10.666  15.058  0.00  0.00    +0.149 C 
BRANCH  13  14
ATOM     14  N   UNL     1      -5.000 -10.366  15.753  0.00  0.00    -0.184 NA
ATOM     15  C   UNL     1      -5.419 -10.418  16.461  0.00  0.00    +0.344 C 
ATOM     16  O   UNL     1      -6.165 -10.769  16.475  0.00  0.00    -0.249 OA
ATOM     17  N   UNL     1      -5.091 -10.118  17.157  0.00  0.00    -0.161 NA
BRANCH  17  18
ATOM     18  C   UNL     1      -5.510 -10.170  17.866  0.00  0.00    +0.075 A 
ATOM     19  C   UNL     1      -5.292 -10.728  18.434  0.00  0.00    +0.017 A 
ATOM     20  C   UNL     1      -5.711 -10.780  19.142  0.00  0.00    +0.001 A 
ATOM     21  C   UNL     1      -6.347 -10.276  19.283  0.00  0.00    +0.000 A 
ATOM     22  C   UNL     1      -6.566  -9.719  18.716  0.00  0.00    +0.001 A 
ATOM     23  C   UNL     1      -6.147  -9.666  18.006  0.00  0.00    +0.017 A 
ENDBRANCH  17  18
ENDBRANCH  13  14
ENDBRANCH  12  13
TORSDOF 7
ENDMDL
MODEL 9
REMARK VINA RESULT:      -5.2     15.359     16.243
REMARK  Name = 
REMARK  7 active torsions:
REMARK  status: ('A' for Active; 'I' for Inactive)
REMARK    1  A    between atoms: O_2  and  C_3
REMARK    2  A    between atoms: C_6  and  C_7
REMARK    3  A    between atoms: C_7  and  N_8
REMARK    4  A    between atoms: N_8  and  C_9
REMARK    5  A    between atoms: C_12  and  C_13
REMARK    6  A    between atoms: C_13  and  N_14
REMARK    7  A    between atoms: N_17  and  C_18
REMARK                            x       y       z     vdW  Elec       q    Type
REMARK                         _______ _______ _______ _____ _____    ______ ____
ROOT
ATOM      9  C   UNL     1      -6.073  -9.999  13.192  0.00  0.00    +0.135 C 
ATOM     10  C   UNL     1      -5.602 -10.017  13.869  0.00  0.00    +0.162 C 
ATOM     11  O   UNL     1      -6.101 -10.025  14.526  0.00  0.00    -0.350 OA
ATOM     12  C   UNL     1      -6.880 -10.013  14.256  0.00  0.00    +0.169 C 
ATOM     24  C   UNL     1      -6.864  -9.996  13.431  0.00  0.00    +0.199 C 
ATOM     25  O   UNL     1      -7.521  -9.980  12.933  0.00  0.00    -0.219 OA
ENDROOT
BRANCH   9   8
ATOM      8  N   UNL     1      -5.804  -9.985  12.413  0.00  0.00    -0.209 NA
BRANCH   8   7
ATOM      7  C   UNL     1      -5.024  -9.770  12.251  0.00  0.00    +0.115 C 
BRANCH   7   6
ATOM      3  C   UNL     1      -4.265  -9.538   9.905  0.00  0.00    +0.139 A 
ATOM      4  C   UNL     1      -4.640  -8.906  10.283  0.00  0.00    +0.037 A 
ATOM      5  C   UNL     1      -4.892  -8.984  11.064  0.00  0.00    +0.000 A 
ATOM      6  C   UNL     1      -4.771  -9.692  11.469  0.00  0.00    -0.005 A 
ATOM     26  C   UNL     1      -4.397 -10.324  11.092  0.00  0.00    +0.000 A 
ATOM     27  C   UNL     1      -4.144 -10.246  10.310  0.00  0.00    +0.037 A 
BRANCH   3   2
ATOM      1  C   UNL     1      -4.558  -9.517   8.507  0.00  0.00    +0.252 C 
ATOM      2  O   UNL     1      -4.013  -9.460   9.124  0.00  0.00    -0.471 OA
ENDBRANCH   3   2
ENDBRANCH   7   6
ENDBRANCH   8   7
ENDBRANCH   9   8
BRANCH  12  13
ATOM     13  C   UNL     1      -7.557 -10.016  14.728  0.00  0.00    +0.149 C 
BRANCH  13  14
ATOM     14  N   UNL     1      -7.532  -9.694  15.487  0.00  0.00    -0.184 NA
ATOM     15  C   UNL     1      -8.229  -9.605  15.919  0.00  0.00    +0.344 C 
ATOM     16  O   UNL     1      -8.949  -9.836  15.593  0.00  0.00    -0.249 OA
ATOM     17  N   UNL     1      -8.204  -9.283  16.679  0.00  0.00    -0.161 NA
BRANCH  17  18
ATOM     18  C   UNL     1      -8.901  -9.193  17.111  0.00  0.00    +0.075 A 
ATOM     19  C   UNL     1      -9.325  -8.486  17.067  0.00  0.00    +0.017 A 
ATOM     20  C   UNL     1     -10.022  -8.397  17.499  0.00  0.00    +0.001 A 
ATOM     21  C   UNL     1     -10.295  -9.012  17.975  0.00  0.00    +0.000 A 
ATOM     22  C   UNL     1      -9.871  -9.718  18.019  0.00  0.00    +0.001 A 
ATOM     23  C   UNL     1      -9.173  -9.808  17.587  0.00  0.00    +0.017 A 
ENDBRANCH  17  18
ENDBRANCH  13  14
ENDBRANCH  12  13
TORSDOF 7
ENDMDL
MODEL 10
REMARK VINA RESULT:      -4.7     17.384     17.977
REMARK  Name = 
REMARK  7 active torsions:
REMARK  status: ('A' for Active; 'I' for Inactive)
REMARK    1  A    between atoms: O_2  and  C_3
REMARK    2  A    between atoms: C_6  and  C_7
REMARK    3  A    between atoms: C_7  and  N_8
REMARK    4  A    between atoms: N_8  and  C_9
REMARK    5  A    between atoms: C_12  and  C_13
REMARK    6  A    between atoms: C_13  and  N_14
REMARK    7  A    between atoms: N_17  and  C_18
REMARK                            x       y       z     vdW  Elec       q    Type
REMARK                         _______ _______ _______ _____ _____    ______ ____
ROOT
ATOM      9  C   UNL     1      -4.991  -9.358   9.762  0.00  0.00    +0.135 C 
ATOM     10  C   UNL     1      -5.588  -9.850  10.050  0.00  0.00    +0.162 C 
ATOM     11  O   UNL     1      -6.311  -9.563   9.772  0.00  0.00    -0.350 OA
ATOM     12  C   UNL     1      -6.160  -8.895   9.313  0.00  0.00    +0.169 C 
ATOM     24  C   UNL     1      -5.345  -8.767   9.306  0.00  0.00    +0.199 C 
ATOM     25  O   UNL     1      -4.953  -8.157   8.913  0.00  0.00    -0.219 OA
ENDROOT
BRANCH   9   8
ATOM      8  N   UNL     1      -4.183  -9.441   9.903  0.00  0.00    -0.209 NA
BRANCH   8   7
ATOM      7  C   UNL     1      -3.921  -9.754  10.621  0.00  0.00    +0.115 C 
BRANCH   7   6
ATOM      3  C   UNL     1      -1.538  -9.556  11.261  0.00  0.00    +0.139 A 
ATOM      4  C   UNL     1      -1.874  -9.007  10.744  0.00  0.00    +0.037 A 
ATOM      5  C   UNL     1      -2.667  -9.074  10.531  0.00  0.00    +0.000 A 
ATOM      6  C   UNL     1      -3.126  -9.688  10.834  0.00  0.00    -0.005 A 
ATOM     26  C   UNL     1      -2.792 -10.237  11.351  0.00  0.00    +0.000 A 
ATOM     27  C   UNL     1      -1.997 -10.170  11.565  0.00  0.00    +0.037 A 
BRANCH   3   2
ATOM      1  C   UNL     1      -0.272  -8.907  11.131  0.00  0.00    +0.252 C 
ATOM      2  O   UNL     1      -0.744  -9.490  11.475  0.00  0.00    -0.471 OA
ENDBRANCH   3   2
ENDBRANCH   7   6
ENDBRANCH   8   7
ENDBRANCH   9   8
BRANCH  12  13
ATOM     13  C   UNL     1      -6.727  -8.433   8.928  0.00  0.00    +0.149 C 
BRANCH  13  14
ATOM     14  N   UNL     1      -7.476  -8.340   9.259  0.00  0.00    -0.184 NA
ATOM     15  C   UNL     1      -8.029  -7.850   8.893  0.00  0.00    +0.344 C 
ATOM     16  O   UNL     1      -7.833  -7.455   8.197  0.00  0.00    -0.249 OA
ATOM     17  N   UNL     1      -8.780  -7.756   9.224  0.00  0.00    -0.161 NA
BRANCH  17  18
ATOM     18  C   UNL     1      -9.333  -7.266   8.857  0.00  0.00    +0.075 A 
ATOM     19  C   UNL     1     -10.010  -7.592   8.516  0.00  0.00    +0.017 A 
ATOM     20  C   UNL     1     -10.563  -7.102   8.149  0.00  0.00    +0.001 A 
ATOM     21  C   UNL     1     -10.441  -6.288   8.124  0.00  0.00    +0.000 A 
ATOM     22  C   UNL     1      -9.764  -5.961   8.465  0.00  0.00    +0.001 A 
ATOM     23  C   UNL     1      -9.210  -6.451   8.832  0.00  0.00    +0.017 A 
ENDBRANCH  17  18
ENDBRANCH  13  14
ENDBRANCH  12  13
TORSDOF 7
ENDMDL
