MODEL 1
REMARK VINA RESULT:     -10.9      0.000      0.000
REMARK  Name = 
REMARK  2 active torsions:
REMARK  status: ('A' for Active; 'I' for Inactive)
REMARK    1  A    between atoms: C_2  and  N_3
REMARK    2  A    between atoms: N_12  and  C_13
REMARK                            x       y       z     vdW  Elec       q    Type
REMARK                         _______ _______ _______ _____ _____    ______ ____
ROOT
ATOM      3  N   UNL     1      -1.833   3.757  25.042  0.00  0.00    -0.188 NA
ATOM      4  C   UNL     1      -1.622   2.976  24.881  0.00  0.00    +0.323 C 
ATOM      5  O   UNL     1      -0.834   2.785  24.728  0.00  0.00    -0.251 OA
ATOM      6  N   UNL     1      -2.199   2.385  24.873  0.00  0.00    -0.259 N 
ATOM      7  C   UNL     1      -2.987   2.577  25.026  0.00  0.00    +0.117 C 
ATOM      8  C   UNL     1      -3.563   1.987  25.018  0.00  0.00    +0.117 C 
ATOM      9  N   UNL     1      -3.352   1.206  24.857  0.00  0.00    -0.261 N 
ATOM     10  C   UNL     1      -2.564   1.014  24.704  0.00  0.00    +0.117 C 
ATOM     11  C   UNL     1      -2.521   0.203  24.565  0.00  0.00    +0.116 C 
ATOM     12  N   UNL     1      -3.282  -0.108  24.631  0.00  0.00    -0.264 N 
ATOM     19  C   UNL     1      -3.795   0.512  24.812  0.00  0.00    +0.307 C 
ATOM     20  O   UNL     1      -4.610   0.449  24.927  0.00  0.00    -0.252 OA
ATOM     21  C   UNL     1      -1.987   1.605  24.712  0.00  0.00    +0.117 C 
ENDROOT
BRANCH  12  13
ATOM     13  C   UNL     1      -3.493  -0.899  24.533  0.00  0.00    +0.077 C 
ATOM     14  C   UNL     1      -3.267  -1.460  25.096  0.00  0.00    +0.020 C 
ATOM     15  C   UNL     1      -3.478  -2.251  24.999  0.00  0.00    +0.002 C 
ATOM     16  C   UNL     1      -3.915  -2.483  24.339  0.00  0.00    +0.000 C 
ATOM     17  C   UNL     1      -4.142  -1.924  23.777  0.00  0.00    +0.002 C 
ATOM     18  C   UNL     1      -3.931  -1.132  23.874  0.00  0.00    +0.020 C 
ENDBRANCH  12  13
BRANCH   3   2
ATOM      1  C   UNL     1      -1.476   5.136  25.144  0.00  0.00    +0.025 C 
ATOM      2  C   UNL     1      -1.256   4.347  25.050  0.00  0.00    +0.117 C 
ENDBRANCH   3   2
TORSDOF 2
ENDMDL
MODEL 2
REMARK VINA RESULT:     -10.8      1.012      1.387
REMARK  Name = 
REMARK  2 active torsions:
REMARK  status: ('A' for Active; 'I' for Inactive)
REMARK    1  A    between atoms: C_2  and  N_3
REMARK    2  A    between atoms: N_12  and  C_13
REMARK                            x       y       z     vdW  Elec       q    Type
REMARK                         _______ _______ _______ _____ _____    ______ ____
ROOT
ATOM      3  N   UNL     1      -1.826   3.763  25.093  0.00  0.00    -0.188 NA
ATOM      4  C   UNL     1      -2.469   3.247  25.132  0.00  0.00    +0.323 C 
ATOM      5  O   UNL     1      -3.216   3.533  25.333  0.00  0.00    -0.251 OA
ATOM      6  N   UNL     1      -2.363   2.445  24.970  0.00  0.00    -0.259 N 
ATOM      7  C   UNL     1      -1.615   2.159  24.769  0.00  0.00    +0.117 C 
ATOM      8  C   UNL     1      -1.510   1.358  24.606  0.00  0.00    +0.117 C 
ATOM      9  N   UNL     1      -2.152   0.841  24.645  0.00  0.00    -0.261 N 
ATOM     10  C   UNL     1      -2.900   1.126  24.846  0.00  0.00    +0.117 C 
ATOM     11  C   UNL     1      -3.425   0.491  24.841  0.00  0.00    +0.116 C 
ATOM     12  N   UNL     1      -3.003  -0.188  24.636  0.00  0.00    -0.264 N 
ATOM     19  C   UNL     1      -2.216   0.029  24.515  0.00  0.00    +0.307 C 
ATOM     20  O   UNL     1      -1.601  -0.477  24.302  0.00  0.00    -0.252 OA
ATOM     21  C   UNL     1      -3.005   1.929  25.009  0.00  0.00    +0.117 C 
ENDROOT
BRANCH  12  13
ATOM     13  C   UNL     1      -3.312  -0.949  24.565  0.00  0.00    +0.077 C 
ATOM     14  C   UNL     1      -3.797  -1.139  23.924  0.00  0.00    +0.020 C 
ATOM     15  C   UNL     1      -4.107  -1.900  23.853  0.00  0.00    +0.002 C 
ATOM     16  C   UNL     1      -3.932  -2.472  24.422  0.00  0.00    +0.000 C 
ATOM     17  C   UNL     1      -3.448  -2.282  25.062  0.00  0.00    +0.002 C 
ATOM     18  C   UNL     1      -3.138  -1.521  25.133  0.00  0.00    +0.020 C 
ENDBRANCH  12  13
BRANCH   3   2
ATOM      1  C   UNL     1      -1.319   5.099  25.114  0.00  0.00    +0.025 C 
ATOM      2  C   UNL     1      -1.932   4.566  25.256  0.00  0.00    +0.117 C 
ENDBRANCH   3   2
TORSDOF 2
ENDMDL
MODEL 3
REMARK VINA RESULT:     -10.0      0.842      4.842
REMARK  Name = 
REMARK  2 active torsions:
REMARK  status: ('A' for Active; 'I' for Inactive)
REMARK    1  A    between atoms: C_2  and  N_3
REMARK    2  A    between atoms: N_12  and  C_13
REMARK                            x       y       z     vdW  Elec       q    Type
REMARK                         _______ _______ _______ _____ _____    ______ ____
ROOT
ATOM      3  N   UNL     1      -3.210  -1.278  24.582  0.00  0.00    -0.188 NA
ATOM      4  C   UNL     1      -3.346  -0.493  24.370  0.00  0.00    +0.323 C 
ATOM      5  O   UNL     1      -3.985  -0.301  23.885  0.00  0.00    -0.251 OA
ATOM      6  N   UNL     1      -2.841   0.101  24.642  0.00  0.00    -0.259 N 
ATOM      7  C   UNL     1      -2.202  -0.091  25.127  0.00  0.00    +0.117 C 
ATOM      8  C   UNL     1      -1.698   0.503  25.399  0.00  0.00    +0.117 C 
ATOM      9  N   UNL     1      -1.833   1.289  25.187  0.00  0.00    -0.261 N 
ATOM     10  C   UNL     1      -2.473   1.480  24.702  0.00  0.00    +0.117 C 
ATOM     11  C   UNL     1      -2.469   2.297  24.586  0.00  0.00    +0.116 C 
ATOM     12  N   UNL     1      -1.826   2.610  24.998  0.00  0.00    -0.264 N 
ATOM     19  C   UNL     1      -1.434   1.986  25.369  0.00  0.00    +0.307 C 
ATOM     20  O   UNL     1      -0.760   2.050  25.841  0.00  0.00    -0.252 OA
ATOM     21  C   UNL     1      -2.977   0.886  24.430  0.00  0.00    +0.117 C 
ENDROOT
BRANCH  12  13
ATOM     13  C   UNL     1      -1.614   3.406  25.032  0.00  0.00    +0.077 C 
ATOM     14  C   UNL     1      -2.093   3.944  25.435  0.00  0.00    +0.020 C 
ATOM     15  C   UNL     1      -1.881   4.741  25.470  0.00  0.00    +0.002 C 
ATOM     16  C   UNL     1      -1.189   4.999  25.102  0.00  0.00    +0.000 C 
ATOM     17  C   UNL     1      -0.710   4.462  24.700  0.00  0.00    +0.002 C 
ATOM     18  C   UNL     1      -0.922   3.665  24.665  0.00  0.00    +0.020 C 
ENDBRANCH  12  13
BRANCH   3   2
ATOM      1  C   UNL     1      -3.565  -2.660  24.504  0.00  0.00    +0.025 C 
ATOM      2  C   UNL     1      -3.714  -1.873  24.310  0.00  0.00    +0.117 C 
ENDBRANCH   3   2
TORSDOF 2
ENDMDL
MODEL 4
REMARK VINA RESULT:      -9.5      2.409      3.549
REMARK  Name = 
REMARK  2 active torsions:
REMARK  status: ('A' for Active; 'I' for Inactive)
REMARK    1  A    between atoms: C_2  and  N_3
REMARK    2  A    between atoms: N_12  and  C_13
REMARK                            x       y       z     vdW  Elec       q    Type
REMARK                         _______ _______ _______ _____ _____    ______ ____
ROOT
ATOM      3  N   UNL     1      -0.071   0.435  23.424  0.00  0.00    -0.188 NA
ATOM      4  C   UNL     1      -0.659   0.381  24.000  0.00  0.00    +0.323 C 
ATOM      5  O   UNL     1      -0.579  -0.154  24.623  0.00  0.00    -0.251 OA
ATOM      6  N   UNL     1      -1.328   0.862  23.953  0.00  0.00    -0.259 N 
ATOM      7  C   UNL     1      -1.408   1.397  23.329  0.00  0.00    +0.117 C 
ATOM      8  C   UNL     1      -2.076   1.877  23.282  0.00  0.00    +0.117 C 
ATOM      9  N   UNL     1      -2.665   1.824  23.858  0.00  0.00    -0.261 N 
ATOM     10  C   UNL     1      -2.585   1.289  24.481  0.00  0.00    +0.117 C 
ATOM     11  C   UNL     1      -3.250   1.358  24.963  0.00  0.00    +0.116 C 
ATOM     12  N   UNL     1      -3.742   1.935  24.638  0.00  0.00    -0.264 N 
ATOM     19  C   UNL     1      -3.380   2.223  23.955  0.00  0.00    +0.307 C 
ATOM     20  O   UNL     1      -3.680   2.808  23.457  0.00  0.00    -0.252 OA
ATOM     21  C   UNL     1      -1.916   0.808  24.528  0.00  0.00    +0.117 C 
ENDROOT
BRANCH  12  13
ATOM     13  C   UNL     1      -4.468   2.182  24.943  0.00  0.00    +0.077 C 
ATOM     14  C   UNL     1      -5.144   1.724  24.821  0.00  0.00    +0.020 C 
ATOM     15  C   UNL     1      -5.870   1.971  25.126  0.00  0.00    +0.002 C 
ATOM     16  C   UNL     1      -5.919   2.675  25.553  0.00  0.00    +0.000 C 
ATOM     17  C   UNL     1      -5.244   3.132  25.675  0.00  0.00    +0.002 C 
ATOM     18  C   UNL     1      -4.519   2.886  25.370  0.00  0.00    +0.020 C 
ENDBRANCH  12  13
BRANCH   3   2
ATOM      1  C   UNL     1       1.159  -0.033  22.867  0.00  0.00    +0.025 C 
ATOM      2  C   UNL     1       0.599  -0.046  23.472  0.00  0.00    +0.117 C 
ENDBRANCH   3   2
TORSDOF 2
ENDMDL
MODEL 5
REMARK VINA RESULT:      -8.3     15.891     18.180
REMARK  Name = 
REMARK  2 active torsions:
REMARK  status: ('A' for Active; 'I' for Inactive)
REMARK    1  A    between atoms: C_2  and  N_3
REMARK    2  A    between atoms: N_12  and  C_13
REMARK                            x       y       z     vdW  Elec       q    Type
REMARK                         _______ _______ _______ _____ _____    ______ ____
ROOT
ATOM      3  N   UNL     1      16.018   6.282  19.283  0.00  0.00    -0.188 NA
ATOM      4  C   UNL     1      15.630   6.407  20.000  0.00  0.00    +0.323 C 
ATOM      5  O   UNL     1      16.035   6.309  20.712  0.00  0.00    -0.251 OA
ATOM      6  N   UNL     1      14.835   6.631  20.005  0.00  0.00    -0.259 N 
ATOM      7  C   UNL     1      14.429   6.729  19.294  0.00  0.00    +0.117 C 
ATOM      8  C   UNL     1      13.636   6.953  19.299  0.00  0.00    +0.117 C 
ATOM      9  N   UNL     1      13.247   7.078  20.016  0.00  0.00    -0.261 N 
ATOM     10  C   UNL     1      13.652   6.980  20.727  0.00  0.00    +0.117 C 
ATOM     11  C   UNL     1      13.128   7.140  21.343  0.00  0.00    +0.116 C 
ATOM     12  N   UNL     1      12.399   7.338  21.013  0.00  0.00    -0.264 N 
ATOM     19  C   UNL     1      12.473   7.300  20.193  0.00  0.00    +0.307 C 
ATOM     20  O   UNL     1      11.876   7.456  19.644  0.00  0.00    -0.252 OA
ATOM     21  C   UNL     1      14.447   6.756  20.722  0.00  0.00    +0.117 C 
ENDROOT
BRANCH  12  13
ATOM     13  C   UNL     1      11.716   7.540  21.430  0.00  0.00    +0.077 C 
ATOM     14  C   UNL     1      11.143   6.966  21.585  0.00  0.00    +0.020 C 
ATOM     15  C   UNL     1      10.460   7.167  22.002  0.00  0.00    +0.002 C 
ATOM     16  C   UNL     1      10.350   7.942  22.264  0.00  0.00    +0.000 C 
ATOM     17  C   UNL     1      10.922   8.515  22.109  0.00  0.00    +0.002 C 
ATOM     18  C   UNL     1      11.605   8.314  21.692  0.00  0.00    +0.020 C 
ENDBRANCH  12  13
BRANCH   3   2
ATOM      1  C   UNL     1      17.153   5.764  18.587  0.00  0.00    +0.025 C 
ATOM      2  C   UNL     1      16.812   6.058  19.278  0.00  0.00    +0.117 C 
ENDBRANCH   3   2
TORSDOF 2
ENDMDL
MODEL 6
REMARK VINA RESULT:      -8.2      1.824      2.270
REMARK  Name = 
REMARK  2 active torsions:
REMARK  status: ('A' for Active; 'I' for Inactive)
REMARK    1  A    between atoms: C_2  and  N_3
REMARK    2  A    between atoms: N_12  and  C_13
REMARK                            x       y       z     vdW  Elec       q    Type
REMARK                         _______ _______ _______ _____ _____    ______ ____
ROOT
ATOM      3  N   UNL     1      -4.921   2.990  25.166  0.00  0.00    -0.188 NA
ATOM      4  C   UNL     1      -4.202   2.656  24.940  0.00  0.00    +0.323 C 
ATOM      5  O   UNL     1      -3.597   3.135  24.648  0.00  0.00    -0.251 OA
ATOM      6  N   UNL     1      -4.087   1.841  25.007  0.00  0.00    -0.259 N 
ATOM      7  C   UNL     1      -4.691   1.362  25.300  0.00  0.00    +0.117 C 
ATOM      8  C   UNL     1      -4.576   0.548  25.367  0.00  0.00    +0.117 C 
ATOM      9  N   UNL     1      -3.857   0.213  25.141  0.00  0.00    -0.261 N 
ATOM     10  C   UNL     1      -3.252   0.692  24.849  0.00  0.00    +0.117 C 
ATOM     11  C   UNL     1      -2.608   0.210  24.671  0.00  0.00    +0.116 C 
ATOM     12  N   UNL     1      -2.813  -0.568  24.854  0.00  0.00    -0.264 N 
ATOM     19  C   UNL     1      -3.585  -0.565  25.144  0.00  0.00    +0.307 C 
ATOM     20  O   UNL     1      -4.011  -1.226  25.394  0.00  0.00    -0.252 OA
ATOM     21  C   UNL     1      -3.367   1.507  24.782  0.00  0.00    +0.117 C 
ENDROOT
BRANCH  12  13
ATOM     13  C   UNL     1      -2.331  -1.231  24.762  0.00  0.00    +0.077 C 
ATOM     14  C   UNL     1      -2.588  -1.868  24.303  0.00  0.00    +0.020 C 
ATOM     15  C   UNL     1      -2.106  -2.531  24.211  0.00  0.00    +0.002 C 
ATOM     16  C   UNL     1      -1.368  -2.558  24.579  0.00  0.00    +0.000 C 
ATOM     17  C   UNL     1      -1.112  -1.923  25.038  0.00  0.00    +0.002 C 
ATOM     18  C   UNL     1      -1.593  -1.260  25.130  0.00  0.00    +0.020 C 
ENDBRANCH  12  13
BRANCH   3   2
ATOM      1  C   UNL     1      -5.671   4.165  25.484  0.00  0.00    +0.025 C 
ATOM      2  C   UNL     1      -5.036   3.805  25.099  0.00  0.00    +0.117 C 
ENDBRANCH   3   2
TORSDOF 2
ENDMDL
MODEL 7
REMARK VINA RESULT:      -8.2     17.725     19.555
REMARK  Name = 
REMARK  2 active torsions:
REMARK  status: ('A' for Active; 'I' for Inactive)
REMARK    1  A    between atoms: C_2  and  N_3
REMARK    2  A    between atoms: N_12  and  C_13
REMARK                            x       y       z     vdW  Elec       q    Type
REMARK                         _______ _______ _______ _____ _____    ______ ____
ROOT
ATOM      3  N   UNL     1      11.661   8.271  17.164  0.00  0.00    -0.188 NA
ATOM      4  C   UNL     1      12.484   8.267  17.112  0.00  0.00    +0.323 C 
ATOM      5  O   UNL     1      12.859   8.602  16.457  0.00  0.00    -0.251 OA
ATOM      6  N   UNL     1      12.933   7.927  17.716  0.00  0.00    -0.259 N 
ATOM      7  C   UNL     1      12.559   7.593  18.370  0.00  0.00    +0.117 C 
ATOM      8  C   UNL     1      13.007   7.254  18.973  0.00  0.00    +0.117 C 
ATOM      9  N   UNL     1      13.831   7.249  18.923  0.00  0.00    -0.261 N 
ATOM     10  C   UNL     1      14.206   7.583  18.268  0.00  0.00    +0.117 C 
ATOM     11  C   UNL     1      15.020   7.498  18.369  0.00  0.00    +0.116 C 
ATOM     12  N   UNL     1      15.148   7.111  19.085  0.00  0.00    -0.264 N 
ATOM     19  C   UNL     1      14.414   6.957  19.427  0.00  0.00    +0.307 C 
ATOM     20  O   UNL     1      14.284   6.577  20.148  0.00  0.00    -0.252 OA
ATOM     21  C   UNL     1      13.757   7.923  17.664  0.00  0.00    +0.117 C 
ENDROOT
BRANCH  12  13
ATOM     13  C   UNL     1      15.883   6.912  19.404  0.00  0.00    +0.077 C 
ATOM     14  C   UNL     1      16.278   6.236  19.142  0.00  0.00    +0.020 C 
ATOM     15  C   UNL     1      17.013   6.038  19.460  0.00  0.00    +0.002 C 
ATOM     16  C   UNL     1      17.352   6.515  20.042  0.00  0.00    +0.000 C 
ATOM     17  C   UNL     1      16.958   7.190  20.304  0.00  0.00    +0.002 C 
ATOM     18  C   UNL     1      16.223   7.388  19.985  0.00  0.00    +0.020 C 
ENDBRANCH  12  13
BRANCH   3   2
ATOM      1  C   UNL     1      10.388   8.588  16.596  0.00  0.00    +0.025 C 
ATOM      2  C   UNL     1      11.212   8.611  16.560  0.00  0.00    +0.117 C 
ENDBRANCH   3   2
TORSDOF 2
ENDMDL
MODEL 8
REMARK VINA RESULT:      -8.2      1.799      4.266
REMARK  Name = 
REMARK  2 active torsions:
REMARK  status: ('A' for Active; 'I' for Inactive)
REMARK    1  A    between atoms: C_2  and  N_3
REMARK    2  A    between atoms: N_12  and  C_13
REMARK                            x       y       z     vdW  Elec       q    Type
REMARK                         _______ _______ _______ _____ _____    ______ ____
ROOT
ATOM      3  N   UNL     1      -2.169  -1.757  24.550  0.00  0.00    -0.188 NA
ATOM      4  C   UNL     1      -2.073  -0.955  24.717  0.00  0.00    +0.323 C 
ATOM      5  O   UNL     1      -1.322  -0.653  24.875  0.00  0.00    -0.251 OA
ATOM      6  N   UNL     1      -2.730  -0.454  24.724  0.00  0.00    -0.259 N 
ATOM      7  C   UNL     1      -3.481  -0.756  24.565  0.00  0.00    +0.117 C 
ATOM      8  C   UNL     1      -4.136  -0.256  24.573  0.00  0.00    +0.117 C 
ATOM      9  N   UNL     1      -4.042   0.547  24.739  0.00  0.00    -0.261 N 
ATOM     10  C   UNL     1      -3.291   0.849  24.897  0.00  0.00    +0.117 C 
ATOM     11  C   UNL     1      -3.366   1.657  25.042  0.00  0.00    +0.116 C 
ATOM     12  N   UNL     1      -4.164   1.855  24.972  0.00  0.00    -0.264 N 
ATOM     19  C   UNL     1      -4.581   1.168  24.785  0.00  0.00    +0.307 C 
ATOM     20  O   UNL     1      -5.395   1.113  24.665  0.00  0.00    -0.252 OA
ATOM     21  C   UNL     1      -2.634   0.348  24.890  0.00  0.00    +0.117 C 
ENDROOT
BRANCH  12  13
ATOM     13  C   UNL     1      -4.487   2.607  25.072  0.00  0.00    +0.077 C 
ATOM     14  C   UNL     1      -5.052   2.739  25.660  0.00  0.00    +0.020 C 
ATOM     15  C   UNL     1      -5.376   3.491  25.760  0.00  0.00    +0.002 C 
ATOM     16  C   UNL     1      -5.135   4.111  25.273  0.00  0.00    +0.000 C 
ATOM     17  C   UNL     1      -4.571   3.980  24.686  0.00  0.00    +0.002 C 
ATOM     18  C   UNL     1      -4.247   3.228  24.586  0.00  0.00    +0.020 C 
ENDBRANCH  12  13
BRANCH   3   2
ATOM      1  C   UNL     1      -1.588  -3.031  24.266  0.00  0.00    +0.025 C 
ATOM      2  C   UNL     1      -1.513  -2.258  24.543  0.00  0.00    +0.117 C 
ENDBRANCH   3   2
TORSDOF 2
ENDMDL
MODEL 9
REMARK VINA RESULT:      -7.6     15.746     17.857
REMARK  Name = 
REMARK  2 active torsions:
REMARK  status: ('A' for Active; 'I' for Inactive)
REMARK    1  A    between atoms: C_2  and  N_3
REMARK    2  A    between atoms: N_12  and  C_13
REMARK                            x       y       z     vdW  Elec       q    Type
REMARK                         _______ _______ _______ _____ _____    ______ ____
ROOT
ATOM      3  N   UNL     1      13.602   8.474  16.590  0.00  0.00    -0.188 NA
ATOM      4  C   UNL     1      13.682   8.345  17.401  0.00  0.00    +0.323 C 
ATOM      5  O   UNL     1      14.426   8.196  17.725  0.00  0.00    -0.251 OA
ATOM      6  N   UNL     1      13.016   8.366  17.889  0.00  0.00    -0.259 N 
ATOM      7  C   UNL     1      12.272   8.516  17.565  0.00  0.00    +0.117 C 
ATOM      8  C   UNL     1      11.607   8.536  18.053  0.00  0.00    +0.117 C 
ATOM      9  N   UNL     1      11.685   8.408  18.864  0.00  0.00    -0.261 N 
ATOM     10  C   UNL     1      12.429   8.258  19.188  0.00  0.00    +0.117 C 
ATOM     11  C   UNL     1      12.338   8.153  20.000  0.00  0.00    +0.116 C 
ATOM     12  N   UNL     1      11.537   8.238  20.179  0.00  0.00    -0.264 N 
ATOM     19  C   UNL     1      11.135   8.395  19.477  0.00  0.00    +0.307 C 
ATOM     20  O   UNL     1      10.322   8.518  19.401  0.00  0.00    -0.252 OA
ATOM     21  C   UNL     1      13.095   8.237  18.700  0.00  0.00    +0.117 C 
ENDROOT
BRANCH  12  13
ATOM     13  C   UNL     1      11.199   8.175  20.929  0.00  0.00    +0.077 C 
ATOM     14  C   UNL     1      11.108   8.849  21.398  0.00  0.00    +0.020 C 
ATOM     15  C   UNL     1      10.769   8.787  22.148  0.00  0.00    +0.002 C 
ATOM     16  C   UNL     1      10.522   8.051  22.429  0.00  0.00    +0.000 C 
ATOM     17  C   UNL     1      10.612   7.379  21.961  0.00  0.00    +0.002 C 
ATOM     18  C   UNL     1      10.951   7.441  21.211  0.00  0.00    +0.020 C 
ENDBRANCH  12  13
BRANCH   3   2
ATOM      1  C   UNL     1      14.234   8.778  15.345  0.00  0.00    +0.025 C 
ATOM      2  C   UNL     1      14.268   8.453  16.102  0.00  0.00    +0.117 C 
ENDBRANCH   3   2
TORSDOF 2
ENDMDL
MODEL 10
REMARK VINA RESULT:      -6.9      2.332      3.623
REMARK  Name = 
REMARK  2 active torsions:
REMARK  status: ('A' for Active; 'I' for Inactive)
REMARK    1  A    between atoms: C_2  and  N_3
REMARK    2  A    between atoms: N_12  and  C_13
REMARK                            x       y       z     vdW  Elec       q    Type
REMARK                         _______ _______ _______ _____ _____    ______ ____
ROOT
ATOM      3  N   UNL     1      -4.283   2.280  25.178  0.00  0.00    -0.188 NA
ATOM      4  C   UNL     1      -3.670   2.390  24.636  0.00  0.00    +0.323 C 
ATOM      5  O   UNL     1      -3.713   3.000  24.082  0.00  0.00    -0.251 OA
ATOM      6  N   UNL     1      -3.014   1.889  24.650  0.00  0.00    -0.259 N 
ATOM      7  C   UNL     1      -2.972   1.279  25.204  0.00  0.00    +0.117 C 
ATOM      8  C   UNL     1      -2.317   0.779  25.217  0.00  0.00    +0.117 C 
ATOM      9  N   UNL     1      -1.703   0.888  24.676  0.00  0.00    -0.261 N 
ATOM     10  C   UNL     1      -1.745   1.498  24.122  0.00  0.00    +0.117 C 
ATOM     11  C   UNL     1      -1.062   1.471  23.661  0.00  0.00    +0.116 C 
ATOM     12  N   UNL     1      -0.597   0.845  23.930  0.00  0.00    -0.264 N 
ATOM     19  C   UNL     1      -0.994   0.485  24.557  0.00  0.00    +0.307 C 
ATOM     20  O   UNL     1      -0.727  -0.165  24.990  0.00  0.00    -0.252 OA
ATOM     21  C   UNL     1      -2.402   1.999  24.109  0.00  0.00    +0.117 C 
ENDROOT
BRANCH  12  13
ATOM     13  C   UNL     1       0.135   0.619  23.625  0.00  0.00    +0.077 C 
ATOM     14  C   UNL     1       0.207  -0.086  23.202  0.00  0.00    +0.020 C 
ATOM     15  C   UNL     1       0.939  -0.312  22.897  0.00  0.00    +0.002 C 
ATOM     16  C   UNL     1       1.600   0.167  23.015  0.00  0.00    +0.000 C 
ATOM     17  C   UNL     1       1.529   0.872  23.437  0.00  0.00    +0.002 C 
ATOM     18  C   UNL     1       0.797   1.098  23.742  0.00  0.00    +0.020 C 
ENDBRANCH  12  13
BRANCH   3   2
ATOM      1  C   UNL     1      -5.544   2.683  25.717  0.00  0.00    +0.025 C 
ATOM      2  C   UNL     1      -4.939   2.781  25.164  0.00  0.00    +0.117 C 
ENDBRANCH   3   2
TORSDOF 2
ENDMDL
