MODEL 1
REMARK VINA RESULT:     -13.0      0.000      0.000
REMARK  Name = 
REMARK  8 active torsions:
REMARK  status: ('A' for Active; 'I' for Inactive)
REMARK    1  A    between atoms: CG_2  and  CB_4
REMARK    2  A    between atoms: CB_4  and  CA_5
REMARK    3  A    between atoms: CA_5  and  C_6
REMARK    4  A    between atoms: CA_5  and  N_8
REMARK    5  A    between atoms: C_9  and  C_11
REMARK    6  A    between atoms: C_11  and  C_12
REMARK    7  A    between atoms: C_17  and  C_19
REMARK    8  A    between atoms: C_30  and  C_32
REMARK                            x       y       z     vdW  Elec       q    Type
REMARK                         _______ _______ _______ _____ _____    ______ ____
ROOT
ATOM     12  C   UNK A   0      -3.403   0.155  24.299  0.00  0.00    +0.050 C 
ATOM     13  C   UNK A   0      -2.695   0.545  24.469  0.00  0.00    +0.063 A 
ATOM     14  C   UNK A   0      -2.022   0.110  24.665  0.00  0.00    +0.023 A 
ATOM     15  C   UNK A   0      -2.055  -0.712  24.691  0.00  0.00    +0.034 C 
ATOM     16  C   UNK A   0      -2.762  -1.103  24.522  0.00  0.00    +0.010 C 
ATOM     17  C   UNK A   0      -2.795  -1.927  24.549  0.00  0.00    +0.059 C 
ATOM     18  C   UNK A   0      -2.005  -1.809  24.751  0.00  0.00    +0.005 C 
ATOM     21  C   UNK A   0      -3.503  -2.316  24.379  0.00  0.00    +0.154 C 
ATOM     22  O   UNK A   0      -3.537  -3.141  24.406  0.00  0.00    -0.223 OA
ATOM     23  C   UNK A   0      -4.176  -1.882  24.183  0.00  0.00    +0.033 C 
ATOM     24  C   UNK A   0      -4.143  -1.058  24.157  0.00  0.00    +0.003 C 
ATOM     25  C   UNK A   0      -3.436  -0.668  24.326  0.00  0.00    +0.006 C 
ATOM     26  C   UNK A   0      -4.109  -0.235  24.130  0.00  0.00    +0.000 C 
ATOM     27  S   UNK A   0      -1.407   0.644  24.803  0.00  0.00    -0.054 S 
ATOM     28  C   UNK A   0      -1.700   1.406  24.693  0.00  0.00    +0.186 A 
ATOM     29  N   UNK A   0      -1.273   2.107  24.776  0.00  0.00    -0.148 NA
ATOM     30  C   UNK A   0      -1.642   2.833  24.647  0.00  0.00    +0.305 C 
ATOM     31  O   UNK A   0      -2.439   2.859  24.437  0.00  0.00    -0.265 OA
ATOM     37  N   UNK A   0      -2.497   1.346  24.486  0.00  0.00    -0.227 NA
ENDROOT
BRANCH  30  32
ATOM     32  C   UNK A   0      -1.215   3.534  24.730  0.00  0.00    +0.201 A 
ATOM     33  C   UNK A   0      -1.458   4.205  25.143  0.00  0.00    +0.046 A 
ATOM     34  C   UNK A   0      -0.863   4.772  25.081  0.00  0.00    +0.044 A 
ATOM     35  C   UNK A   0      -0.251   4.452  24.630  0.00  0.00    +0.180 A 
ATOM     36  O   UNK A   0      -0.468   3.687  24.412  0.00  0.00    -0.446 OA
ENDBRANCH  30  32
BRANCH  17  19
ATOM     19  C   UNK A   0      -2.554  -2.709  24.646  0.00  0.00    +0.184 C 
ATOM     20  O   UNK A   0      -1.750  -2.890  24.695  0.00  0.00    -0.220 OA
ENDBRANCH  17  19
BRANCH  12  11
ATOM     11  C   UNK A   0      -4.076   0.589  24.104  0.00  0.00    +0.093 C 
BRANCH  11   9
ATOM      8  N   LEU A   1      -5.026   1.567  24.531  0.00  0.00    -0.204 NA
ATOM      9  C   UNK A   0      -4.538   0.924  24.700  0.00  0.00    +0.242 C 
ATOM     10  O   UNK A   0      -4.513   0.615  25.464  0.00  0.00    -0.273 OA
BRANCH   8   5
ATOM      5  CA  LEU A   1      -5.488   1.902  25.128  0.00  0.00    +0.128 C 
BRANCH   5   6
ATOM      6  C   LEU A   1      -6.270   1.662  25.227  0.00  0.00    +0.204 C 
ATOM      7  O   LEU A   1      -6.769   1.599  24.571  0.00  0.00    -0.219 OA
ENDBRANCH   5   6
BRANCH   5   4
ATOM      4  CB  LEU A   1      -5.167   2.476  25.625  0.00  0.00    +0.024 C 
BRANCH   4   2
ATOM      1  CD1 LEU A   1      -6.163   3.409  26.047  0.00  0.00    +0.000 C 
ATOM      2  CG  LEU A   1      -5.476   3.242  25.624  0.00  0.00    +0.002 C 
ATOM      3  CD2 LEU A   1      -5.097   3.839  25.200  0.00  0.00    +0.000 C 
ENDBRANCH   4   2
ENDBRANCH   5   4
ENDBRANCH   8   5
ENDBRANCH  11   9
ENDBRANCH  12  11
TORSDOF 8
ENDMDL
MODEL 2
REMARK VINA RESULT:     -12.2      1.251      3.517
REMARK  Name = 
REMARK  8 active torsions:
REMARK  status: ('A' for Active; 'I' for Inactive)
REMARK    1  A    between atoms: CG_2  and  CB_4
REMARK    2  A    between atoms: CB_4  and  CA_5
REMARK    3  A    between atoms: CA_5  and  C_6
REMARK    4  A    between atoms: CA_5  and  N_8
REMARK    5  A    between atoms: C_9  and  C_11
REMARK    6  A    between atoms: C_11  and  C_12
REMARK    7  A    between atoms: C_17  and  C_19
REMARK    8  A    between atoms: C_30  and  C_32
REMARK                            x       y       z     vdW  Elec       q    Type
REMARK                         _______ _______ _______ _____ _____    ______ ____
ROOT
ATOM     12  C   UNK A   0      -2.797  -0.235  25.133  0.00  0.00    +0.050 C 
ATOM     13  C   UNK A   0      -3.481   0.208  25.005  0.00  0.00    +0.063 A 
ATOM     14  C   UNK A   0      -4.138  -0.142  24.650  0.00  0.00    +0.023 A 
ATOM     15  C   UNK A   0      -4.112  -0.934  24.424  0.00  0.00    +0.034 C 
ATOM     16  C   UNK A   0      -3.428  -1.377  24.551  0.00  0.00    +0.010 C 
ATOM     17  C   UNK A   0      -3.402  -2.170  24.325  0.00  0.00    +0.059 C 
ATOM     18  C   UNK A   0      -4.169  -1.980  24.089  0.00  0.00    +0.005 C 
ATOM     21  C   UNK A   0      -2.717  -2.613  24.453  0.00  0.00    +0.154 C 
ATOM     22  O   UNK A   0      -2.691  -3.406  24.226  0.00  0.00    -0.223 OA
ATOM     23  C   UNK A   0      -2.060  -2.264  24.808  0.00  0.00    +0.033 C 
ATOM     24  C   UNK A   0      -2.087  -1.471  25.035  0.00  0.00    +0.003 C 
ATOM     25  C   UNK A   0      -2.770  -1.027  24.907  0.00  0.00    +0.006 C 
ATOM     26  C   UNK A   0      -2.113  -0.678  25.262  0.00  0.00    +0.000 C 
ATOM     27  S   UNK A   0      -4.732   0.430  24.595  0.00  0.00    -0.054 S 
ATOM     28  C   UNK A   0      -4.441   1.131  24.915  0.00  0.00    +0.186 A 
ATOM     29  N   UNK A   0      -4.851   1.845  24.972  0.00  0.00    -0.148 NA
ATOM     30  C   UNK A   0      -4.487   2.504  25.308  0.00  0.00    +0.305 C 
ATOM     31  O   UNK A   0      -3.713   2.450  25.587  0.00  0.00    -0.265 OA
ATOM     37  N   UNK A   0      -3.668   0.995  25.169  0.00  0.00    -0.227 NA
ENDROOT
BRANCH  30  32
ATOM     32  C   UNK A   0      -4.897   3.218  25.365  0.00  0.00    +0.201 A 
ATOM     33  C   UNK A   0      -4.625   3.955  25.116  0.00  0.00    +0.046 A 
ATOM     34  C   UNK A   0      -5.211   4.512  25.279  0.00  0.00    +0.044 A 
ATOM     35  C   UNK A   0      -5.846   4.119  25.629  0.00  0.00    +0.180 A 
ATOM     36  O   UNK A   0      -5.652   3.319  25.683  0.00  0.00    -0.446 OA
ENDBRANCH  30  32
BRANCH  17  19
ATOM     19  C   UNK A   0      -3.642  -2.896  24.016  0.00  0.00    +0.184 C 
ATOM     20  O   UNK A   0      -4.388  -2.972  23.671  0.00  0.00    -0.220 OA
ENDBRANCH  17  19
BRANCH  12  11
ATOM     11  C   UNK A   0      -2.140   0.115  25.488  0.00  0.00    +0.093 C 
BRANCH  11   9
ATOM      8  N   LEU A   1      -1.072   1.061  25.408  0.00  0.00    -0.204 NA
ATOM      9  C   UNK A   0      -1.621   0.571  25.036  0.00  0.00    +0.242 C 
ATOM     10  O   UNK A   0      -1.652   0.536  24.213  0.00  0.00    -0.273 OA
BRANCH   8   5
ATOM      5  CA  LEU A   1      -0.553   1.517  24.956  0.00  0.00    +0.128 C 
BRANCH   5   6
ATOM      6  C   LEU A   1       0.095   1.163  24.591  0.00  0.00    +0.204 C 
ATOM      7  O   LEU A   1       0.359   1.440  23.859  0.00  0.00    -0.219 OA
ENDBRANCH   5   6
BRANCH   5   4
ATOM      4  CB  LEU A   1      -0.685   2.327  24.870  0.00  0.00    +0.024 C 
BRANCH   4   2
ATOM      1  CD1 LEU A   1      -0.714   3.630  25.456  0.00  0.00    +0.000 C 
ATOM      2  CG  LEU A   1      -0.451   2.848  25.466  0.00  0.00    +0.002 C 
ATOM      3  CD2 LEU A   1       0.045   2.587  26.070  0.00  0.00    +0.000 C 
ENDBRANCH   4   2
ENDBRANCH   5   4
ENDBRANCH   8   5
ENDBRANCH  11   9
ENDBRANCH  12  11
TORSDOF 8
ENDMDL
MODEL 3
REMARK VINA RESULT:     -12.0      1.737      4.248
REMARK  Name = 
REMARK  8 active torsions:
REMARK  status: ('A' for Active; 'I' for Inactive)
REMARK    1  A    between atoms: CG_2  and  CB_4
REMARK    2  A    between atoms: CB_4  and  CA_5
REMARK    3  A    between atoms: CA_5  and  C_6
REMARK    4  A    between atoms: CA_5  and  N_8
REMARK    5  A    between atoms: C_9  and  C_11
REMARK    6  A    between atoms: C_11  and  C_12
REMARK    7  A    between atoms: C_17  and  C_19
REMARK    8  A    between atoms: C_30  and  C_32
REMARK                            x       y       z     vdW  Elec       q    Type
REMARK                         _______ _______ _______ _____ _____    ______ ____
ROOT
ATOM     12  C   UNK A   0      -3.504   1.422  24.340  0.00  0.00    +0.050 C 
ATOM     13  C   UNK A   0      -2.701   1.608  24.372  0.00  0.00    +0.063 A 
ATOM     14  C   UNK A   0      -2.452   2.296  24.754  0.00  0.00    +0.023 A 
ATOM     15  C   UNK A   0      -3.006   2.796  25.104  0.00  0.00    +0.034 C 
ATOM     16  C   UNK A   0      -3.809   2.610  25.072  0.00  0.00    +0.010 C 
ATOM     17  C   UNK A   0      -4.363   3.112  25.422  0.00  0.00    +0.059 C 
ATOM     18  C   UNK A   0      -3.669   3.521  25.597  0.00  0.00    +0.005 C 
ATOM     21  C   UNK A   0      -5.166   2.925  25.390  0.00  0.00    +0.154 C 
ATOM     22  O   UNK A   0      -5.721   3.426  25.740  0.00  0.00    -0.223 OA
ATOM     23  C   UNK A   0      -5.415   2.238  25.008  0.00  0.00    +0.033 C 
ATOM     24  C   UNK A   0      -4.861   1.737  24.658  0.00  0.00    +0.003 C 
ATOM     25  C   UNK A   0      -4.058   1.922  24.690  0.00  0.00    +0.006 C 
ATOM     26  C   UNK A   0      -4.307   1.235  24.308  0.00  0.00    +0.000 C 
ATOM     27  S   UNK A   0      -1.630   2.335  24.697  0.00  0.00    -0.054 S 
ATOM     28  C   UNK A   0      -1.371   1.673  24.280  0.00  0.00    +0.186 A 
ATOM     29  N   UNK A   0      -0.587   1.490  24.096  0.00  0.00    -0.148 NA
ATOM     30  C   UNK A   0      -0.411   0.805  23.674  0.00  0.00    +0.305 C 
ATOM     31  O   UNK A   0      -1.018   0.300  23.435  0.00  0.00    -0.265 OA
ATOM     37  N   UNK A   0      -2.033   1.223  24.079  0.00  0.00    -0.227 NA
ENDROOT
BRANCH  30  32
ATOM     32  C   UNK A   0       0.373   0.622  23.490  0.00  0.00    +0.201 A 
ATOM     33  C   UNK A   0       0.638  -0.069  23.128  0.00  0.00    +0.046 A 
ATOM     34  C   UNK A   0       1.457  -0.018  23.050  0.00  0.00    +0.044 A 
ATOM     35  C   UNK A   0       1.699   0.705  23.364  0.00  0.00    +0.180 A 
ATOM     36  O   UNK A   0       1.029   1.101  23.636  0.00  0.00    -0.446 OA
ENDBRANCH  30  32
BRANCH  17  19
ATOM     19  C   UNK A   0      -4.676   3.755  25.833  0.00  0.00    +0.184 C 
ATOM     20  O   UNK A   0      -4.171   4.282  26.219  0.00  0.00    -0.220 OA
ENDBRANCH  17  19
BRANCH  12  11
ATOM     11  C   UNK A   0      -3.753   0.734  23.958  0.00  0.00    +0.093 C 
BRANCH  11   9
ATOM      8  N   LEU A   1      -3.672  -0.692  23.951  0.00  0.00    -0.204 NA
ATOM      9  C   UNK A   0      -3.759   0.016  24.365  0.00  0.00    +0.242 C 
ATOM     10  O   UNK A   0      -3.851   0.007  25.183  0.00  0.00    -0.273 OA
BRANCH   8   5
ATOM      5  CA  LEU A   1      -3.678  -1.411  24.357  0.00  0.00    +0.128 C 
BRANCH   5   6
ATOM      6  C   LEU A   1      -4.309  -1.932  24.264  0.00  0.00    +0.204 C 
ATOM      7  O   LEU A   1      -4.657  -2.031  23.522  0.00  0.00    -0.219 OA
ENDBRANCH   5   6
BRANCH   5   4
ATOM      4  CB  LEU A   1      -3.051  -1.606  24.857  0.00  0.00    +0.024 C 
BRANCH   4   2
ATOM      1  CD1 LEU A   1      -3.118  -2.968  25.285  0.00  0.00    +0.000 C 
ATOM      2  CG  LEU A   1      -2.745  -2.373  24.854  0.00  0.00    +0.002 C 
ATOM      3  CD2 LEU A   1      -2.066  -2.543  24.419  0.00  0.00    +0.000 C 
ENDBRANCH   4   2
ENDBRANCH   5   4
ENDBRANCH   8   5
ENDBRANCH  11   9
ENDBRANCH  12  11
TORSDOF 8
ENDMDL
MODEL 4
REMARK VINA RESULT:     -11.5      1.108      4.666
REMARK  Name = 
REMARK  8 active torsions:
REMARK  status: ('A' for Active; 'I' for Inactive)
REMARK    1  A    between atoms: CG_2  and  CB_4
REMARK    2  A    between atoms: CB_4  and  CA_5
REMARK    3  A    between atoms: CA_5  and  C_6
REMARK    4  A    between atoms: CA_5  and  N_8
REMARK    5  A    between atoms: C_9  and  C_11
REMARK    6  A    between atoms: C_11  and  C_12
REMARK    7  A    between atoms: C_17  and  C_19
REMARK    8  A    between atoms: C_30  and  C_32
REMARK                            x       y       z     vdW  Elec       q    Type
REMARK                         _______ _______ _______ _____ _____    ______ ____
ROOT
ATOM     12  C   UNK A   0      -2.350   2.867  25.305  0.00  0.00    +0.050 C 
ATOM     13  C   UNK A   0      -2.076   2.149  25.003  0.00  0.00    +0.063 A 
ATOM     14  C   UNK A   0      -1.367   2.122  24.584  0.00  0.00    +0.023 A 
ATOM     15  C   UNK A   0      -0.931   2.811  24.466  0.00  0.00    +0.034 C 
ATOM     16  C   UNK A   0      -1.204   3.529  24.766  0.00  0.00    +0.010 C 
ATOM     17  C   UNK A   0      -0.768   4.219  24.648  0.00  0.00    +0.059 C 
ATOM     18  C   UNK A   0      -0.285   3.676  24.259  0.00  0.00    +0.005 C 
ATOM     21  C   UNK A   0      -1.043   4.937  24.949  0.00  0.00    +0.154 C 
ATOM     22  O   UNK A   0      -0.606   5.628  24.830  0.00  0.00    -0.223 OA
ATOM     23  C   UNK A   0      -1.752   4.964  25.368  0.00  0.00    +0.033 C 
ATOM     24  C   UNK A   0      -2.188   4.274  25.487  0.00  0.00    +0.003 C 
ATOM     25  C   UNK A   0      -1.915   3.556  25.186  0.00  0.00    +0.006 C 
ATOM     26  C   UNK A   0      -2.624   3.584  25.606  0.00  0.00    +0.000 C 
ATOM     27  S   UNK A   0      -1.237   1.340  24.354  0.00  0.00    -0.054 S 
ATOM     28  C   UNK A   0      -1.865   0.884  24.632  0.00  0.00    +0.186 A 
ATOM     29  N   UNK A   0      -1.960   0.071  24.527  0.00  0.00    -0.148 NA
ATOM     30  C   UNK A   0      -2.620  -0.312  24.837  0.00  0.00    +0.305 C 
ATOM     31  O   UNK A   0      -3.188   0.119  25.253  0.00  0.00    -0.265 OA
ATOM     37  N   UNK A   0      -2.385   1.384  25.033  0.00  0.00    -0.227 NA
ENDROOT
BRANCH  30  32
ATOM     32  C   UNK A   0      -2.715  -1.125  24.732  0.00  0.00    +0.201 A 
ATOM     33  C   UNK A   0      -3.432  -1.527  24.675  0.00  0.00    +0.046 A 
ATOM     34  C   UNK A   0      -3.268  -2.328  24.573  0.00  0.00    +0.044 A 
ATOM     35  C   UNK A   0      -2.449  -2.422  24.568  0.00  0.00    +0.180 A 
ATOM     36  O   UNK A   0      -2.106  -1.678  24.666  0.00  0.00    -0.446 OA
ENDBRANCH  30  32
BRANCH  17  19
ATOM     19  C   UNK A   0      -0.165   4.721  24.394  0.00  0.00    +0.184 C 
ATOM     20  O   UNK A   0       0.224   4.570  23.682  0.00  0.00    -0.220 OA
ENDBRANCH  17  19
BRANCH  12  11
ATOM     11  C   UNK A   0      -3.060   2.894  25.724  0.00  0.00    +0.093 C 
BRANCH  11   9
ATOM      8  N   LEU A   1      -4.486   2.808  25.722  0.00  0.00    -0.204 NA
ATOM      9  C   UNK A   0      -3.778   2.930  25.318  0.00  0.00    +0.242 C 
ATOM     10  O   UNK A   0      -3.786   3.090  24.509  0.00  0.00    -0.273 OA
BRANCH   8   5
ATOM      5  CA  LEU A   1      -5.204   2.845  25.315  0.00  0.00    +0.128 C 
BRANCH   5   6
ATOM      6  C   LEU A   1      -5.641   3.544  25.312  0.00  0.00    +0.204 C 
ATOM      7  O   LEU A   1      -5.722   3.983  26.006  0.00  0.00    -0.219 OA
ENDBRANCH   5   6
BRANCH   5   4
ATOM      4  CB  LEU A   1      -5.484   2.181  24.912  0.00  0.00    +0.024 C 
BRANCH   4   2
ATOM      1  CD1 LEU A   1      -6.818   1.731  24.667  0.00  0.00    +0.000 C 
ATOM      2  CG  LEU A   1      -6.169   1.800  25.172  0.00  0.00    +0.002 C 
ATOM      3  CD2 LEU A   1      -6.204   1.489  25.934  0.00  0.00    +0.000 C 
ENDBRANCH   4   2
ENDBRANCH   5   4
ENDBRANCH   8   5
ENDBRANCH  11   9
ENDBRANCH  12  11
TORSDOF 8
ENDMDL
MODEL 5
REMARK VINA RESULT:     -11.5      1.608      5.419
REMARK  Name = 
REMARK  8 active torsions:
REMARK  status: ('A' for Active; 'I' for Inactive)
REMARK    1  A    between atoms: CG_2  and  CB_4
REMARK    2  A    between atoms: CB_4  and  CA_5
REMARK    3  A    between atoms: CA_5  and  C_6
REMARK    4  A    between atoms: CA_5  and  N_8
REMARK    5  A    between atoms: C_9  and  C_11
REMARK    6  A    between atoms: C_11  and  C_12
REMARK    7  A    between atoms: C_17  and  C_19
REMARK    8  A    between atoms: C_30  and  C_32
REMARK                            x       y       z     vdW  Elec       q    Type
REMARK                         _______ _______ _______ _____ _____    ______ ____
ROOT
ATOM     12  C   UNK A   0      -3.464   1.968  24.445  0.00  0.00    +0.050 C 
ATOM     13  C   UNK A   0      -3.833   1.248  24.611  0.00  0.00    +0.063 A 
ATOM     14  C   UNK A   0      -4.565   1.238  24.991  0.00  0.00    +0.023 A 
ATOM     15  C   UNK A   0      -4.929   1.946  25.204  0.00  0.00    +0.034 C 
ATOM     16  C   UNK A   0      -4.561   2.665  25.038  0.00  0.00    +0.010 C 
ATOM     17  C   UNK A   0      -4.926   3.374  25.251  0.00  0.00    +0.059 C 
ATOM     18  C   UNK A   0      -5.488   2.837  25.524  0.00  0.00    +0.005 C 
ATOM     21  C   UNK A   0      -4.557   4.093  25.084  0.00  0.00    +0.154 C 
ATOM     22  O   UNK A   0      -4.922   4.803  25.297  0.00  0.00    -0.223 OA
ATOM     23  C   UNK A   0      -3.825   4.104  24.705  0.00  0.00    +0.033 C 
ATOM     24  C   UNK A   0      -3.461   3.395  24.492  0.00  0.00    +0.003 C 
ATOM     25  C   UNK A   0      -3.828   2.676  24.658  0.00  0.00    +0.006 C 
ATOM     26  C   UNK A   0      -3.096   2.686  24.279  0.00  0.00    +0.000 C 
ATOM     27  S   UNK A   0      -4.793   0.450  25.082  0.00  0.00    -0.054 S 
ATOM     28  C   UNK A   0      -4.203  -0.026  24.760  0.00  0.00    +0.186 A 
ATOM     29  N   UNK A   0      -4.204  -0.851  24.732  0.00  0.00    -0.148 NA
ATOM     30  C   UNK A   0      -3.572  -1.254  24.391  0.00  0.00    +0.305 C 
ATOM     31  O   UNK A   0      -2.936  -0.833  24.076  0.00  0.00    -0.265 OA
ATOM     37  N   UNK A   0      -3.608   0.467  24.468  0.00  0.00    -0.227 NA
ENDROOT
BRANCH  30  32
ATOM     32  C   UNK A   0      -3.573  -2.079  24.363  0.00  0.00    +0.201 A 
ATOM     33  C   UNK A   0      -3.087  -2.580  24.801  0.00  0.00    +0.046 A 
ATOM     34  C   UNK A   0      -3.276  -3.358  24.601  0.00  0.00    +0.044 A 
ATOM     35  C   UNK A   0      -3.879  -3.337  24.039  0.00  0.00    +0.180 A 
ATOM     36  O   UNK A   0      -4.063  -2.547  23.892  0.00  0.00    -0.446 OA
ENDBRANCH  30  32
BRANCH  17  19
ATOM     19  C   UNK A   0      -5.485   3.896  25.559  0.00  0.00    +0.184 C 
ATOM     20  O   UNK A   0      -6.213   3.611  25.824  0.00  0.00    -0.220 OA
ENDBRANCH  17  19
BRANCH  12  11
ATOM     11  C   UNK A   0      -2.732   1.977  24.066  0.00  0.00    +0.093 C 
BRANCH  11   9
ATOM      8  N   LEU A   1      -1.324   1.738  24.111  0.00  0.00    -0.204 NA
ATOM      9  C   UNK A   0      -2.041   1.858  24.501  0.00  0.00    +0.242 C 
ATOM     10  O   UNK A   0      -2.067   1.858  25.325  0.00  0.00    -0.273 OA
BRANCH   8   5
ATOM      5  CA  LEU A   1      -0.633   1.619  24.547  0.00  0.00    +0.128 C 
BRANCH   5   6
ATOM      6  C   LEU A   1      -0.315   2.234  24.993  0.00  0.00    +0.204 C 
ATOM      7  O   LEU A   1       0.047   2.074  25.718  0.00  0.00    -0.219 OA
ENDBRANCH   5   6
BRANCH   5   4
ATOM      4  CB  LEU A   1      -0.260   0.883  24.534  0.00  0.00    +0.024 C 
BRANCH   4   2
ATOM      1  CD1 LEU A   1       0.121  -0.059  23.529  0.00  0.00    +0.000 C 
ATOM      2  CG  LEU A   1       0.219   0.674  23.895  0.00  0.00    +0.002 C 
ATOM      3  CD2 LEU A   1       0.794   1.197  23.623  0.00  0.00    +0.000 C 
ENDBRANCH   4   2
ENDBRANCH   5   4
ENDBRANCH   8   5
ENDBRANCH  11   9
ENDBRANCH  12  11
TORSDOF 8
ENDMDL
MODEL 6
REMARK VINA RESULT:     -11.3      2.395      3.612
REMARK  Name = 
REMARK  8 active torsions:
REMARK  status: ('A' for Active; 'I' for Inactive)
REMARK    1  A    between atoms: CG_2  and  CB_4
REMARK    2  A    between atoms: CB_4  and  CA_5
REMARK    3  A    between atoms: CA_5  and  C_6
REMARK    4  A    between atoms: CA_5  and  N_8
REMARK    5  A    between atoms: C_9  and  C_11
REMARK    6  A    between atoms: C_11  and  C_12
REMARK    7  A    between atoms: C_17  and  C_19
REMARK    8  A    between atoms: C_30  and  C_32
REMARK                            x       y       z     vdW  Elec       q    Type
REMARK                         _______ _______ _______ _____ _____    ______ ____
ROOT
ATOM     12  C   UNK A   0      -1.670   0.326  24.431  0.00  0.00    +0.050 C 
ATOM     13  C   UNK A   0      -0.985  -0.059  24.176  0.00  0.00    +0.063 A 
ATOM     14  C   UNK A   0      -0.937  -0.882  24.217  0.00  0.00    +0.023 A 
ATOM     15  C   UNK A   0      -1.570  -1.319  24.512  0.00  0.00    +0.034 C 
ATOM     16  C   UNK A   0      -2.254  -0.934  24.766  0.00  0.00    +0.010 C 
ATOM     17  C   UNK A   0      -2.888  -1.371  25.062  0.00  0.00    +0.059 C 
ATOM     18  C   UNK A   0      -2.362  -1.982  24.889  0.00  0.00    +0.005 C 
ATOM     21  C   UNK A   0      -3.572  -0.985  25.316  0.00  0.00    +0.154 C 
ATOM     22  O   UNK A   0      -4.207  -1.423  25.612  0.00  0.00    -0.223 OA
ATOM     23  C   UNK A   0      -3.621  -0.164  25.276  0.00  0.00    +0.033 C 
ATOM     24  C   UNK A   0      -2.987   0.274  24.980  0.00  0.00    +0.003 C 
ATOM     25  C   UNK A   0      -2.303  -0.111  24.726  0.00  0.00    +0.006 C 
ATOM     26  C   UNK A   0      -2.353   0.711  24.685  0.00  0.00    +0.000 C 
ATOM     27  S   UNK A   0      -0.197  -1.107  23.927  0.00  0.00    -0.054 S 
ATOM     28  C   UNK A   0       0.210  -0.425  23.708  0.00  0.00    +0.186 A 
ATOM     29  N   UNK A   0       0.971  -0.394  23.390  0.00  0.00    -0.148 NA
ATOM     30  C   UNK A   0       1.309   0.333  23.197  0.00  0.00    +0.305 C 
ATOM     31  O   UNK A   0       0.885   1.030  23.320  0.00  0.00    -0.265 OA
ATOM     37  N   UNK A   0      -0.277   0.224  23.862  0.00  0.00    -0.227 NA
ENDROOT
BRANCH  30  32
ATOM     32  C   UNK A   0       2.070   0.364  22.879  0.00  0.00    +0.201 A 
ATOM     33  C   UNK A   0       2.696   0.818  23.163  0.00  0.00    +0.046 A 
ATOM     34  C   UNK A   0       3.351   0.680  22.681  0.00  0.00    +0.044 A 
ATOM     35  C   UNK A   0       3.129   0.140  22.099  0.00  0.00    +0.180 A 
ATOM     36  O   UNK A   0       2.337  -0.056  22.221  0.00  0.00    -0.446 OA
ENDBRANCH  30  32
BRANCH  17  19
ATOM     19  C   UNK A   0      -3.339  -2.021  25.297  0.00  0.00    +0.184 C 
ATOM     20  O   UNK A   0      -3.174  -2.770  24.992  0.00  0.00    -0.220 OA
ENDBRANCH  17  19
BRANCH  12  11
ATOM     11  C   UNK A   0      -1.719   1.148  24.390  0.00  0.00    +0.093 C 
BRANCH  11   9
ATOM      8  N   LEU A   1      -1.310   2.426  24.881  0.00  0.00    -0.204 NA
ATOM      9  C   UNK A   0      -1.381   1.611  24.985  0.00  0.00    +0.242 C 
ATOM     10  O   UNK A   0      -1.116   1.259  25.681  0.00  0.00    -0.273 OA
BRANCH   8   5
ATOM      5  CA  LEU A   1      -0.972   2.889  25.476  0.00  0.00    +0.128 C 
BRANCH   5   6
ATOM      6  C   LEU A   1      -0.175   2.802  25.663  0.00  0.00    +0.204 C 
ATOM      7  O   LEU A   1       0.061   2.759  26.453  0.00  0.00    -0.219 OA
ENDBRANCH   5   6
BRANCH   5   4
ATOM      4  CB  LEU A   1      -1.434   3.439  25.882  0.00  0.00    +0.024 C 
BRANCH   4   2
ATOM      1  CD1 LEU A   1      -1.086   4.597  25.120  0.00  0.00    +0.000 C 
ATOM      2  CG  LEU A   1      -1.653   4.145  25.514  0.00  0.00    +0.002 C 
ATOM      3  CD2 LEU A   1      -2.436   4.399  25.540  0.00  0.00    +0.000 C 
ENDBRANCH   4   2
ENDBRANCH   5   4
ENDBRANCH   8   5
ENDBRANCH  11   9
ENDBRANCH  12  11
TORSDOF 8
ENDMDL
MODEL 7
REMARK VINA RESULT:     -10.9      1.972      4.054
REMARK  Name = 
REMARK  8 active torsions:
REMARK  status: ('A' for Active; 'I' for Inactive)
REMARK    1  A    between atoms: CG_2  and  CB_4
REMARK    2  A    between atoms: CB_4  and  CA_5
REMARK    3  A    between atoms: CA_5  and  C_6
REMARK    4  A    between atoms: CA_5  and  N_8
REMARK    5  A    between atoms: C_9  and  C_11
REMARK    6  A    between atoms: C_11  and  C_12
REMARK    7  A    between atoms: C_17  and  C_19
REMARK    8  A    between atoms: C_30  and  C_32
REMARK                            x       y       z     vdW  Elec       q    Type
REMARK                         _______ _______ _______ _____ _____    ______ ____
ROOT
ATOM     12  C   UNK A   0      -1.761  -0.175  24.736  0.00  0.00    +0.050 C 
ATOM     13  C   UNK A   0      -2.188   0.529  24.803  0.00  0.00    +0.063 A 
ATOM     14  C   UNK A   0      -3.011   0.517  24.756  0.00  0.00    +0.023 A 
ATOM     15  C   UNK A   0      -3.408  -0.197  24.642  0.00  0.00    +0.034 C 
ATOM     16  C   UNK A   0      -2.981  -0.900  24.575  0.00  0.00    +0.010 C 
ATOM     17  C   UNK A   0      -3.378  -1.614  24.461  0.00  0.00    +0.059 C 
ATOM     18  C   UNK A   0      -4.020  -1.097  24.492  0.00  0.00    +0.005 C 
ATOM     21  C   UNK A   0      -2.951  -2.317  24.394  0.00  0.00    +0.154 C 
ATOM     22  O   UNK A   0      -3.348  -3.032  24.280  0.00  0.00    -0.223 OA
ATOM     23  C   UNK A   0      -2.128  -2.305  24.441  0.00  0.00    +0.033 C 
ATOM     24  C   UNK A   0      -1.731  -1.591  24.555  0.00  0.00    +0.003 C 
ATOM     25  C   UNK A   0      -2.157  -0.888  24.622  0.00  0.00    +0.006 C 
ATOM     26  C   UNK A   0      -1.334  -0.877  24.669  0.00  0.00    +0.000 C 
ATOM     27  S   UNK A   0      -3.282   1.292  24.841  0.00  0.00    -0.054 S 
ATOM     28  C   UNK A   0      -2.626   1.782  24.940  0.00  0.00    +0.186 A 
ATOM     29  N   UNK A   0      -2.643   2.600  25.045  0.00  0.00    -0.148 NA
ATOM     30  C   UNK A   0      -1.939   3.019  25.138  0.00  0.00    +0.305 C 
ATOM     31  O   UNK A   0      -1.217   2.620  25.126  0.00  0.00    -0.265 OA
ATOM     37  N   UNK A   0      -1.949   1.310  24.917  0.00  0.00    -0.227 NA
ENDROOT
BRANCH  30  32
ATOM     32  C   UNK A   0      -1.956   3.838  25.243  0.00  0.00    +0.201 A 
ATOM     33  C   UNK A   0      -1.378   4.370  24.994  0.00  0.00    +0.046 A 
ATOM     34  C   UNK A   0      -1.620   5.128  25.212  0.00  0.00    +0.044 A 
ATOM     35  C   UNK A   0      -2.346   5.064  25.596  0.00  0.00    +0.180 A 
ATOM     36  O   UNK A   0      -2.555   4.266  25.615  0.00  0.00    -0.446 OA
ENDBRANCH  30  32
BRANCH  17  19
ATOM     19  C   UNK A   0      -3.998  -2.149  24.358  0.00  0.00    +0.184 C 
ATOM     20  O   UNK A   0      -4.678  -1.918  23.950  0.00  0.00    -0.220 OA
ENDBRANCH  17  19
BRANCH  12  11
ATOM     11  C   UNK A   0      -0.937  -0.162  24.783  0.00  0.00    +0.093 C 
BRANCH  11   9
ATOM      8  N   LEU A   1       0.327   0.138  24.190  0.00  0.00    -0.204 NA
ATOM      9  C   UNK A   0      -0.490   0.050  24.122  0.00  0.00    +0.242 C 
ATOM     10  O   UNK A   0      -0.860   0.173  23.396  0.00  0.00    -0.273 OA
BRANCH   8   5
ATOM      5  CA  LEU A   1       0.775   0.350  23.529  0.00  0.00    +0.128 C 
BRANCH   5   6
ATOM      6  C   LEU A   1       1.041   1.125  23.443  0.00  0.00    +0.204 C 
ATOM      7  O   LEU A   1       1.265   1.561  24.108  0.00  0.00    -0.219 OA
ENDBRANCH   5   6
BRANCH   5   4
ATOM      4  CB  LEU A   1       0.955  -0.214  22.955  0.00  0.00    +0.024 C 
BRANCH   4   2
ATOM      1  CD1 LEU A   1       1.789  -0.172  21.795  0.00  0.00    +0.000 C 
ATOM      2  CG  LEU A   1       1.707  -0.230  22.614  0.00  0.00    +0.002 C 
ATOM      3  CD2 LEU A   1       2.375  -0.303  23.091  0.00  0.00    +0.000 C 
ENDBRANCH   4   2
ENDBRANCH   5   4
ENDBRANCH   8   5
ENDBRANCH  11   9
ENDBRANCH  12  11
TORSDOF 8
ENDMDL
