REMARK  Name = 
REMARK  12 active torsions:
REMARK  status: ('A' for Active; 'I' for Inactive)
REMARK    1  A    between atoms: C_2  and  C_4
REMARK    2  A    between atoms: C_4  and  C_5
REMARK    3  A    between atoms: C_4  and  N_12
REMARK    4  A    between atoms: C_5  and  C_6
REMARK    5  A    between atoms: C_13  and  C_15
REMARK    6  A    between atoms: C_17  and  N_29
REMARK    7  A    between atoms: C_21  and  C_23
REMARK    8  A    between atoms: C_23  and  S_24
REMARK    9  A    between atoms: S_24  and  C_25
REMARK   10  A    between atoms: C_25  and  C_26
REMARK   11  A    between atoms: N_29  and  S_30
REMARK   12  A    between atoms: S_30  and  C_33
REMARK                            x       y       z     vdW  Elec       q    Type
REMARK                         _______ _______ _______ _____ _____    ______ ____
ROOT
ATOM     15  C   UNL     1       0.715  -0.412   0.000  0.00  0.00    +0.155 C 
ATOM     16  C   UNL     1       0.000   0.000   0.000  0.00  0.00    +0.049 C 
ATOM     17  C   UNL     1       0.000   0.825   0.000  0.00  0.00    +0.102 C 
ATOM     18  C   UNL     1       0.715   1.238   0.000  0.00  0.00    +0.041 C 
ATOM     19  C   UNL     1       1.429   0.825   0.000  0.00  0.00    +0.095 C 
ATOM     20  N   UNL     1       1.429   0.000   0.000  0.00  0.00    -0.272 N 
ATOM     21  C   UNL     1       2.143  -0.412   0.000  0.00  0.00    +0.237 C 
ATOM     22  O   UNL     1       2.143  -1.238   0.000  0.00  0.00    -0.274 OA
ENDROOT
BRANCH  15  13
ATOM     12  N   UNL     1       0.000  -1.650   0.000  0.00  0.00    -0.196 NA
ATOM     13  C   UNL     1       0.715  -1.238   0.000  0.00  0.00    +0.260 C 
ATOM     14  O   UNL     1       1.429  -1.650   0.000  0.00  0.00    -0.272 OA
BRANCH  12   4
ATOM      4  C   UNL     1       0.000  -2.475   0.000  0.00  0.00    +0.179 C 
BRANCH   4   2
ATOM      1  N   UNL     1       1.429  -2.475   0.000  0.00  0.00    -0.086 NA
ATOM      2  C   UNL     1       0.715  -2.888   0.000  0.00  0.00    +0.281 C 
ATOM      3  O   UNL     1       0.715  -3.712   0.000  0.00  0.00    -0.270 OA
ENDBRANCH   4   2
BRANCH   4   5
ATOM      5  C   UNL     1      -0.715  -2.888   0.000  0.00  0.00    +0.057 C 
BRANCH   5   6
ATOM      6  C   UNL     1      -0.715  -3.712   0.000  0.00  0.00    -0.020 A 
ATOM      7  C   UNL     1       0.000  -4.125   0.000  0.00  0.00    -0.004 A 
ATOM      8  C   UNL     1       0.000  -4.950   0.000  0.00  0.00    -0.000 A 
ATOM      9  C   UNL     1      -0.715  -5.362   0.000  0.00  0.00    -0.000 A 
ATOM     10  C   UNL     1      -1.429  -4.950   0.000  0.00  0.00    -0.000 A 
ATOM     11  C   UNL     1      -1.429  -4.125   0.000  0.00  0.00    -0.004 A 
ENDBRANCH   5   6
ENDBRANCH   4   5
ENDBRANCH  12   4
ENDBRANCH  15  13
BRANCH  21  23
ATOM     23  C   UNL     1       2.858   0.000   0.000  0.00  0.00    +0.143 C 
BRANCH  23  24
ATOM     24  S   UNL     1       3.572  -0.412   0.000  0.00  0.00    -0.119 S 
BRANCH  24  25
ATOM     25  C   UNL     1       4.287   0.000   0.000  0.00  0.00    +0.172 C 
BRANCH  25  26
ATOM     26  C   UNL     1       5.001  -0.412   0.000  0.00  0.00    +0.376 C 
ATOM     27  O   UNL     1       5.716   0.000   0.000  0.00  0.00    -0.245 OA
ATOM     28  O   UNL     1       5.001  -1.238   0.000  0.00  0.00    -0.245 OA
ENDBRANCH  25  26
ENDBRANCH  24  25
ENDBRANCH  23  24
ENDBRANCH  21  23
BRANCH  17  29
ATOM     29  N   UNL     1      -0.715   1.238   0.000  0.00  0.00    -0.079 NA
BRANCH  29  30
ATOM     30  S   UNL     1      -0.715   2.062   0.000  0.00  0.00    +0.082 S 
ATOM     31  O   UNL     1       0.111   2.062   0.000  0.00  0.00    -0.151 OA
ATOM     32  O   UNL     1      -1.540   2.062   0.000  0.00  0.00    -0.151 OA
BRANCH  30  33
ATOM     33  C   UNL     1      -0.715   2.888   0.000  0.00  0.00    +0.153 A 
ATOM     34  C   UNL     1      -1.382   3.372   0.000  0.00  0.00    +0.027 A 
ATOM     35  C   UNL     1      -1.127   4.157   0.000  0.00  0.00    +0.009 A 
ATOM     36  C   UNL     1      -0.302   4.157   0.000  0.00  0.00    +0.037 A 
ATOM     37  S   UNL     1      -0.047   3.372   0.000  0.00  0.00    -0.067 S 
ENDBRANCH  30  33
ENDBRANCH  29  30
ENDBRANCH  17  29
TORSDOF 12
