MODEL 1
REMARK VINA RESULT:     -11.2      0.000      0.000
REMARK  Name = 
REMARK  4 active torsions:
REMARK  status: ('A' for Active; 'I' for Inactive)
REMARK    1  A    between atoms: N_3  and  C_4
REMARK    2  A    between atoms: C_4  and  C_5
REMARK    3  A    between atoms: N_14  and  C_15
REMARK    4  A    between atoms: C_15  and  C_16
REMARK                            x       y       z     vdW  Elec       q    Type
REMARK                         _______ _______ _______ _____ _____    ______ ____
ROOT
ATOM      1  O   UNL     1      -0.031   1.102  24.697  0.00  0.00    -0.252 OA
ATOM      2  C   UNL     1      -0.854   1.110  24.763  0.00  0.00    +0.308 C 
ATOM      3  N   UNL     1      -1.345   1.756  24.615  0.00  0.00    -0.258 N 
ATOM     11  C   UNL     1      -2.124   1.520  24.748  0.00  0.00    +0.116 C 
ATOM     12  C   UNL     1      -2.114   0.728  24.978  0.00  0.00    +0.113 C 
ATOM     13  C   UNL     1      -2.718   0.204  25.181  0.00  0.00    +0.094 C 
ATOM     14  N   UNL     1      -2.538  -0.572  25.393  0.00  0.00    -0.266 NA
ATOM     22  C   UNL     1      -1.752  -0.825  25.402  0.00  0.00    +0.094 C 
ATOM     23  C   UNL     1      -1.148  -0.302  25.199  0.00  0.00    +0.112 C 
ATOM     24  N   UNL     1      -1.329   0.475  24.987  0.00  0.00    -0.261 N 
ENDROOT
BRANCH   3   4
ATOM      4  C   UNL     1      -1.100   2.507  24.375  0.00  0.00    +0.123 C 
BRANCH   4   5
ATOM      5  C   UNL     1      -1.440   3.179  24.713  0.00  0.00    +0.017 A 
ATOM      6  C   UNL     1      -1.060   3.563  25.337  0.00  0.00    +0.001 A 
ATOM      7  C   UNL     1      -1.399   4.235  25.675  0.00  0.00    +0.020 A 
ATOM      8  C   UNL     1      -2.117   4.523  25.388  0.00  0.00    +0.099 A 
ATOM      9  N   UNL     1      -2.496   4.139  24.765  0.00  0.00    -0.243 NA
ATOM     10  C   UNL     1      -2.158   3.467  24.426  0.00  0.00    +0.096 A 
ENDBRANCH   4   5
ENDBRANCH   3   4
BRANCH  14  15
ATOM     15  C   UNL     1      -3.142  -1.097  25.596  0.00  0.00    +0.099 C 
BRANCH  15  16
ATOM     16  C   UNL     1      -3.465  -1.595  25.025  0.00  0.00    -0.006 A 
ATOM     17  C   UNL     1      -4.032  -1.308  24.499  0.00  0.00    -0.003 A 
ATOM     18  C   UNL     1      -4.356  -1.807  23.927  0.00  0.00    -0.000 A 
ATOM     19  C   UNL     1      -4.112  -2.593  23.881  0.00  0.00    -0.000 A 
ATOM     20  C   UNL     1      -3.545  -2.882  24.406  0.00  0.00    -0.000 A 
ATOM     21  C   UNL     1      -3.221  -2.382  24.978  0.00  0.00    -0.003 A 
ENDBRANCH  15  16
ENDBRANCH  14  15
TORSDOF 4
ENDMDL
MODEL 2
REMARK VINA RESULT:     -11.0      1.502      1.950
REMARK  Name = 
REMARK  4 active torsions:
REMARK  status: ('A' for Active; 'I' for Inactive)
REMARK    1  A    between atoms: N_3  and  C_4
REMARK    2  A    between atoms: C_4  and  C_5
REMARK    3  A    between atoms: N_14  and  C_15
REMARK    4  A    between atoms: C_15  and  C_16
REMARK                            x       y       z     vdW  Elec       q    Type
REMARK                         _______ _______ _______ _____ _____    ______ ____
ROOT
ATOM      1  O   UNL     1      -4.604   2.554  24.185  0.00  0.00    -0.252 OA
ATOM      2  C   UNL     1      -3.954   2.095  24.407  0.00  0.00    +0.308 C 
ATOM      3  N   UNL     1      -3.163   2.324  24.368  0.00  0.00    -0.258 N 
ATOM     11  C   UNL     1      -2.702   1.697  24.644  0.00  0.00    +0.116 C 
ATOM     12  C   UNL     1      -3.209   1.081  24.852  0.00  0.00    +0.113 C 
ATOM     13  C   UNL     1      -3.067   0.327  25.157  0.00  0.00    +0.094 C 
ATOM     14  N   UNL     1      -3.697  -0.180  25.315  0.00  0.00    -0.266 NA
ATOM     22  C   UNL     1      -4.471   0.066  25.169  0.00  0.00    +0.094 C 
ATOM     23  C   UNL     1      -4.614   0.819  24.864  0.00  0.00    +0.112 C 
ATOM     24  N   UNL     1      -3.983   1.327  24.706  0.00  0.00    -0.261 N 
ENDROOT
BRANCH   3   4
ATOM      4  C   UNL     1      -2.881   3.052  24.101  0.00  0.00    +0.123 C 
BRANCH   4   5
ATOM      5  C   UNL     1      -2.259   3.424  24.495  0.00  0.00    +0.017 A 
ATOM      6  C   UNL     1      -2.418   3.961  25.101  0.00  0.00    +0.001 A 
ATOM      7  C   UNL     1      -1.795   4.333  25.495  0.00  0.00    +0.020 A 
ATOM      8  C   UNL     1      -1.015   4.168  25.283  0.00  0.00    +0.099 A 
ATOM      9  N   UNL     1      -0.857   3.631  24.678  0.00  0.00    -0.243 NA
ATOM     10  C   UNL     1      -1.479   3.259  24.283  0.00  0.00    +0.096 A 
ENDBRANCH   4   5
ENDBRANCH   3   4
BRANCH  14  15
ATOM     15  C   UNL     1      -3.555  -0.933  25.619  0.00  0.00    +0.099 C 
BRANCH  15  16
ATOM     16  C   UNL     1      -3.402  -1.563  25.109  0.00  0.00    -0.006 A 
ATOM     17  C   UNL     1      -2.629  -1.833  25.005  0.00  0.00    -0.003 A 
ATOM     18  C   UNL     1      -2.477  -2.462  24.495  0.00  0.00    -0.000 A 
ATOM     19  C   UNL     1      -3.097  -2.823  24.088  0.00  0.00    -0.000 A 
ATOM     20  C   UNL     1      -3.870  -2.554  24.191  0.00  0.00    -0.000 A 
ATOM     21  C   UNL     1      -4.023  -1.924  24.702  0.00  0.00    -0.003 A 
ENDBRANCH  15  16
ENDBRANCH  14  15
TORSDOF 4
ENDMDL
MODEL 3
REMARK VINA RESULT:     -10.9      1.229      4.774
REMARK  Name = 
REMARK  4 active torsions:
REMARK  status: ('A' for Active; 'I' for Inactive)
REMARK    1  A    between atoms: N_3  and  C_4
REMARK    2  A    between atoms: C_4  and  C_5
REMARK    3  A    between atoms: N_14  and  C_15
REMARK    4  A    between atoms: C_15  and  C_16
REMARK                            x       y       z     vdW  Elec       q    Type
REMARK                         _______ _______ _______ _____ _____    ______ ____
ROOT
ATOM      1  O   UNL     1      -0.184  -0.402  23.709  0.00  0.00    -0.252 OA
ATOM      2  C   UNL     1      -0.569  -0.062  24.356  0.00  0.00    +0.308 C 
ATOM      3  N   UNL     1      -1.151  -0.421  24.816  0.00  0.00    -0.258 N 
ATOM     11  C   UNL     1      -1.381   0.115  25.400  0.00  0.00    +0.116 C 
ATOM     12  C   UNL     1      -0.940   0.805  25.300  0.00  0.00    +0.113 C 
ATOM     13  C   UNL     1      -0.930   1.519  25.713  0.00  0.00    +0.094 C 
ATOM     14  N   UNL     1      -0.419   2.123  25.482  0.00  0.00    -0.266 NA
ATOM     22  C   UNL     1       0.083   2.013  24.836  0.00  0.00    +0.094 C 
ATOM     23  C   UNL     1       0.074   1.300  24.423  0.00  0.00    +0.112 C 
ATOM     24  N   UNL     1      -0.438   0.695  24.655  0.00  0.00    -0.261 N 
ENDROOT
BRANCH   3   4
ATOM      4  C   UNL     1      -1.452  -1.182  24.711  0.00  0.00    +0.123 C 
BRANCH   4   5
ATOM      5  C   UNL     1      -2.265  -1.314  24.754  0.00  0.00    +0.017 A 
ATOM      6  C   UNL     1      -2.597  -1.620  25.446  0.00  0.00    +0.001 A 
ATOM      7  C   UNL     1      -3.410  -1.752  25.488  0.00  0.00    +0.020 A 
ATOM      8  C   UNL     1      -3.891  -1.580  24.841  0.00  0.00    +0.099 A 
ATOM      9  N   UNL     1      -3.559  -1.275  24.150  0.00  0.00    -0.243 NA
ATOM     10  C   UNL     1      -2.746  -1.142  24.106  0.00  0.00    +0.096 A 
ENDBRANCH   4   5
ENDBRANCH   3   4
BRANCH  14  15
ATOM     15  C   UNL     1      -0.410   2.837  25.895  0.00  0.00    +0.099 C 
BRANCH  15  16
ATOM     16  C   UNL     1      -0.884   3.464  25.647  0.00  0.00    -0.006 A 
ATOM     17  C   UNL     1      -0.583   4.032  25.131  0.00  0.00    -0.003 A 
ATOM     18  C   UNL     1      -1.058   4.659  24.883  0.00  0.00    -0.000 A 
ATOM     19  C   UNL     1      -1.835   4.718  25.152  0.00  0.00    -0.000 A 
ATOM     20  C   UNL     1      -2.138   4.151  25.669  0.00  0.00    -0.000 A 
ATOM     21  C   UNL     1      -1.662   3.523  25.916  0.00  0.00    -0.003 A 
ENDBRANCH  15  16
ENDBRANCH  14  15
TORSDOF 4
ENDMDL
MODEL 4
REMARK VINA RESULT:     -10.6      1.626      5.209
REMARK  Name = 
REMARK  4 active torsions:
REMARK  status: ('A' for Active; 'I' for Inactive)
REMARK    1  A    between atoms: N_3  and  C_4
REMARK    2  A    between atoms: C_4  and  C_5
REMARK    3  A    between atoms: N_14  and  C_15
REMARK    4  A    between atoms: C_15  and  C_16
REMARK                            x       y       z     vdW  Elec       q    Type
REMARK                         _______ _______ _______ _____ _____    ______ ____
ROOT
ATOM      1  O   UNL     1      -5.340   0.934  25.143  0.00  0.00    -0.252 OA
ATOM      2  C   UNL     1      -4.530   0.917  24.985  0.00  0.00    +0.308 C 
ATOM      3  N   UNL     1      -4.031   0.268  25.080  0.00  0.00    -0.258 N 
ATOM     11  C   UNL     1      -3.270   0.496  24.857  0.00  0.00    +0.116 C 
ATOM     12  C   UNL     1      -3.299   1.287  24.625  0.00  0.00    +0.113 C 
ATOM     13  C   UNL     1      -2.718   1.805  24.352  0.00  0.00    +0.094 C 
ATOM     14  N   UNL     1      -2.914   2.581  24.158  0.00  0.00    -0.266 NA
ATOM     22  C   UNL     1      -3.693   2.841  24.237  0.00  0.00    +0.094 C 
ATOM     23  C   UNL     1      -4.276   2.325  24.509  0.00  0.00    +0.112 C 
ATOM     24  N   UNL     1      -4.078   1.547  24.704  0.00  0.00    -0.261 N 
ENDROOT
BRANCH   3   4
ATOM      4  C   UNL     1      -4.254  -0.479  25.349  0.00  0.00    +0.123 C 
BRANCH   4   5
ATOM      5  C   UNL     1      -3.915  -1.155  25.020  0.00  0.00    +0.017 A 
ATOM      6  C   UNL     1      -4.213  -1.464  24.314  0.00  0.00    +0.001 A 
ATOM      7  C   UNL     1      -3.875  -2.140  23.985  0.00  0.00    +0.020 A 
ATOM      8  C   UNL     1      -3.238  -2.507  24.359  0.00  0.00    +0.099 A 
ATOM      9  N   UNL     1      -2.940  -2.199  25.063  0.00  0.00    -0.243 NA
ATOM     10  C   UNL     1      -3.278  -1.523  25.394  0.00  0.00    +0.096 A 
ENDBRANCH   4   5
ENDBRANCH   3   4
BRANCH  14  15
ATOM     15  C   UNL     1      -2.333   3.099  23.885  0.00  0.00    +0.099 C 
BRANCH  15  16
ATOM     16  C   UNL     1      -1.889   3.541  24.420  0.00  0.00    -0.006 A 
ATOM     17  C   UNL     1      -2.206   4.227  24.753  0.00  0.00    -0.003 A 
ATOM     18  C   UNL     1      -1.762   4.669  25.289  0.00  0.00    -0.000 A 
ATOM     19  C   UNL     1      -1.000   4.426  25.493  0.00  0.00    -0.000 A 
ATOM     20  C   UNL     1      -0.683   3.741  25.161  0.00  0.00    -0.000 A 
ATOM     21  C   UNL     1      -1.127   3.298  24.625  0.00  0.00    -0.003 A 
ENDBRANCH  15  16
ENDBRANCH  14  15
TORSDOF 4
ENDMDL
