REMARK  Name = 
REMARK  5 active torsions:
REMARK  status: ('A' for Active; 'I' for Inactive)
REMARK    1  A    between atoms: C_2  and  C_4
REMARK    2  A    between atoms: C_4  and  O_5
REMARK    3  A    between atoms: O_5  and  C_6
REMARK    4  A    between atoms: C_10  and  N_14
REMARK    5  A    between atoms: N_17  and  C_18
REMARK                            x       y       z     vdW  Elec       q    Type
REMARK                         _______ _______ _______ _____ _____    ______ ____
ROOT
ATOM     14  N   UNL     1       0.715  -3.712   0.000  0.00  0.00    -0.184 NA
ATOM     15  C   UNL     1       0.715  -2.888   0.000  0.00  0.00    +0.344 C 
ATOM     16  O   UNL     1       0.000  -2.475   0.000  0.00  0.00    -0.249 OA
ATOM     17  N   UNL     1       1.429  -2.475   0.000  0.00  0.00    -0.161 NA
ENDROOT
BRANCH  17  18
ATOM     18  C   UNL     1       1.429  -1.650   0.000  0.00  0.00    +0.075 A 
ATOM     19  C   UNL     1       0.715  -1.238   0.000  0.00  0.00    +0.017 A 
ATOM     20  C   UNL     1       0.715  -0.412   0.000  0.00  0.00    +0.001 A 
ATOM     21  C   UNL     1       1.429   0.000   0.000  0.00  0.00    +0.000 A 
ATOM     22  C   UNL     1       2.143  -0.412   0.000  0.00  0.00    +0.001 A 
ATOM     23  C   UNL     1       2.858   0.000   0.000  0.00  0.00    +0.000 A 
ATOM     24  C   UNL     1       3.572  -0.412   0.000  0.00  0.00    +0.000 A 
ATOM     25  C   UNL     1       3.572  -1.238   0.000  0.00  0.00    +0.000 A 
ATOM     26  C   UNL     1       2.858  -1.650   0.000  0.00  0.00    +0.001 A 
ATOM     27  C   UNL     1       2.143  -1.238   0.000  0.00  0.00    +0.015 A 
ENDBRANCH  17  18
BRANCH  14  10
ATOM      6  C   UNL     1      -2.059  -4.067   0.000  0.00  0.00    +0.175 C 
ATOM      7  C   UNL     1      -1.973  -3.247   0.000  0.00  0.00    +0.174 C 
ATOM      8  O   UNL     1      -1.166  -3.075   0.000  0.00  0.00    -0.349 OA
ATOM      9  C   UNL     1      -0.754  -3.789   0.000  0.00  0.00    +0.167 C 
ATOM     10  C   UNL     1       0.000  -4.125   0.000  0.00  0.00    +0.156 C 
ATOM     11  C   UNL     1      -0.086  -4.946   0.000  0.00  0.00    +0.166 C 
ATOM     12  O   UNL     1      -0.893  -5.117   0.000  0.00  0.00    -0.349 OA
ATOM     13  C   UNL     1      -1.306  -4.402   0.000  0.00  0.00    +0.173 C 
BRANCH   6   5
ATOM      5  O   UNL     1      -2.774  -4.479   0.000  0.00  0.00    -0.342 OA
BRANCH   5   4
ATOM      4  C   UNL     1      -3.488  -4.067   0.000  0.00  0.00    +0.230 C 
BRANCH   4   2
ATOM      1  N   UNL     1      -4.917  -4.067   0.000  0.00  0.00    -0.086 NA
ATOM      2  C   UNL     1      -4.203  -4.479   0.000  0.00  0.00    +0.291 C 
ATOM      3  O   UNL     1      -4.203  -5.304   0.000  0.00  0.00    -0.269 OA
ENDBRANCH   4   2
ENDBRANCH   5   4
ENDBRANCH   6   5
ENDBRANCH  14  10
TORSDOF 5
