MODEL 1
REMARK VINA RESULT:     -13.0      0.000      0.000
REMARK  Name = 
REMARK  7 active torsions:
REMARK  status: ('A' for Active; 'I' for Inactive)
REMARK    1  A    between atoms: C_2  and  C_3
REMARK    2  A    between atoms: C_2  and  C_25
REMARK    3  A    between atoms: C_10  and  N_11
REMARK    4  A    between atoms: C_12  and  C_14
REMARK    5  A    between atoms: N_27  and  C_28
REMARK    6  A    between atoms: C_28  and  C_29
REMARK    7  A    between atoms: C_29  and  N_30
REMARK                            x       y       z     vdW  Elec       q    Type
REMARK                         _______ _______ _______ _____ _____    ______ ____
ROOT
ATOM      3  C   UNL     1      -4.059   3.240  24.746  0.00  0.00    +0.039 C 
ATOM      4  C   UNL     1      -4.705   3.333  25.253  0.00  0.00    +0.003 C 
ATOM      5  C   UNL     1      -5.149   2.677  25.479  0.00  0.00    +0.000 C 
ATOM      6  C   UNL     1      -4.950   1.927  25.199  0.00  0.00    +0.002 C 
ATOM      7  C   UNL     1      -5.594   2.020  25.705  0.00  0.00    +0.000 C 
ATOM      8  C   UNL     1      -5.395   1.270  25.425  0.00  0.00    +0.002 C 
ATOM      9  C   UNL     1      -5.195   0.520  25.145  0.00  0.00    +0.022 C 
ATOM     10  C   UNL     1      -4.550   0.427  24.638  0.00  0.00    +0.096 C 
ATOM     20  C   UNL     1      -4.105   1.084  24.412  0.00  0.00    +0.022 C 
ATOM     21  C   UNL     1      -3.461   0.991  23.906  0.00  0.00    +0.002 C 
ATOM     22  C   UNL     1      -4.305   1.834  24.692  0.00  0.00    +0.032 C 
ATOM     23  C   UNL     1      -3.860   2.491  24.466  0.00  0.00    +0.152 C 
ATOM     24  O   UNL     1      -3.216   2.398  23.959  0.00  0.00    -0.223 OA
ENDROOT
BRANCH  10  11
ATOM     11  N   UNL     1      -4.351  -0.323  24.358  0.00  0.00    -0.203 NA
ATOM     12  C   UNL     1      -4.136  -0.917  24.887  0.00  0.00    +0.265 C 
ATOM     13  O   UNL     1      -4.120  -0.762  25.698  0.00  0.00    -0.268 OA
BRANCH  12  14
ATOM     14  C   UNL     1      -3.936  -1.667  24.608  0.00  0.00    +0.058 A 
ATOM     15  C   UNL     1      -4.322  -1.979  23.950  0.00  0.00    +0.025 A 
ATOM     16  C   UNL     1      -4.123  -2.729  23.670  0.00  0.00    +0.099 A 
ATOM     17  N   UNL     1      -3.536  -3.168  24.050  0.00  0.00    -0.242 NA
ATOM     18  C   UNL     1      -3.149  -2.856  24.709  0.00  0.00    +0.099 A 
ATOM     19  C   UNL     1      -3.349  -2.106  24.987  0.00  0.00    +0.025 A 
ENDBRANCH  12  14
ENDBRANCH  10  11
BRANCH   3   2
ATOM      1  C   UNL     1      -3.802   4.302  23.826  0.00  0.00    +0.010 C 
ATOM      2  C   UNL     1      -3.615   3.897  24.520  0.00  0.00    +0.081 C 
BRANCH   2  25
ATOM     25  C   UNL     1      -2.984   4.150  24.987  0.00  0.00    +0.241 C 
ATOM     26  O   UNL     1      -3.129   4.569  25.684  0.00  0.00    -0.273 OA
ATOM     27  N   UNL     1      -2.209   3.984  24.759  0.00  0.00    -0.204 NA
BRANCH  27  28
ATOM     28  C   UNL     1      -1.578   4.236  25.226  0.00  0.00    +0.132 C 
BRANCH  28  29
ATOM     29  C   UNL     1      -0.802   4.132  24.965  0.00  0.00    +0.096 C 
BRANCH  29  30
ATOM     30  N   UNL     1      -0.390   3.445  25.160  0.00  0.00    -0.267 NA
ATOM     31  C   UNL     1      -0.282   3.238  25.952  0.00  0.00    +0.105 C 
ATOM     32  C   UNL     1       0.130   2.552  26.147  0.00  0.00    +0.159 C 
ATOM     33  O   UNL     1       0.436   2.070  25.549  0.00  0.00    -0.351 OA
ATOM     34  C   UNL     1       0.328   2.276  24.758  0.00  0.00    +0.159 C 
ATOM     35  C   UNL     1      -0.084   2.963  24.563  0.00  0.00    +0.105 C 
ENDBRANCH  29  30
ENDBRANCH  28  29
ENDBRANCH  27  28
ENDBRANCH   2  25
ENDBRANCH   3   2
TORSDOF 7
ENDMDL
MODEL 2
REMARK VINA RESULT:     -12.5      2.539      4.690
REMARK  Name = 
REMARK  7 active torsions:
REMARK  status: ('A' for Active; 'I' for Inactive)
REMARK    1  A    between atoms: C_2  and  C_3
REMARK    2  A    between atoms: C_2  and  C_25
REMARK    3  A    between atoms: C_10  and  N_11
REMARK    4  A    between atoms: C_12  and  C_14
REMARK    5  A    between atoms: N_27  and  C_28
REMARK    6  A    between atoms: C_28  and  C_29
REMARK    7  A    between atoms: C_29  and  N_30
REMARK                            x       y       z     vdW  Elec       q    Type
REMARK                         _______ _______ _______ _____ _____    ______ ____
ROOT
ATOM      3  C   UNL     1      -1.817  -1.182  24.764  0.00  0.00    +0.039 C 
ATOM      4  C   UNL     1      -2.299  -1.741  24.394  0.00  0.00    +0.003 C 
ATOM      5  C   UNL     1      -3.104  -1.590  24.296  0.00  0.00    +0.000 C 
ATOM      6  C   UNL     1      -3.427  -0.882  24.567  0.00  0.00    +0.002 C 
ATOM      7  C   UNL     1      -3.908  -1.440  24.198  0.00  0.00    +0.000 C 
ATOM      8  C   UNL     1      -4.232  -0.731  24.470  0.00  0.00    +0.002 C 
ATOM      9  C   UNL     1      -4.556  -0.022  24.741  0.00  0.00    +0.022 C 
ATOM     10  C   UNL     1      -4.073   0.537  25.111  0.00  0.00    +0.096 C 
ATOM     20  C   UNL     1      -3.268   0.386  25.209  0.00  0.00    +0.022 C 
ATOM     21  C   UNL     1      -2.785   0.944  25.578  0.00  0.00    +0.002 C 
ATOM     22  C   UNL     1      -2.944  -0.323  24.937  0.00  0.00    +0.032 C 
ATOM     23  C   UNL     1      -2.139  -0.474  25.035  0.00  0.00    +0.152 C 
ATOM     24  O   UNL     1      -1.657   0.084  25.404  0.00  0.00    -0.223 OA
ENDROOT
BRANCH  10  11
ATOM     11  N   UNL     1      -4.396   1.245  25.382  0.00  0.00    -0.203 NA
ATOM     12  C   UNL     1      -4.789   1.746  24.859  0.00  0.00    +0.265 C 
ATOM     13  O   UNL     1      -4.860   1.539  24.063  0.00  0.00    -0.268 OA
BRANCH  12  14
ATOM     14  C   UNL     1      -5.113   2.456  25.131  0.00  0.00    +0.058 A 
ATOM     15  C   UNL     1      -4.713   3.166  25.007  0.00  0.00    +0.025 A 
ATOM     16  C   UNL     1      -5.036   3.875  25.278  0.00  0.00    +0.099 A 
ATOM     17  N   UNL     1      -5.760   3.873  25.673  0.00  0.00    -0.242 NA
ATOM     18  C   UNL     1      -6.161   3.162  25.797  0.00  0.00    +0.099 A 
ATOM     19  C   UNL     1      -5.837   2.454  25.526  0.00  0.00    +0.025 A 
ENDBRANCH  12  14
ENDBRANCH  10  11
BRANCH   3   2
ATOM      1  C   UNL     1      -0.714  -1.514  25.609  0.00  0.00    +0.010 C 
ATOM      2  C   UNL     1      -1.011  -1.334  24.861  0.00  0.00    +0.081 C 
BRANCH   2  25
ATOM     25  C   UNL     1      -0.504  -1.305  24.212  0.00  0.00    +0.241 C 
ATOM     26  O   UNL     1      -0.490  -1.929  23.671  0.00  0.00    -0.273 OA
ATOM     27  N   UNL     1      -0.010  -0.653  24.102  0.00  0.00    -0.204 NA
BRANCH  27  28
ATOM     28  C   UNL     1       0.498  -0.624  23.453  0.00  0.00    +0.132 C 
BRANCH  28  29
ATOM     29  C   UNL     1       0.808   0.098  23.203  0.00  0.00    +0.096 C 
BRANCH  29  30
ATOM     30  N   UNL     1       1.536   0.123  22.816  0.00  0.00    -0.267 NA
ATOM     31  C   UNL     1       2.182   0.490  23.175  0.00  0.00    +0.105 C 
ATOM     32  C   UNL     1       2.910   0.515  22.788  0.00  0.00    +0.159 C 
ATOM     33  O   UNL     1       2.992   0.172  22.041  0.00  0.00    -0.351 OA
ATOM     34  C   UNL     1       2.346  -0.194  21.682  0.00  0.00    +0.159 C 
ATOM     35  C   UNL     1       1.618  -0.220  22.069  0.00  0.00    +0.105 C 
ENDBRANCH  29  30
ENDBRANCH  28  29
ENDBRANCH  27  28
ENDBRANCH   2  25
ENDBRANCH   3   2
TORSDOF 7
ENDMDL
MODEL 3
REMARK VINA RESULT:     -11.7      3.248      4.972
REMARK  Name = 
REMARK  7 active torsions:
REMARK  status: ('A' for Active; 'I' for Inactive)
REMARK    1  A    between atoms: C_2  and  C_3
REMARK    2  A    between atoms: C_2  and  C_25
REMARK    3  A    between atoms: C_10  and  N_11
REMARK    4  A    between atoms: C_12  and  C_14
REMARK    5  A    between atoms: N_27  and  C_28
REMARK    6  A    between atoms: C_28  and  C_29
REMARK    7  A    between atoms: C_29  and  N_30
REMARK                            x       y       z     vdW  Elec       q    Type
REMARK                         _______ _______ _______ _____ _____    ______ ____
ROOT
ATOM      3  C   UNL     1       0.007  -0.023  23.605  0.00  0.00    +0.039 C 
ATOM      4  C   UNL     1       0.081  -0.619  24.172  0.00  0.00    +0.003 C 
ATOM      5  C   UNL     1      -0.486  -0.698  24.765  0.00  0.00    +0.000 C 
ATOM      6  C   UNL     1      -1.127  -0.181  24.793  0.00  0.00    +0.002 C 
ATOM      7  C   UNL     1      -1.053  -0.776  25.358  0.00  0.00    +0.000 C 
ATOM      8  C   UNL     1      -1.695  -0.258  25.387  0.00  0.00    +0.002 C 
ATOM      9  C   UNL     1      -2.337   0.259  25.416  0.00  0.00    +0.022 C 
ATOM     10  C   UNL     1      -2.412   0.855  24.849  0.00  0.00    +0.096 C 
ATOM     20  C   UNL     1      -1.844   0.933  24.255  0.00  0.00    +0.022 C 
ATOM     21  C   UNL     1      -1.919   1.529  23.690  0.00  0.00    +0.002 C 
ATOM     22  C   UNL     1      -1.202   0.416  24.227  0.00  0.00    +0.032 C 
ATOM     23  C   UNL     1      -0.635   0.494  23.634  0.00  0.00    +0.152 C 
ATOM     24  O   UNL     1      -0.709   1.090  23.068  0.00  0.00    -0.223 OA
ENDROOT
BRANCH  10  11
ATOM     11  N   UNL     1      -3.054   1.372  24.877  0.00  0.00    -0.203 NA
ATOM     12  C   UNL     1      -3.805   1.088  25.064  0.00  0.00    +0.265 C 
ATOM     13  O   UNL     1      -3.914   0.285  25.222  0.00  0.00    -0.268 OA
BRANCH  12  14
ATOM     14  C   UNL     1      -4.447   1.605  25.092  0.00  0.00    +0.058 A 
ATOM     15  C   UNL     1      -4.345   2.376  25.366  0.00  0.00    +0.025 A 
ATOM     16  C   UNL     1      -4.987   2.893  25.395  0.00  0.00    +0.099 A 
ATOM     17  N   UNL     1      -5.732   2.638  25.148  0.00  0.00    -0.242 NA
ATOM     18  C   UNL     1      -5.835   1.866  24.874  0.00  0.00    +0.099 A 
ATOM     19  C   UNL     1      -5.192   1.350  24.846  0.00  0.00    +0.025 A 
ENDBRANCH  12  14
ENDBRANCH  10  11
BRANCH   3   2
ATOM      1  C   UNL     1       0.392  -0.161  22.237  0.00  0.00    +0.010 C 
ATOM      2  C   UNL     1       0.574   0.055  23.012  0.00  0.00    +0.081 C 
BRANCH   2  25
ATOM     25  C   UNL     1       1.323   0.348  23.192  0.00  0.00    +0.241 C 
ATOM     26  O   UNL     1       1.400   1.028  23.656  0.00  0.00    -0.273 OA
ATOM     27  N   UNL     1       1.997  -0.036  22.911  0.00  0.00    -0.204 NA
BRANCH  27  28
ATOM     28  C   UNL     1       2.746   0.257  23.092  0.00  0.00    +0.132 C 
BRANCH  28  29
ATOM     29  C   UNL     1       3.413  -0.058  22.722  0.00  0.00    +0.096 C 
BRANCH  29  30
ATOM     30  N   UNL     1       4.135  -0.078  23.121  0.00  0.00    -0.267 NA
ATOM     31  C   UNL     1       4.637   0.576  23.100  0.00  0.00    +0.105 C 
ATOM     32  C   UNL     1       5.358   0.556  23.499  0.00  0.00    +0.159 C 
ATOM     33  O   UNL     1       5.579  -0.120  23.919  0.00  0.00    -0.351 OA
ATOM     34  C   UNL     1       5.078  -0.774  23.939  0.00  0.00    +0.159 C 
ATOM     35  C   UNL     1       4.355  -0.754  23.541  0.00  0.00    +0.105 C 
ENDBRANCH  29  30
ENDBRANCH  28  29
ENDBRANCH  27  28
ENDBRANCH   2  25
ENDBRANCH   3   2
TORSDOF 7
ENDMDL
MODEL 4
REMARK VINA RESULT:     -11.2      1.495      4.931
REMARK  Name = 
REMARK  7 active torsions:
REMARK  status: ('A' for Active; 'I' for Inactive)
REMARK    1  A    between atoms: C_2  and  C_3
REMARK    2  A    between atoms: C_2  and  C_25
REMARK    3  A    between atoms: C_10  and  N_11
REMARK    4  A    between atoms: C_12  and  C_14
REMARK    5  A    between atoms: N_27  and  C_28
REMARK    6  A    between atoms: C_28  and  C_29
REMARK    7  A    between atoms: C_29  and  N_30
REMARK                            x       y       z     vdW  Elec       q    Type
REMARK                         _______ _______ _______ _____ _____    ______ ____
ROOT
ATOM      3  C   UNL     1      -4.417   0.323  24.636  0.00  0.00    +0.039 C 
ATOM      4  C   UNL     1      -5.089   0.530  25.069  0.00  0.00    +0.003 C 
ATOM      5  C   UNL     1      -5.183   1.302  25.341  0.00  0.00    +0.000 C 
ATOM      6  C   UNL     1      -4.606   1.869  25.181  0.00  0.00    +0.002 C 
ATOM      7  C   UNL     1      -5.277   2.075  25.612  0.00  0.00    +0.000 C 
ATOM      8  C   UNL     1      -4.699   2.642  25.452  0.00  0.00    +0.002 C 
ATOM      9  C   UNL     1      -4.122   3.210  25.292  0.00  0.00    +0.022 C 
ATOM     10  C   UNL     1      -3.449   3.003  24.860  0.00  0.00    +0.096 C 
ATOM     20  C   UNL     1      -3.356   2.229  24.588  0.00  0.00    +0.022 C 
ATOM     21  C   UNL     1      -2.684   2.023  24.156  0.00  0.00    +0.002 C 
ATOM     22  C   UNL     1      -3.933   1.662  24.748  0.00  0.00    +0.032 C 
ATOM     23  C   UNL     1      -3.840   0.889  24.476  0.00  0.00    +0.152 C 
ATOM     24  O   UNL     1      -3.168   0.683  24.044  0.00  0.00    -0.223 OA
ENDROOT
BRANCH  10  11
ATOM     11  N   UNL     1      -2.872   3.569  24.700  0.00  0.00    -0.203 NA
ATOM     12  C   UNL     1      -2.484   3.950  25.320  0.00  0.00    +0.265 C 
ATOM     13  O   UNL     1      -2.674   3.763  26.102  0.00  0.00    -0.268 OA
BRANCH  12  14
ATOM     14  C   UNL     1      -1.906   4.517  25.160  0.00  0.00    +0.058 A 
ATOM     15  C   UNL     1      -2.109   5.315  25.128  0.00  0.00    +0.025 A 
ATOM     16  C   UNL     1      -1.531   5.882  24.968  0.00  0.00    +0.099 A 
ATOM     17  N   UNL     1      -0.750   5.650  24.840  0.00  0.00    -0.242 NA
ATOM     18  C   UNL     1      -0.547   4.850  24.872  0.00  0.00    +0.099 A 
ATOM     19  C   UNL     1      -1.125   4.284  25.032  0.00  0.00    +0.025 A 
ENDBRANCH  12  14
ENDBRANCH  10  11
BRANCH   3   2
ATOM      1  C   UNL     1      -4.690  -0.689  23.665  0.00  0.00    +0.010 C 
ATOM      2  C   UNL     1      -4.323  -0.451  24.365  0.00  0.00    +0.081 C 
BRANCH   2  25
ATOM     25  C   UNL     1      -3.864  -0.986  24.792  0.00  0.00    +0.241 C 
ATOM     26  O   UNL     1      -4.032  -1.130  25.588  0.00  0.00    -0.273 OA
ATOM     27  N   UNL     1      -3.238  -1.378  24.425  0.00  0.00    -0.204 NA
BRANCH  27  28
ATOM     28  C   UNL     1      -2.779  -1.913  24.852  0.00  0.00    +0.132 C 
BRANCH  28  29
ATOM     29  C   UNL     1      -2.131  -2.279  24.496  0.00  0.00    +0.096 C 
BRANCH  29  30
ATOM     30  N   UNL     1      -1.367  -2.019  24.661  0.00  0.00    -0.267 NA
ATOM     31  C   UNL     1      -0.960  -1.556  24.112  0.00  0.00    +0.105 C 
ATOM     32  C   UNL     1      -0.195  -1.296  24.277  0.00  0.00    +0.159 C 
ATOM     33  O   UNL     1       0.164  -1.498  24.992  0.00  0.00    -0.351 OA
ATOM     34  C   UNL     1      -0.242  -1.961  25.541  0.00  0.00    +0.159 C 
ATOM     35  C   UNL     1      -1.007  -2.222  25.376  0.00  0.00    +0.105 C 
ENDBRANCH  29  30
ENDBRANCH  28  29
ENDBRANCH  27  28
ENDBRANCH   2  25
ENDBRANCH   3   2
TORSDOF 7
ENDMDL
MODEL 5
REMARK VINA RESULT:     -10.7      2.432      4.202
REMARK  Name = 
REMARK  7 active torsions:
REMARK  status: ('A' for Active; 'I' for Inactive)
REMARK    1  A    between atoms: C_2  and  C_3
REMARK    2  A    between atoms: C_2  and  C_25
REMARK    3  A    between atoms: C_10  and  N_11
REMARK    4  A    between atoms: C_12  and  C_14
REMARK    5  A    between atoms: N_27  and  C_28
REMARK    6  A    between atoms: C_28  and  C_29
REMARK    7  A    between atoms: C_29  and  N_30
REMARK                            x       y       z     vdW  Elec       q    Type
REMARK                         _______ _______ _______ _____ _____    ______ ____
ROOT
ATOM      3  C   UNL     1      -0.615   2.956  25.256  0.00  0.00    +0.039 C 
ATOM      4  C   UNL     1      -0.606   3.782  25.235  0.00  0.00    +0.003 C 
ATOM      5  C   UNL     1      -1.314   4.200  25.189  0.00  0.00    +0.000 C 
ATOM      6  C   UNL     1      -2.032   3.796  25.166  0.00  0.00    +0.002 C 
ATOM      7  C   UNL     1      -2.023   4.619  25.144  0.00  0.00    +0.000 C 
ATOM      8  C   UNL     1      -2.742   4.214  25.120  0.00  0.00    +0.002 C 
ATOM      9  C   UNL     1      -3.460   3.809  25.096  0.00  0.00    +0.022 C 
ATOM     10  C   UNL     1      -3.469   2.984  25.118  0.00  0.00    +0.096 C 
ATOM     20  C   UNL     1      -2.760   2.565  25.163  0.00  0.00    +0.022 C 
ATOM     21  C   UNL     1      -2.769   1.740  25.185  0.00  0.00    +0.002 C 
ATOM     22  C   UNL     1      -2.041   2.970  25.187  0.00  0.00    +0.032 C 
ATOM     23  C   UNL     1      -1.332   2.551  25.232  0.00  0.00    +0.152 C 
ATOM     24  O   UNL     1      -1.341   1.726  25.254  0.00  0.00    -0.223 OA
ENDROOT
BRANCH  10  11
ATOM     11  N   UNL     1      -4.187   2.579  25.094  0.00  0.00    -0.203 NA
ATOM     12  C   UNL     1      -4.828   2.849  25.536  0.00  0.00    +0.265 C 
ATOM     13  O   UNL     1      -4.751   3.526  26.003  0.00  0.00    -0.268 OA
BRANCH  12  14
ATOM     14  C   UNL     1      -5.546   2.444  25.513  0.00  0.00    +0.058 A 
ATOM     15  C   UNL     1      -5.882   2.240  24.788  0.00  0.00    +0.025 A 
ATOM     16  C   UNL     1      -6.600   1.835  24.764  0.00  0.00    +0.099 A 
ATOM     17  N   UNL     1      -6.983   1.634  25.467  0.00  0.00    -0.242 NA
ATOM     18  C   UNL     1      -6.648   1.839  26.193  0.00  0.00    +0.099 A 
ATOM     19  C   UNL     1      -5.930   2.244  26.215  0.00  0.00    +0.025 A 
ENDBRANCH  12  14
ENDBRANCH  10  11
BRANCH   3   2
ATOM      1  C   UNL     1       0.412   2.342  26.038  0.00  0.00    +0.010 C 
ATOM      2  C   UNL     1       0.095   2.537  25.302  0.00  0.00    +0.081 C 
BRANCH   2  25
ATOM     25  C   UNL     1       0.487   2.314  24.612  0.00  0.00    +0.241 C 
ATOM     26  O   UNL     1       0.653   2.877  24.030  0.00  0.00    -0.273 OA
ATOM     27  N   UNL     1       0.716   1.529  24.502  0.00  0.00    -0.204 NA
BRANCH  27  28
ATOM     28  C   UNL     1       1.108   1.305  23.813  0.00  0.00    +0.132 C 
BRANCH  28  29
ATOM     29  C   UNL     1       1.311   0.515  23.690  0.00  0.00    +0.096 C 
BRANCH  29  30
ATOM     30  N   UNL     1       1.711   0.293  23.004  0.00  0.00    -0.267 NA
ATOM     31  C   UNL     1       1.304  -0.082  22.391  0.00  0.00    +0.105 C 
ATOM     32  C   UNL     1       1.704  -0.304  21.705  0.00  0.00    +0.159 C 
ATOM     33  O   UNL     1       2.512  -0.152  21.631  0.00  0.00    -0.351 OA
ATOM     34  C   UNL     1       2.919   0.222  22.243  0.00  0.00    +0.159 C 
ATOM     35  C   UNL     1       2.519   0.445  22.930  0.00  0.00    +0.105 C 
ENDBRANCH  29  30
ENDBRANCH  28  29
ENDBRANCH  27  28
ENDBRANCH   2  25
ENDBRANCH   3   2
TORSDOF 7
ENDMDL
MODEL 6
REMARK VINA RESULT:     -10.7      2.416      4.718
REMARK  Name = 
REMARK  7 active torsions:
REMARK  status: ('A' for Active; 'I' for Inactive)
REMARK    1  A    between atoms: C_2  and  C_3
REMARK    2  A    between atoms: C_2  and  C_25
REMARK    3  A    between atoms: C_10  and  N_11
REMARK    4  A    between atoms: C_12  and  C_14
REMARK    5  A    between atoms: N_27  and  C_28
REMARK    6  A    between atoms: C_28  and  C_29
REMARK    7  A    between atoms: C_29  and  N_30
REMARK                            x       y       z     vdW  Elec       q    Type
REMARK                         _______ _______ _______ _____ _____    ______ ____
ROOT
ATOM      3  C   UNL     1      -1.531   3.752  25.529  0.00  0.00    +0.039 C 
ATOM      4  C   UNL     1      -1.344   3.504  26.295  0.00  0.00    +0.003 C 
ATOM      5  C   UNL     1      -0.785   2.909  26.410  0.00  0.00    +0.000 C 
ATOM      6  C   UNL     1      -0.413   2.562  25.762  0.00  0.00    +0.002 C 
ATOM      7  C   UNL     1      -0.226   2.314  26.526  0.00  0.00    +0.000 C 
ATOM      8  C   UNL     1       0.147   1.966  25.877  0.00  0.00    +0.002 C 
ATOM      9  C   UNL     1       0.520   1.618  25.229  0.00  0.00    +0.022 C 
ATOM     10  C   UNL     1       0.333   1.866  24.463  0.00  0.00    +0.096 C 
ATOM     20  C   UNL     1      -0.226   2.462  24.348  0.00  0.00    +0.022 C 
ATOM     21  C   UNL     1      -0.413   2.709  23.584  0.00  0.00    +0.002 C 
ATOM     22  C   UNL     1      -0.600   2.810  24.997  0.00  0.00    +0.032 C 
ATOM     23  C   UNL     1      -1.158   3.405  24.881  0.00  0.00    +0.152 C 
ATOM     24  O   UNL     1      -1.345   3.652  24.117  0.00  0.00    -0.223 OA
ENDROOT
BRANCH  10  11
ATOM     11  N   UNL     1       0.706   1.519  23.815  0.00  0.00    -0.203 NA
ATOM     12  C   UNL     1       0.763   0.698  23.763  0.00  0.00    +0.265 C 
ATOM     13  O   UNL     1       0.447   0.224  24.361  0.00  0.00    -0.268 OA
BRANCH  12  14
ATOM     14  C   UNL     1       1.136   0.350  23.114  0.00  0.00    +0.058 A 
ATOM     15  C   UNL     1       0.698  -0.095  22.576  0.00  0.00    +0.025 A 
ATOM     16  C   UNL     1       1.071  -0.443  21.928  0.00  0.00    +0.099 A 
ATOM     17  N   UNL     1       1.883  -0.346  21.818  0.00  0.00    -0.242 NA
ATOM     18  C   UNL     1       2.322   0.100  22.357  0.00  0.00    +0.099 A 
ATOM     19  C   UNL     1       1.948   0.448  23.005  0.00  0.00    +0.025 A 
ENDBRANCH  12  14
ENDBRANCH  10  11
BRANCH   3   2
ATOM      1  C   UNL     1      -1.874   5.049  25.039  0.00  0.00    +0.010 C 
ATOM      2  C   UNL     1      -2.091   4.347  25.414  0.00  0.00    +0.081 C 
BRANCH   2  25
ATOM     25  C   UNL     1      -2.866   4.241  25.674  0.00  0.00    +0.241 C 
ATOM     26  O   UNL     1      -3.084   4.484  26.433  0.00  0.00    -0.273 OA
ATOM     27  N   UNL     1      -3.424   3.893  25.177  0.00  0.00    -0.204 NA
BRANCH  27  28
ATOM     28  C   UNL     1      -4.200   3.787  25.437  0.00  0.00    +0.132 C 
BRANCH  28  29
ATOM     29  C   UNL     1      -4.772   3.492  24.921  0.00  0.00    +0.096 C 
BRANCH  29  30
ATOM     30  N   UNL     1      -5.236   2.848  25.143  0.00  0.00    -0.267 NA
ATOM     31  C   UNL     1      -5.750   2.910  25.785  0.00  0.00    +0.105 C 
ATOM     32  C   UNL     1      -6.213   2.265  26.007  0.00  0.00    +0.159 C 
ATOM     33  O   UNL     1      -6.163   1.556  25.586  0.00  0.00    -0.351 OA
ATOM     34  C   UNL     1      -5.650   1.494  24.945  0.00  0.00    +0.159 C 
ATOM     35  C   UNL     1      -5.185   2.139  24.722  0.00  0.00    +0.105 C 
ENDBRANCH  29  30
ENDBRANCH  28  29
ENDBRANCH  27  28
ENDBRANCH   2  25
ENDBRANCH   3   2
TORSDOF 7
ENDMDL
MODEL 7
REMARK VINA RESULT:     -10.4      1.616      3.665
REMARK  Name = 
REMARK  7 active torsions:
REMARK  status: ('A' for Active; 'I' for Inactive)
REMARK    1  A    between atoms: C_2  and  C_3
REMARK    2  A    between atoms: C_2  and  C_25
REMARK    3  A    between atoms: C_10  and  N_11
REMARK    4  A    between atoms: C_12  and  C_14
REMARK    5  A    between atoms: N_27  and  C_28
REMARK    6  A    between atoms: C_28  and  C_29
REMARK    7  A    between atoms: C_29  and  N_30
REMARK                            x       y       z     vdW  Elec       q    Type
REMARK                         _______ _______ _______ _____ _____    ______ ____
ROOT
ATOM      3  C   UNL     1      -0.231   2.011  25.275  0.00  0.00    +0.039 C 
ATOM      4  C   UNL     1       0.299   1.981  24.642  0.00  0.00    +0.003 C 
ATOM      5  C   UNL     1       0.318   1.317  24.153  0.00  0.00    +0.000 C 
ATOM      6  C   UNL     1      -0.191   0.685  24.295  0.00  0.00    +0.002 C 
ATOM      7  C   UNL     1       0.338   0.654  23.663  0.00  0.00    +0.000 C 
ATOM      8  C   UNL     1      -0.172   0.021  23.805  0.00  0.00    +0.002 C 
ATOM      9  C   UNL     1      -0.682  -0.612  23.947  0.00  0.00    +0.022 C 
ATOM     10  C   UNL     1      -1.212  -0.581  24.580  0.00  0.00    +0.096 C 
ATOM     20  C   UNL     1      -1.231   0.083  25.070  0.00  0.00    +0.022 C 
ATOM     21  C   UNL     1      -1.760   0.113  25.702  0.00  0.00    +0.002 C 
ATOM     22  C   UNL     1      -0.721   0.716  24.928  0.00  0.00    +0.032 C 
ATOM     23  C   UNL     1      -0.740   1.379  25.417  0.00  0.00    +0.152 C 
ATOM     24  O   UNL     1      -1.269   1.410  26.049  0.00  0.00    -0.223 OA
ENDROOT
BRANCH  10  11
ATOM     11  N   UNL     1      -1.721  -1.214  24.722  0.00  0.00    -0.203 NA
ATOM     12  C   UNL     1      -2.315  -1.395  24.180  0.00  0.00    +0.265 C 
ATOM     13  O   UNL     1      -2.399  -0.943  23.494  0.00  0.00    -0.268 OA
BRANCH  12  14
ATOM     14  C   UNL     1      -2.825  -2.028  24.321  0.00  0.00    +0.058 A 
ATOM     15  C   UNL     1      -2.537  -2.723  24.658  0.00  0.00    +0.025 A 
ATOM     16  C   UNL     1      -3.047  -3.356  24.800  0.00  0.00    +0.099 A 
ATOM     17  N   UNL     1      -3.846  -3.293  24.604  0.00  0.00    -0.242 NA
ATOM     18  C   UNL     1      -4.135  -2.597  24.267  0.00  0.00    +0.099 A 
ATOM     19  C   UNL     1      -3.624  -1.965  24.126  0.00  0.00    +0.025 A 
ENDBRANCH  12  14
ENDBRANCH  10  11
BRANCH   3   2
ATOM      1  C   UNL     1       0.147   2.665  26.488  0.00  0.00    +0.010 C 
ATOM      2  C   UNL     1      -0.249   2.675  25.765  0.00  0.00    +0.081 C 
BRANCH   2  25
ATOM     25  C   UNL     1      -0.664   3.349  25.531  0.00  0.00    +0.241 C 
ATOM     26  O   UNL     1      -0.293   3.920  25.063  0.00  0.00    -0.273 OA
ATOM     27  N   UNL     1      -1.448   3.453  25.765  0.00  0.00    -0.204 NA
BRANCH  27  28
ATOM     28  C   UNL     1      -1.862   4.127  25.531  0.00  0.00    +0.132 C 
BRANCH  28  29
ATOM     29  C   UNL     1      -2.592   4.303  25.875  0.00  0.00    +0.096 C 
BRANCH  29  30
ATOM     30  N   UNL     1      -3.290   4.065  25.506  0.00  0.00    -0.267 NA
ATOM     31  C   UNL     1      -3.385   4.171  24.693  0.00  0.00    +0.105 C 
ATOM     32  C   UNL     1      -4.083   3.933  24.325  0.00  0.00    +0.159 C 
ATOM     33  O   UNL     1      -4.688   3.588  24.769  0.00  0.00    -0.351 OA
ATOM     34  C   UNL     1      -4.593   3.481  25.581  0.00  0.00    +0.159 C 
ATOM     35  C   UNL     1      -3.894   3.720  25.951  0.00  0.00    +0.105 C 
ENDBRANCH  29  30
ENDBRANCH  28  29
ENDBRANCH  27  28
ENDBRANCH   2  25
ENDBRANCH   3   2
TORSDOF 7
ENDMDL
MODEL 8
REMARK VINA RESULT:     -10.4      1.873      2.744
REMARK  Name = 
REMARK  7 active torsions:
REMARK  status: ('A' for Active; 'I' for Inactive)
REMARK    1  A    between atoms: C_2  and  C_3
REMARK    2  A    between atoms: C_2  and  C_25
REMARK    3  A    between atoms: C_10  and  N_11
REMARK    4  A    between atoms: C_12  and  C_14
REMARK    5  A    between atoms: N_27  and  C_28
REMARK    6  A    between atoms: C_28  and  C_29
REMARK    7  A    between atoms: C_29  and  N_30
REMARK                            x       y       z     vdW  Elec       q    Type
REMARK                         _______ _______ _______ _____ _____    ______ ____
ROOT
ATOM      3  C   UNL     1      -1.372   2.611  25.256  0.00  0.00    +0.039 C 
ATOM      4  C   UNL     1      -2.027   3.114  25.278  0.00  0.00    +0.003 C 
ATOM      5  C   UNL     1      -2.776   2.822  25.098  0.00  0.00    +0.000 C 
ATOM      6  C   UNL     1      -2.873   2.029  24.895  0.00  0.00    +0.002 C 
ATOM      7  C   UNL     1      -3.526   2.531  24.917  0.00  0.00    +0.000 C 
ATOM      8  C   UNL     1      -3.623   1.737  24.714  0.00  0.00    +0.002 C 
ATOM      9  C   UNL     1      -3.720   0.943  24.510  0.00  0.00    +0.022 C 
ATOM     10  C   UNL     1      -3.065   0.440  24.488  0.00  0.00    +0.096 C 
ATOM     20  C   UNL     1      -2.315   0.732  24.669  0.00  0.00    +0.022 C 
ATOM     21  C   UNL     1      -1.661   0.230  24.646  0.00  0.00    +0.002 C 
ATOM     22  C   UNL     1      -2.218   1.526  24.872  0.00  0.00    +0.032 C 
ATOM     23  C   UNL     1      -1.468   1.818  25.053  0.00  0.00    +0.152 C 
ATOM     24  O   UNL     1      -0.814   1.316  25.030  0.00  0.00    -0.223 OA
ENDROOT
BRANCH  10  11
ATOM     11  N   UNL     1      -3.161  -0.353  24.285  0.00  0.00    -0.203 NA
ATOM     12  C   UNL     1      -3.724  -0.813  24.674  0.00  0.00    +0.265 C 
ATOM     13  O   UNL     1      -4.191  -0.479  25.268  0.00  0.00    -0.268 OA
BRANCH  12  14
ATOM     14  C   UNL     1      -3.821  -1.607  24.471  0.00  0.00    +0.058 A 
ATOM     15  C   UNL     1      -3.460  -2.195  24.922  0.00  0.00    +0.025 A 
ATOM     16  C   UNL     1      -3.557  -2.989  24.719  0.00  0.00    +0.099 A 
ATOM     17  N   UNL     1      -4.015  -3.194  24.064  0.00  0.00    -0.242 NA
ATOM     18  C   UNL     1      -4.376  -2.605  23.612  0.00  0.00    +0.099 A 
ATOM     19  C   UNL     1      -4.278  -1.812  23.816  0.00  0.00    +0.025 A 
ENDBRANCH  12  14
ENDBRANCH  10  11
BRANCH   3   2
ATOM      1  C   UNL     1      -0.102   3.108  24.829  0.00  0.00    +0.010 C 
ATOM      2  C   UNL     1      -0.622   2.903  25.437  0.00  0.00    +0.081 C 
BRANCH   2  25
ATOM     25  C   UNL     1      -0.391   2.990  26.223  0.00  0.00    +0.241 C 
ATOM     26  O   UNL     1      -0.874   3.401  26.752  0.00  0.00    -0.273 OA
ATOM     27  N   UNL     1       0.323   2.667  26.483  0.00  0.00    -0.204 NA
BRANCH  27  28
ATOM     28  C   UNL     1       0.553   2.754  27.269  0.00  0.00    +0.132 C 
BRANCH  28  29
ATOM     29  C   UNL     1       1.196   2.327  27.561  0.00  0.00    +0.096 C 
BRANCH  29  30
ATOM     30  N   UNL     1       1.499   2.496  28.309  0.00  0.00    -0.267 NA
ATOM     31  C   UNL     1       1.081   2.272  28.985  0.00  0.00    +0.105 C 
ATOM     32  C   UNL     1       1.384   2.441  29.732  0.00  0.00    +0.159 C 
ATOM     33  O   UNL     1       2.106   2.835  29.806  0.00  0.00    -0.351 OA
ATOM     34  C   UNL     1       2.524   3.059  29.132  0.00  0.00    +0.159 C 
ATOM     35  C   UNL     1       2.222   2.890  28.383  0.00  0.00    +0.105 C 
ENDBRANCH  29  30
ENDBRANCH  28  29
ENDBRANCH  27  28
ENDBRANCH   2  25
ENDBRANCH   3   2
TORSDOF 7
ENDMDL
MODEL 9
REMARK VINA RESULT:     -10.3      2.372      4.961
REMARK  Name = 
REMARK  7 active torsions:
REMARK  status: ('A' for Active; 'I' for Inactive)
REMARK    1  A    between atoms: C_2  and  C_3
REMARK    2  A    between atoms: C_2  and  C_25
REMARK    3  A    between atoms: C_10  and  N_11
REMARK    4  A    between atoms: C_12  and  C_14
REMARK    5  A    between atoms: N_27  and  C_28
REMARK    6  A    between atoms: C_28  and  C_29
REMARK    7  A    between atoms: C_29  and  N_30
REMARK                            x       y       z     vdW  Elec       q    Type
REMARK                         _______ _______ _______ _____ _____    ______ ____
ROOT
ATOM      3  C   UNL     1      -3.280  -0.595  24.834  0.00  0.00    +0.039 C 
ATOM      4  C   UNL     1      -3.094  -1.057  25.493  0.00  0.00    +0.003 C 
ATOM      5  C   UNL     1      -2.306  -1.201  25.686  0.00  0.00    +0.000 C 
ATOM      6  C   UNL     1      -1.703  -0.885  25.221  0.00  0.00    +0.002 C 
ATOM      7  C   UNL     1      -1.518  -1.346  25.879  0.00  0.00    +0.000 C 
ATOM      8  C   UNL     1      -0.914  -1.029  25.414  0.00  0.00    +0.002 C 
ATOM      9  C   UNL     1      -0.310  -0.713  24.949  0.00  0.00    +0.022 C 
ATOM     10  C   UNL     1      -0.496  -0.251  24.290  0.00  0.00    +0.096 C 
ATOM     20  C   UNL     1      -1.285  -0.107  24.097  0.00  0.00    +0.022 C 
ATOM     21  C   UNL     1      -1.471   0.355  23.439  0.00  0.00    +0.002 C 
ATOM     22  C   UNL     1      -1.889  -0.423  24.562  0.00  0.00    +0.032 C 
ATOM     23  C   UNL     1      -2.677  -0.278  24.369  0.00  0.00    +0.152 C 
ATOM     24  O   UNL     1      -2.863   0.183  23.711  0.00  0.00    -0.223 OA
ENDROOT
BRANCH  10  11
ATOM     11  N   UNL     1       0.107   0.065  23.825  0.00  0.00    -0.203 NA
ATOM     12  C   UNL     1       0.769  -0.390  23.642  0.00  0.00    +0.265 C 
ATOM     13  O   UNL     1       0.829  -1.164  23.925  0.00  0.00    -0.268 OA
BRANCH  12  14
ATOM     14  C   UNL     1       1.373  -0.074  23.177  0.00  0.00    +0.058 A 
ATOM     15  C   UNL     1       1.547  -0.408  22.444  0.00  0.00    +0.025 A 
ATOM     16  C   UNL     1       2.151  -0.091  21.979  0.00  0.00    +0.099 A 
ATOM     17  N   UNL     1       2.581   0.559  22.248  0.00  0.00    -0.242 NA
ATOM     18  C   UNL     1       2.407   0.894  22.983  0.00  0.00    +0.099 A 
ATOM     19  C   UNL     1       1.803   0.577  23.447  0.00  0.00    +0.025 A 
ENDBRANCH  12  14
ENDBRANCH  10  11
BRANCH   3   2
ATOM      1  C   UNL     1      -4.433  -0.884  24.041  0.00  0.00    +0.010 C 
ATOM      2  C   UNL     1      -4.070  -0.450  24.641  0.00  0.00    +0.081 C 
BRANCH   2  25
ATOM     25  C   UNL     1      -4.495   0.127  25.048  0.00  0.00    +0.241 C 
ATOM     26  O   UNL     1      -4.731  -0.007  25.828  0.00  0.00    -0.273 OA
ATOM     27  N   UNL     1      -4.685   0.839  24.677  0.00  0.00    -0.204 NA
BRANCH  27  28
ATOM     28  C   UNL     1      -5.111   1.416  25.084  0.00  0.00    +0.132 C 
BRANCH  28  29
ATOM     29  C   UNL     1      -5.359   2.099  24.693  0.00  0.00    +0.096 C 
BRANCH  29  30
ATOM     30  N   UNL     1      -5.140   2.841  24.978  0.00  0.00    -0.267 NA
ATOM     31  C   UNL     1      -4.459   3.209  24.693  0.00  0.00    +0.105 C 
ATOM     32  C   UNL     1      -4.241   3.951  24.979  0.00  0.00    +0.159 C 
ATOM     33  O   UNL     1      -4.704   4.326  25.551  0.00  0.00    -0.351 OA
ATOM     34  C   UNL     1      -5.384   3.958  25.836  0.00  0.00    +0.159 C 
ATOM     35  C   UNL     1      -5.603   3.215  25.550  0.00  0.00    +0.105 C 
ENDBRANCH  29  30
ENDBRANCH  28  29
ENDBRANCH  27  28
ENDBRANCH   2  25
ENDBRANCH   3   2
TORSDOF 7
ENDMDL
MODEL 10
REMARK VINA RESULT:     -10.3      1.689      3.686
REMARK  Name = 
REMARK  7 active torsions:
REMARK  status: ('A' for Active; 'I' for Inactive)
REMARK    1  A    between atoms: C_2  and  C_3
REMARK    2  A    between atoms: C_2  and  C_25
REMARK    3  A    between atoms: C_10  and  N_11
REMARK    4  A    between atoms: C_12  and  C_14
REMARK    5  A    between atoms: N_27  and  C_28
REMARK    6  A    between atoms: C_28  and  C_29
REMARK    7  A    between atoms: C_29  and  N_30
REMARK                            x       y       z     vdW  Elec       q    Type
REMARK                         _______ _______ _______ _____ _____    ______ ____
ROOT
ATOM      3  C   UNL     1      -1.862   3.359  25.350  0.00  0.00    +0.039 C 
ATOM      4  C   UNL     1      -1.226   3.459  25.868  0.00  0.00    +0.003 C 
ATOM      5  C   UNL     1      -0.735   2.821  26.044  0.00  0.00    +0.000 C 
ATOM      6  C   UNL     1      -0.878   2.084  25.704  0.00  0.00    +0.002 C 
ATOM      7  C   UNL     1      -0.243   2.183  26.220  0.00  0.00    +0.000 C 
ATOM      8  C   UNL     1      -0.386   1.445  25.880  0.00  0.00    +0.002 C 
ATOM      9  C   UNL     1      -0.529   0.707  25.539  0.00  0.00    +0.022 C 
ATOM     10  C   UNL     1      -1.165   0.608  25.022  0.00  0.00    +0.096 C 
ATOM     20  C   UNL     1      -1.656   1.246  24.846  0.00  0.00    +0.022 C 
ATOM     21  C   UNL     1      -2.292   1.147  24.329  0.00  0.00    +0.002 C 
ATOM     22  C   UNL     1      -1.514   1.984  25.186  0.00  0.00    +0.032 C 
ATOM     23  C   UNL     1      -2.005   2.622  25.010  0.00  0.00    +0.152 C 
ATOM     24  O   UNL     1      -2.640   2.523  24.493  0.00  0.00    -0.223 OA
ENDROOT
BRANCH  10  11
ATOM     11  N   UNL     1      -1.308  -0.130  24.681  0.00  0.00    -0.203 NA
ATOM     12  C   UNL     1      -1.446  -0.786  25.161  0.00  0.00    +0.265 C 
ATOM     13  O   UNL     1      -1.441  -0.704  25.983  0.00  0.00    -0.268 OA
BRANCH  12  14
ATOM     14  C   UNL     1      -1.589  -1.524  24.821  0.00  0.00    +0.058 A 
ATOM     15  C   UNL     1      -2.355  -1.827  24.800  0.00  0.00    +0.025 A 
ATOM     16  C   UNL     1      -2.498  -2.565  24.460  0.00  0.00    +0.099 A 
ATOM     17  N   UNL     1      -1.873  -3.000  24.140  0.00  0.00    -0.242 NA
ATOM     18  C   UNL     1      -1.106  -2.696  24.161  0.00  0.00    +0.099 A 
ATOM     19  C   UNL     1      -0.964  -1.958  24.501  0.00  0.00    +0.025 A 
ENDBRANCH  12  14
ENDBRANCH  10  11
BRANCH   3   2
ATOM      1  C   UNL     1      -2.144   4.528  24.578  0.00  0.00    +0.010 C 
ATOM      2  C   UNL     1      -2.354   3.998  25.174  0.00  0.00    +0.081 C 
BRANCH   2  25
ATOM     25  C   UNL     1      -3.055   4.108  25.594  0.00  0.00    +0.241 C 
ATOM     26  O   UNL     1      -3.037   4.451  26.346  0.00  0.00    -0.273 OA
ATOM     27  N   UNL     1      -3.775   3.875  25.265  0.00  0.00    -0.204 NA
BRANCH  27  28
ATOM     28  C   UNL     1      -4.476   3.985  25.685  0.00  0.00    +0.132 C 
BRANCH  28  29
ATOM     29  C   UNL     1      -5.201   3.813  25.331  0.00  0.00    +0.096 C 
BRANCH  29  30
ATOM     30  N   UNL     1      -5.574   3.093  25.482  0.00  0.00    -0.267 NA
ATOM     31  C   UNL     1      -5.732   2.572  24.862  0.00  0.00    +0.105 C 
ATOM     32  C   UNL     1      -6.105   1.852  25.013  0.00  0.00    +0.159 C 
ATOM     33  O   UNL     1      -6.319   1.652  25.785  0.00  0.00    -0.351 OA
ATOM     34  C   UNL     1      -6.161   2.172  26.404  0.00  0.00    +0.159 C 
ATOM     35  C   UNL     1      -5.788   2.893  26.254  0.00  0.00    +0.105 C 
ENDBRANCH  29  30
ENDBRANCH  28  29
ENDBRANCH  27  28
ENDBRANCH   2  25
ENDBRANCH   3   2
TORSDOF 7
ENDMDL
