MODEL 1
REMARK VINA RESULT:     -10.9      0.000      0.000
REMARK  Name = 
REMARK  3 active torsions:
REMARK  status: ('A' for Active; 'I' for Inactive)
REMARK    1  A    between atoms: C_2  and  C_4
REMARK    2  A    between atoms: C_4  and  N_5
REMARK    3  A    between atoms: C_8  and  C_10
REMARK                            x       y       z     vdW  Elec       q    Type
REMARK                         _______ _______ _______ _____ _____    ______ ____
ROOT
ATOM     10  C   UNL     1      -3.886   0.681  24.800  0.00  0.00    +0.140 A 
ATOM     11  N   UNL     1      -4.109   0.198  24.170  0.00  0.00    -0.229 NA
ATOM     12  C   UNL     1      -3.959  -0.584  24.383  0.00  0.00    +0.100 A 
ATOM     13  C   UNL     1      -3.642  -0.585  25.145  0.00  0.00    +0.100 A 
ATOM     14  N   UNL     1      -3.597   0.197  25.403  0.00  0.00    -0.229 NA
ATOM     15  C   UNL     1      -3.436  -1.298  25.504  0.00  0.00    +0.020 A 
ATOM     16  C   UNL     1      -3.546  -2.010  25.103  0.00  0.00    -0.003 A 
ATOM     17  C   UNL     1      -3.863  -2.009  24.341  0.00  0.00    -0.020 A 
ATOM     18  C   UNL     1      -3.973  -2.721  23.939  0.00  0.00    +0.031 C 
ATOM     19  C   UNL     1      -4.069  -1.297  23.981  0.00  0.00    +0.016 A 
ENDROOT
BRANCH  10   8
ATOM      5  N   UNL     1      -3.617   2.799  24.815  0.00  0.00    -0.272 NA
ATOM      6  C   UNL     1      -4.435   2.742  24.906  0.00  0.00    +0.073 C 
ATOM      7  C   UNL     1      -4.636   1.941  24.912  0.00  0.00    +0.026 C 
ATOM      8  C   UNL     1      -3.941   1.504  24.824  0.00  0.00    +0.076 C 
ATOM      9  C   UNL     1      -3.312   2.034  24.764  0.00  0.00    +0.080 C 
BRANCH   5   4
ATOM      4  C   UNL     1      -3.181   3.499  24.781  0.00  0.00    +0.072 C 
BRANCH   4   2
ATOM      1  C   UNL     1      -3.128   4.125  26.064  0.00  0.00    +0.001 C 
ATOM      2  C   UNL     1      -2.748   3.747  25.438  0.00  0.00    +0.016 C 
ATOM      3  C   UNL     1      -1.933   3.617  25.467  0.00  0.00    +0.001 C 
ENDBRANCH   4   2
ENDBRANCH   5   4
ENDBRANCH  10   8
TORSDOF 3
ENDMDL
MODEL 2
REMARK VINA RESULT:     -10.1      0.802      4.512
REMARK  Name = 
REMARK  3 active torsions:
REMARK  status: ('A' for Active; 'I' for Inactive)
REMARK    1  A    between atoms: C_2  and  C_4
REMARK    2  A    between atoms: C_4  and  N_5
REMARK    3  A    between atoms: C_8  and  C_10
REMARK                            x       y       z     vdW  Elec       q    Type
REMARK                         _______ _______ _______ _____ _____    ______ ____
ROOT
ATOM     10  C   UNL     1      -3.638   1.049  24.814  0.00  0.00    +0.140 A 
ATOM     11  N   UNL     1      -2.903   1.414  24.894  0.00  0.00    -0.229 NA
ATOM     12  C   UNL     1      -3.029   2.226  24.970  0.00  0.00    +0.100 A 
ATOM     13  C   UNL     1      -3.842   2.362  24.938  0.00  0.00    +0.100 A 
ATOM     14  N   UNL     1      -4.219   1.635  24.841  0.00  0.00    -0.229 NA
ATOM     15  C   UNL     1      -4.133   3.131  25.000  0.00  0.00    +0.020 A 
ATOM     16  C   UNL     1      -3.613   3.764  25.095  0.00  0.00    -0.003 A 
ATOM     17  C   UNL     1      -2.800   3.627  25.127  0.00  0.00    -0.020 A 
ATOM     18  C   UNL     1      -2.279   4.259  25.222  0.00  0.00    +0.031 C 
ATOM     19  C   UNL     1      -2.507   2.859  25.065  0.00  0.00    +0.016 A 
ENDROOT
BRANCH  10   8
ATOM      5  N   UNL     1      -3.726  -1.083  24.904  0.00  0.00    -0.272 NA
ATOM      6  C   UNL     1      -4.222  -0.930  24.263  0.00  0.00    +0.073 C 
ATOM      7  C   UNL     1      -4.250  -0.112  24.151  0.00  0.00    +0.026 C 
ATOM      8  C   UNL     1      -3.770   0.240  24.724  0.00  0.00    +0.076 C 
ATOM      9  C   UNL     1      -3.446  -0.360  25.189  0.00  0.00    +0.080 C 
BRANCH   5   4
ATOM      4  C   UNL     1      -3.540  -1.827  25.208  0.00  0.00    +0.072 C 
BRANCH   4   2
ATOM      1  C   UNL     1      -2.366  -2.412  24.643  0.00  0.00    +0.001 C 
ATOM      2  C   UNL     1      -3.186  -2.393  24.724  0.00  0.00    +0.016 C 
ATOM      3  C   UNL     1      -3.654  -2.942  24.321  0.00  0.00    +0.001 C 
ENDBRANCH   4   2
ENDBRANCH   5   4
ENDBRANCH  10   8
TORSDOF 3
ENDMDL
MODEL 3
REMARK VINA RESULT:     -10.1      0.991      4.655
REMARK  Name = 
REMARK  3 active torsions:
REMARK  status: ('A' for Active; 'I' for Inactive)
REMARK    1  A    between atoms: C_2  and  C_4
REMARK    2  A    between atoms: C_4  and  N_5
REMARK    3  A    between atoms: C_8  and  C_10
REMARK                            x       y       z     vdW  Elec       q    Type
REMARK                         _______ _______ _______ _____ _____    ______ ____
ROOT
ATOM     10  C   UNL     1      -2.666   1.953  24.670  0.00  0.00    +0.140 A 
ATOM     11  N   UNL     1      -1.978   2.325  24.409  0.00  0.00    -0.229 NA
ATOM     12  C   UNL     1      -1.946   3.073  24.755  0.00  0.00    +0.100 A 
ATOM     13  C   UNL     1      -2.615   3.163  25.230  0.00  0.00    +0.100 A 
ATOM     14  N   UNL     1      -3.060   2.472  25.177  0.00  0.00    -0.229 NA
ATOM     15  C   UNL     1      -2.731   3.865  25.648  0.00  0.00    +0.020 A 
ATOM     16  C   UNL     1      -2.179   4.475  25.593  0.00  0.00    -0.003 A 
ATOM     17  C   UNL     1      -1.511   4.385  25.118  0.00  0.00    -0.020 A 
ATOM     18  C   UNL     1      -0.959   4.995  25.062  0.00  0.00    +0.031 C 
ATOM     19  C   UNL     1      -1.393   3.684  24.699  0.00  0.00    +0.016 A 
ENDROOT
BRANCH  10   8
ATOM      5  N   UNL     1      -3.003  -0.133  24.366  0.00  0.00    -0.272 NA
ATOM      6  C   UNL     1      -3.606   0.194  23.908  0.00  0.00    +0.073 C 
ATOM      7  C   UNL     1      -3.554   1.015  23.966  0.00  0.00    +0.026 C 
ATOM      8  C   UNL     1      -2.917   1.196  24.460  0.00  0.00    +0.076 C 
ATOM      9  C   UNL     1      -2.577   0.486  24.707  0.00  0.00    +0.080 C 
BRANCH   5   4
ATOM      4  C   UNL     1      -2.851  -0.938  24.466  0.00  0.00    +0.072 C 
BRANCH   4   2
ATOM      1  C   UNL     1      -3.944  -1.836  24.264  0.00  0.00    +0.001 C 
ATOM      2  C   UNL     1      -3.435  -1.433  24.773  0.00  0.00    +0.016 C 
ATOM      3  C   UNL     1      -3.510  -1.524  25.590  0.00  0.00    +0.001 C 
ENDBRANCH   4   2
ENDBRANCH   5   4
ENDBRANCH  10   8
TORSDOF 3
ENDMDL
