MODEL 1
REMARK VINA RESULT:      -9.6      0.000      0.000
REMARK  Name = 
REMARK  8 active torsions:
REMARK  status: ('A' for Active; 'I' for Inactive)
REMARK    1  A    between atoms: C_7  and  C_8
REMARK    2  A    between atoms: C_13  and  N_29
REMARK    3  A    between atoms: C_15  and  C_16
REMARK    4  A    between atoms: N_18  and  C_19
REMARK    5  A    between atoms: C_19  and  C_20
REMARK    6  A    between atoms: C_19  and  C_26
REMARK    7  A    between atoms: C_20  and  C_21
REMARK    8  A    between atoms: C_30  and  C_32
REMARK                            x       y       z     vdW  Elec       q    Type
REMARK                         _______ _______ _______ _____ _____    ______ ____
ROOT
ATOM      8  C   UNL     1      -2.738  -0.208  24.799  0.00  0.00    +0.267 C 
ATOM      9  O   UNL     1      -3.181   0.443  25.044  0.00  0.00    -0.268 OA
ATOM     10  N   UNL     1      -1.945  -0.114  24.593  0.00  0.00    -0.268 N 
ATOM     11  C   UNL     1      -1.502  -0.766  24.347  0.00  0.00    +0.096 C 
ATOM     12  C   UNL     1      -0.709  -0.671  24.141  0.00  0.00    +0.043 C 
ATOM     13  C   UNL     1      -0.358   0.074  24.181  0.00  0.00    +0.100 C 
ATOM     14  C   UNL     1      -0.800   0.726  24.427  0.00  0.00    +0.051 C 
ATOM     15  C   UNL     1      -1.594   0.632  24.633  0.00  0.00    +0.155 C 
ENDROOT
BRANCH   8   7
ATOM      1  C   UNL     1      -4.097  -0.679  23.725  0.00  0.00    +0.154 C 
ATOM      2  N   UNL     1      -3.713  -1.170  24.265  0.00  0.00    -0.245 N 
ATOM      3  N   UNL     1      -3.887  -1.964  24.407  0.00  0.00    -0.173 NA
ATOM      4  C   UNL     1      -3.370  -2.239  24.988  0.00  0.00    +0.081 A 
ATOM      5  C   UNL     1      -3.350  -3.003  25.297  0.00  0.00    +0.054 C 
ATOM      6  C   UNL     1      -2.876  -1.615  25.206  0.00  0.00    +0.040 A 
ATOM      7  C   UNL     1      -3.089  -0.954  24.759  0.00  0.00    +0.133 A 
ENDBRANCH   8   7
BRANCH  15  16
ATOM     16  C   UNL     1      -2.037   1.283  24.879  0.00  0.00    +0.260 C 
ATOM     17  O   UNL     1      -2.495   1.235  25.563  0.00  0.00    -0.272 OA
ATOM     18  N   UNL     1      -2.022   1.982  24.441  0.00  0.00    -0.196 NA
BRANCH  18  19
ATOM     19  C   UNL     1      -2.465   2.633  24.687  0.00  0.00    +0.179 C 
BRANCH  19  26
ATOM     26  C   UNL     1      -3.160   2.833  24.291  0.00  0.00    +0.281 C 
ATOM     27  N   UNL     1      -3.842   3.009  24.719  0.00  0.00    -0.086 NA
ATOM     28  O   UNL     1      -3.172   2.858  23.466  0.00  0.00    -0.270 OA
ENDBRANCH  19  26
BRANCH  19  20
ATOM     20  C   UNL     1      -2.212   3.083  25.331  0.00  0.00    +0.064 C 
BRANCH  20  21
ATOM     21  C   UNL     1      -1.764   3.764  25.207  0.00  0.00    +0.010 A 
ATOM     22  C   UNL     1      -0.998   3.791  24.899  0.00  0.00    +0.003 A 
ATOM     23  C   UNL     1      -0.764   4.582  24.871  0.00  0.00    +0.007 A 
ATOM     24  C   UNL     1      -1.384   5.043  25.161  0.00  0.00    +0.035 A 
ATOM     25  S   UNL     1      -2.002   4.537  25.368  0.00  0.00    -0.091 S 
ENDBRANCH  20  21
ENDBRANCH  19  20
ENDBRANCH  18  19
ENDBRANCH  15  16
BRANCH  13  29
ATOM     29  N   UNL     1       0.435   0.168  23.975  0.00  0.00    -0.203 NA
ATOM     30  C   UNL     1       0.659   0.165  23.181  0.00  0.00    +0.273 C 
ATOM     31  O   UNL     1       0.089   0.067  22.593  0.00  0.00    -0.268 OA
BRANCH  30  32
ATOM     32  C   UNL     1       1.452   0.259  22.975  0.00  0.00    +0.119 A 
ATOM     33  C   UNL     1       1.827  -0.081  22.323  0.00  0.00    +0.093 A 
ATOM     34  C   UNL     1       1.476  -0.574  21.764  0.00  0.00    +0.055 C 
ATOM     35  N   UNL     1       2.616   0.160  22.331  0.00  0.00    -0.145 NA
ATOM     36  N   UNL     1       2.729   0.648  22.986  0.00  0.00    -0.110 NA
ATOM     37  S   UNL     1       2.009   0.709  23.384  0.00  0.00    +0.042 S 
ENDBRANCH  30  32
ENDBRANCH  13  29
TORSDOF 8
ENDMDL
MODEL 2
REMARK VINA RESULT:      -9.6      2.216      4.410
REMARK  Name = 
REMARK  8 active torsions:
REMARK  status: ('A' for Active; 'I' for Inactive)
REMARK    1  A    between atoms: C_7  and  C_8
REMARK    2  A    between atoms: C_13  and  N_29
REMARK    3  A    between atoms: C_15  and  C_16
REMARK    4  A    between atoms: N_18  and  C_19
REMARK    5  A    between atoms: C_19  and  C_20
REMARK    6  A    between atoms: C_19  and  C_26
REMARK    7  A    between atoms: C_20  and  C_21
REMARK    8  A    between atoms: C_30  and  C_32
REMARK                            x       y       z     vdW  Elec       q    Type
REMARK                         _______ _______ _______ _____ _____    ______ ____
ROOT
ATOM      8  C   UNL     1      -1.371  -0.081  24.766  0.00  0.00    +0.267 C 
ATOM      9  O   UNL     1      -0.688   0.379  24.810  0.00  0.00    -0.268 OA
ATOM     10  N   UNL     1      -2.110   0.282  24.707  0.00  0.00    -0.268 N 
ATOM     11  C   UNL     1      -2.793  -0.178  24.663  0.00  0.00    +0.096 C 
ATOM     12  C   UNL     1      -3.532   0.186  24.603  0.00  0.00    +0.043 C 
ATOM     13  C   UNL     1      -3.586   1.008  24.587  0.00  0.00    +0.100 C 
ATOM     14  C   UNL     1      -2.903   1.469  24.631  0.00  0.00    +0.051 C 
ATOM     15  C   UNL     1      -2.165   1.106  24.691  0.00  0.00    +0.155 C 
ENDROOT
BRANCH   8   7
ATOM      1  C   UNL     1      -0.764  -1.072  26.134  0.00  0.00    +0.154 C 
ATOM      2  N   UNL     1      -1.037  -1.359  25.410  0.00  0.00    -0.245 N 
ATOM      3  N   UNL     1      -1.079  -2.153  25.189  0.00  0.00    -0.173 NA
ATOM      4  C   UNL     1      -1.385  -2.188  24.423  0.00  0.00    +0.081 A 
ATOM      5  C   UNL     1      -1.520  -2.875  23.986  0.00  0.00    +0.054 C 
ATOM      6  C   UNL     1      -1.531  -1.416  24.171  0.00  0.00    +0.040 A 
ATOM      7  C   UNL     1      -1.316  -0.904  24.782  0.00  0.00    +0.133 A 
ENDBRANCH   8   7
BRANCH  15  16
ATOM     16  C   UNL     1      -1.481   1.565  24.735  0.00  0.00    +0.260 C 
ATOM     17  O   UNL     1      -0.855   1.423  24.216  0.00  0.00    -0.272 OA
ATOM     18  N   UNL     1      -1.423   2.166  25.297  0.00  0.00    -0.196 NA
BRANCH  18  19
ATOM     19  C   UNL     1      -0.738   2.625  25.340  0.00  0.00    +0.179 C 
BRANCH  19  26
ATOM     26  C   UNL     1      -0.189   2.491  25.940  0.00  0.00    +0.281 C 
ATOM     27  N   UNL     1       0.611   2.409  25.755  0.00  0.00    -0.086 NA
ATOM     28  O   UNL     1      -0.438   2.440  26.725  0.00  0.00    -0.270 OA
ENDBRANCH  19  26
BRANCH  19  20
ATOM     20  C   UNL     1      -0.605   3.219  24.782  0.00  0.00    +0.064 C 
BRANCH  20  21
ATOM     21  C   UNL     1      -0.907   3.976  24.906  0.00  0.00    +0.010 A 
ATOM     22  C   UNL     1      -1.593   4.162  25.326  0.00  0.00    +0.003 A 
ATOM     23  C   UNL     1      -1.686   4.982  25.311  0.00  0.00    +0.007 A 
ATOM     24  C   UNL     1      -1.058   5.302  24.882  0.00  0.00    +0.035 A 
ATOM     25  S   UNL     1      -0.577   4.681  24.632  0.00  0.00    -0.091 S 
ENDBRANCH  20  21
ENDBRANCH  19  20
ENDBRANCH  18  19
ENDBRANCH  15  16
BRANCH  13  29
ATOM     29  N   UNL     1      -4.325   1.371  24.528  0.00  0.00    -0.203 NA
ATOM     30  C   UNL     1      -4.816   1.419  25.189  0.00  0.00    +0.273 C 
ATOM     31  O   UNL     1      -4.569   1.103  25.910  0.00  0.00    -0.268 OA
BRANCH  30  32
ATOM     32  C   UNL     1      -5.554   1.782  25.129  0.00  0.00    +0.119 A 
ATOM     33  C   UNL     1      -5.759   2.519  25.440  0.00  0.00    +0.093 A 
ATOM     34  C   UNL     1      -5.261   3.021  25.864  0.00  0.00    +0.055 C 
ATOM     35  N   UNL     1      -6.549   2.664  25.251  0.00  0.00    -0.145 NA
ATOM     36  N   UNL     1      -6.832   2.017  24.824  0.00  0.00    -0.110 NA
ATOM     37  S   UNL     1      -6.218   1.473  24.748  0.00  0.00    +0.042 S 
ENDBRANCH  30  32
ENDBRANCH  13  29
TORSDOF 8
ENDMDL
MODEL 3
REMARK VINA RESULT:      -9.5      2.343      4.322
REMARK  Name = 
REMARK  8 active torsions:
REMARK  status: ('A' for Active; 'I' for Inactive)
REMARK    1  A    between atoms: C_7  and  C_8
REMARK    2  A    between atoms: C_13  and  N_29
REMARK    3  A    between atoms: C_15  and  C_16
REMARK    4  A    between atoms: N_18  and  C_19
REMARK    5  A    between atoms: C_19  and  C_20
REMARK    6  A    between atoms: C_19  and  C_26
REMARK    7  A    between atoms: C_20  and  C_21
REMARK    8  A    between atoms: C_30  and  C_32
REMARK                            x       y       z     vdW  Elec       q    Type
REMARK                         _______ _______ _______ _____ _____    ______ ____
ROOT
ATOM      8  C   UNL     1      -1.294   2.329  25.249  0.00  0.00    +0.267 C 
ATOM      9  O   UNL     1      -1.736   2.990  25.031  0.00  0.00    -0.268 OA
ATOM     10  N   UNL     1      -1.543   1.574  25.028  0.00  0.00    -0.268 N 
ATOM     11  C   UNL     1      -1.100   0.913  25.247  0.00  0.00    +0.096 C 
ATOM     12  C   UNL     1      -1.350   0.158  25.026  0.00  0.00    +0.043 C 
ATOM     13  C   UNL     1      -2.042   0.065  24.587  0.00  0.00    +0.100 C 
ATOM     14  C   UNL     1      -2.484   0.726  24.368  0.00  0.00    +0.051 C 
ATOM     15  C   UNL     1      -2.235   1.481  24.589  0.00  0.00    +0.155 C 
ENDROOT
BRANCH   8   7
ATOM      1  C   UNL     1       0.302   2.844  24.608  0.00  0.00    +0.154 C 
ATOM      2  N   UNL     1       0.132   2.660  25.394  0.00  0.00    -0.245 N 
ATOM      3  N   UNL     1       0.665   2.679  26.023  0.00  0.00    -0.173 NA
ATOM      4  C   UNL     1       0.261   2.455  26.707  0.00  0.00    +0.081 A 
ATOM      5  C   UNL     1       0.584   2.399  27.464  0.00  0.00    +0.054 C 
ATOM      6  C   UNL     1      -0.521   2.296  26.500  0.00  0.00    +0.040 A 
ATOM      7  C   UNL     1      -0.601   2.423  25.689  0.00  0.00    +0.133 A 
ENDBRANCH   8   7
BRANCH  15  16
ATOM     16  C   UNL     1      -2.677   2.142  24.370  0.00  0.00    +0.260 C 
ATOM     17  O   UNL     1      -2.294   2.835  24.136  0.00  0.00    -0.272 OA
ATOM     18  N   UNL     1      -3.501   2.111  24.385  0.00  0.00    -0.196 NA
BRANCH  18  19
ATOM     19  C   UNL     1      -3.943   2.773  24.167  0.00  0.00    +0.179 C 
BRANCH  19  26
ATOM     26  C   UNL     1      -3.958   3.017  23.379  0.00  0.00    +0.281 C 
ATOM     27  N   UNL     1      -3.927   3.821  23.196  0.00  0.00    -0.086 NA
ATOM     28  O   UNL     1      -4.005   2.458  22.774  0.00  0.00    -0.270 OA
ENDBRANCH  19  26
BRANCH  19  20
ATOM     20  C   UNL     1      -4.369   3.191  24.737  0.00  0.00    +0.064 C 
BRANCH  20  21
ATOM     21  C   UNL     1      -5.010   2.834  25.115  0.00  0.00    +0.010 A 
ATOM     22  C   UNL     1      -5.516   2.272  24.785  0.00  0.00    +0.003 A 
ATOM     23  C   UNL     1      -6.076   2.069  25.357  0.00  0.00    +0.007 A 
ATOM     24  C   UNL     1      -5.915   2.505  26.038  0.00  0.00    +0.035 A 
ATOM     25  S   UNL     1      -5.257   2.978  25.889  0.00  0.00    -0.091 S 
ENDBRANCH  20  21
ENDBRANCH  19  20
ENDBRANCH  18  19
ENDBRANCH  15  16
BRANCH  13  29
ATOM     29  N   UNL     1      -2.291  -0.690  24.366  0.00  0.00    -0.203 NA
ATOM     30  C   UNL     1      -2.808  -1.112  24.850  0.00  0.00    +0.273 C 
ATOM     31  O   UNL     1      -3.076  -0.779  25.557  0.00  0.00    -0.268 OA
BRANCH  30  32
ATOM     32  C   UNL     1      -3.057  -1.867  24.630  0.00  0.00    +0.119 A 
ATOM     33  C   UNL     1      -3.781  -2.055  24.280  0.00  0.00    +0.093 A 
ATOM     34  C   UNL     1      -4.382  -1.523  24.091  0.00  0.00    +0.055 C 
ATOM     35  N   UNL     1      -3.798  -2.870  24.155  0.00  0.00    -0.145 NA
ATOM     36  N   UNL     1      -3.085  -3.185  24.426  0.00  0.00    -0.110 NA
ATOM     37  S   UNL     1      -2.628  -2.565  24.719  0.00  0.00    +0.042 S 
ENDBRANCH  30  32
ENDBRANCH  13  29
TORSDOF 8
ENDMDL
MODEL 4
REMARK VINA RESULT:      -9.5      1.729      4.344
REMARK  Name = 
REMARK  8 active torsions:
REMARK  status: ('A' for Active; 'I' for Inactive)
REMARK    1  A    between atoms: C_7  and  C_8
REMARK    2  A    between atoms: C_13  and  N_29
REMARK    3  A    between atoms: C_15  and  C_16
REMARK    4  A    between atoms: N_18  and  C_19
REMARK    5  A    between atoms: C_19  and  C_20
REMARK    6  A    between atoms: C_19  and  C_26
REMARK    7  A    between atoms: C_20  and  C_21
REMARK    8  A    between atoms: C_30  and  C_32
REMARK                            x       y       z     vdW  Elec       q    Type
REMARK                         _______ _______ _______ _____ _____    ______ ____
ROOT
ATOM      8  C   UNL     1      -2.869  -1.080  24.585  0.00  0.00    +0.267 C 
ATOM      9  O   UNL     1      -2.047  -1.084  24.514  0.00  0.00    -0.268 OA
ATOM     10  N   UNL     1      -3.259  -0.395  24.827  0.00  0.00    -0.268 N 
ATOM     11  C   UNL     1      -4.081  -0.392  24.898  0.00  0.00    +0.096 C 
ATOM     12  C   UNL     1      -4.471   0.295  25.140  0.00  0.00    +0.043 C 
ATOM     13  C   UNL     1      -4.040   0.976  25.309  0.00  0.00    +0.100 C 
ATOM     14  C   UNL     1      -3.218   0.974  25.238  0.00  0.00    +0.051 C 
ATOM     15  C   UNL     1      -2.827   0.288  24.997  0.00  0.00    +0.155 C 
ENDROOT
BRANCH   8   7
ATOM      1  C   UNL     1      -2.778  -2.635  25.477  0.00  0.00    +0.154 C 
ATOM      2  N   UNL     1      -3.259  -2.477  24.826  0.00  0.00    -0.245 N 
ATOM      3  N   UNL     1      -3.782  -3.007  24.469  0.00  0.00    -0.173 NA
ATOM      4  C   UNL     1      -4.147  -2.619  23.839  0.00  0.00    +0.081 A 
ATOM      5  C   UNL     1      -4.710  -2.943  23.331  0.00  0.00    +0.054 C 
ATOM      6  C   UNL     1      -3.849  -1.850  23.805  0.00  0.00    +0.040 A 
ATOM      7  C   UNL     1      -3.300  -1.763  24.416  0.00  0.00    +0.133 A 
ENDBRANCH   8   7
BRANCH  15  16
ATOM     16  C   UNL     1      -2.005   0.284  24.925  0.00  0.00    +0.260 C 
ATOM     17  O   UNL     1      -1.566  -0.332  25.254  0.00  0.00    -0.272 OA
ATOM     18  N   UNL     1      -1.623   0.896  24.526  0.00  0.00    -0.196 NA
BRANCH  18  19
ATOM     19  C   UNL     1      -0.801   0.892  24.455  0.00  0.00    +0.179 C 
BRANCH  19  26
ATOM     26  C   UNL     1      -0.449   0.656  23.747  0.00  0.00    +0.281 C 
ATOM     27  N   UNL     1       0.190   0.134  23.759  0.00  0.00    -0.086 NA
ATOM     28  O   UNL     1      -0.736   0.940  23.028  0.00  0.00    -0.270 OA
ENDBRANCH  19  26
BRANCH  19  20
ATOM     20  C   UNL     1      -0.331   1.124  25.093  0.00  0.00    +0.064 C 
BRANCH  20  21
ATOM     21  C   UNL     1      -0.242   1.925  25.269  0.00  0.00    +0.010 A 
ATOM     22  C   UNL     1      -0.249   2.544  24.724  0.00  0.00    +0.003 A 
ATOM     23  C   UNL     1      -0.142   3.249  25.140  0.00  0.00    +0.007 A 
ATOM     24  C   UNL     1      -0.069   3.065  25.940  0.00  0.00    +0.035 A 
ATOM     25  S   UNL     1      -0.130   2.247  26.020  0.00  0.00    -0.091 S 
ENDBRANCH  20  21
ENDBRANCH  19  20
ENDBRANCH  18  19
ENDBRANCH  15  16
BRANCH  13  29
ATOM     29  N   UNL     1      -4.430   1.662  25.551  0.00  0.00    -0.203 NA
ATOM     30  C   UNL     1      -4.710   2.197  24.989  0.00  0.00    +0.273 C 
ATOM     31  O   UNL     1      -4.600   2.046  24.185  0.00  0.00    -0.268 OA
BRANCH  30  32
ATOM     32  C   UNL     1      -5.101   2.883  25.230  0.00  0.00    +0.119 A 
ATOM     33  C   UNL     1      -4.832   3.656  25.125  0.00  0.00    +0.093 A 
ATOM     34  C   UNL     1      -4.127   3.879  24.760  0.00  0.00    +0.055 C 
ATOM     35  N   UNL     1      -5.394   4.166  25.449  0.00  0.00    -0.145 NA
ATOM     36  N   UNL     1      -6.008   3.709  25.754  0.00  0.00    -0.110 NA
ATOM     37  S   UNL     1      -5.827   2.916  25.619  0.00  0.00    +0.042 S 
ENDBRANCH  30  32
ENDBRANCH  13  29
TORSDOF 8
ENDMDL
MODEL 5
REMARK VINA RESULT:      -9.5      1.901      4.708
REMARK  Name = 
REMARK  8 active torsions:
REMARK  status: ('A' for Active; 'I' for Inactive)
REMARK    1  A    between atoms: C_7  and  C_8
REMARK    2  A    between atoms: C_13  and  N_29
REMARK    3  A    between atoms: C_15  and  C_16
REMARK    4  A    between atoms: N_18  and  C_19
REMARK    5  A    between atoms: C_19  and  C_20
REMARK    6  A    between atoms: C_19  and  C_26
REMARK    7  A    between atoms: C_20  and  C_21
REMARK    8  A    between atoms: C_30  and  C_32
REMARK                            x       y       z     vdW  Elec       q    Type
REMARK                         _______ _______ _______ _____ _____    ______ ____
ROOT
ATOM      8  C   UNL     1      -3.098   2.740  24.988  0.00  0.00    +0.267 C 
ATOM      9  O   UNL     1      -2.337   3.051  24.918  0.00  0.00    -0.268 OA
ATOM     10  N   UNL     1      -3.248   1.961  24.761  0.00  0.00    -0.268 N 
ATOM     11  C   UNL     1      -4.009   1.651  24.832  0.00  0.00    +0.096 C 
ATOM     12  C   UNL     1      -4.159   0.871  24.605  0.00  0.00    +0.043 C 
ATOM     13  C   UNL     1      -3.548   0.403  24.308  0.00  0.00    +0.100 C 
ATOM     14  C   UNL     1      -2.787   0.714  24.238  0.00  0.00    +0.051 C 
ATOM     15  C   UNL     1      -2.637   1.492  24.464  0.00  0.00    +0.155 C 
ENDROOT
BRANCH   8   7
ATOM      1  C   UNL     1      -3.025   3.756  26.466  0.00  0.00    +0.154 C 
ATOM      2  N   UNL     1      -3.675   3.675  25.964  0.00  0.00    -0.245 N 
ATOM      3  N   UNL     1      -4.406   4.048  26.054  0.00  0.00    -0.173 NA
ATOM      4  C   UNL     1      -4.891   3.810  25.430  0.00  0.00    +0.081 A 
ATOM      5  C   UNL     1      -5.670   4.050  25.304  0.00  0.00    +0.054 C 
ATOM      6  C   UNL     1      -4.460   3.292  24.955  0.00  0.00    +0.040 A 
ATOM      7  C   UNL     1      -3.709   3.208  25.285  0.00  0.00    +0.133 A 
ENDBRANCH   8   7
BRANCH  15  16
ATOM     16  C   UNL     1      -1.876   1.803  24.394  0.00  0.00    +0.260 C 
ATOM     17  O   UNL     1      -1.761   2.532  24.024  0.00  0.00    -0.272 OA
ATOM     18  N   UNL     1      -1.230   1.386  24.694  0.00  0.00    -0.196 NA
BRANCH  18  19
ATOM     19  C   UNL     1      -0.470   1.698  24.623  0.00  0.00    +0.179 C 
BRANCH  19  26
ATOM     26  C   UNL     1      -0.095   2.026  25.281  0.00  0.00    +0.281 C 
ATOM     27  N   UNL     1       0.306   2.743  25.212  0.00  0.00    -0.086 NA
ATOM     28  O   UNL     1      -0.122   1.637  26.008  0.00  0.00    -0.270 OA
ENDBRANCH  19  26
BRANCH  19  20
ATOM     20  C   UNL     1      -0.084   1.682  23.894  0.00  0.00    +0.064 C 
BRANCH  20  21
ATOM     21  C   UNL     1       0.349   1.015  23.672  0.00  0.00    +0.010 A 
ATOM     22  C   UNL     1       0.064   0.241  23.640  0.00  0.00    +0.003 A 
ATOM     23  C   UNL     1       0.683  -0.246  23.391  0.00  0.00    +0.007 A 
ATOM     24  C   UNL     1       1.347   0.227  23.269  0.00  0.00    +0.035 A 
ATOM     25  S   UNL     1       1.141   1.006  23.443  0.00  0.00    -0.091 S 
ENDBRANCH  20  21
ENDBRANCH  19  20
ENDBRANCH  18  19
ENDBRANCH  15  16
BRANCH  13  29
ATOM     29  N   UNL     1      -3.699  -0.375  24.081  0.00  0.00    -0.203 NA
ATOM     30  C   UNL     1      -3.701  -0.977  24.646  0.00  0.00    +0.273 C 
ATOM     31  O   UNL     1      -3.553  -0.799  25.438  0.00  0.00    -0.268 OA
BRANCH  30  32
ATOM     32  C   UNL     1      -3.852  -1.755  24.419  0.00  0.00    +0.119 A 
ATOM     33  C   UNL     1      -3.505  -2.430  24.744  0.00  0.00    +0.093 A 
ATOM     34  C   UNL     1      -2.948  -2.445  25.352  0.00  0.00    +0.055 C 
ATOM     35  N   UNL     1      -3.814  -3.088  24.353  0.00  0.00    -0.145 NA
ATOM     36  N   UNL     1      -4.351  -2.820  23.788  0.00  0.00    -0.110 NA
ATOM     37  S   UNL     1      -4.374  -1.997  23.828  0.00  0.00    +0.042 S 
ENDBRANCH  30  32
ENDBRANCH  13  29
TORSDOF 8
ENDMDL
MODEL 6
REMARK VINA RESULT:      -9.0      1.699      5.013
REMARK  Name = 
REMARK  8 active torsions:
REMARK  status: ('A' for Active; 'I' for Inactive)
REMARK    1  A    between atoms: C_7  and  C_8
REMARK    2  A    between atoms: C_13  and  N_29
REMARK    3  A    between atoms: C_15  and  C_16
REMARK    4  A    between atoms: N_18  and  C_19
REMARK    5  A    between atoms: C_19  and  C_20
REMARK    6  A    between atoms: C_19  and  C_26
REMARK    7  A    between atoms: C_20  and  C_21
REMARK    8  A    between atoms: C_30  and  C_32
REMARK                            x       y       z     vdW  Elec       q    Type
REMARK                         _______ _______ _______ _____ _____    ______ ____
ROOT
ATOM      8  C   UNL     1       0.197  -0.022  23.781  0.00  0.00    +0.267 C 
ATOM      9  O   UNL     1      -0.048  -0.742  24.102  0.00  0.00    -0.268 OA
ATOM     10  N   UNL     1      -0.212   0.671  23.960  0.00  0.00    -0.268 N 
ATOM     11  C   UNL     1       0.034   1.390  23.639  0.00  0.00    +0.096 C 
ATOM     12  C   UNL     1      -0.376   2.084  23.819  0.00  0.00    +0.043 C 
ATOM     13  C   UNL     1      -1.030   2.058  24.320  0.00  0.00    +0.100 C 
ATOM     14  C   UNL     1      -1.276   1.339  24.642  0.00  0.00    +0.051 C 
ATOM     15  C   UNL     1      -0.867   0.645  24.462  0.00  0.00    +0.155 C 
ENDROOT
BRANCH   8   7
ATOM      1  C   UNL     1       0.274  -0.677  22.111  0.00  0.00    +0.154 C 
ATOM      2  N   UNL     1       0.887  -0.298  22.512  0.00  0.00    -0.245 N 
ATOM      3  N   UNL     1       1.644  -0.153  22.215  0.00  0.00    -0.173 NA
ATOM      4  C   UNL     1       2.076   0.238  22.800  0.00  0.00    +0.081 A 
ATOM      5  C   UNL     1       2.860   0.488  22.738  0.00  0.00    +0.054 C 
ATOM      6  C   UNL     1       1.587   0.334  23.457  0.00  0.00    +0.040 A 
ATOM      7  C   UNL     1       0.852   0.003  23.279  0.00  0.00    +0.133 A 
ENDBRANCH   8   7
BRANCH  15  16
ATOM     16  C   UNL     1      -1.112  -0.074  24.783  0.00  0.00    +0.260 C 
ATOM     17  O   UNL     1      -0.557  -0.589  25.112  0.00  0.00    -0.272 OA
ATOM     18  N   UNL     1      -1.911  -0.278  24.776  0.00  0.00    -0.196 NA
BRANCH  18  19
ATOM     19  C   UNL     1      -2.155  -0.998  25.097  0.00  0.00    +0.179 C 
BRANCH  19  26
ATOM     26  C   UNL     1      -2.278  -1.066  25.910  0.00  0.00    +0.281 C 
ATOM     27  N   UNL     1      -1.846  -1.616  26.347  0.00  0.00    -0.086 NA
ATOM     28  O   UNL     1      -2.833  -0.585  26.286  0.00  0.00    -0.270 OA
ENDBRANCH  19  26
BRANCH  19  20
ATOM     20  C   UNL     1      -2.276  -1.649  24.605  0.00  0.00    +0.064 C 
BRANCH  20  21
ATOM     21  C   UNL     1      -3.032  -1.813  24.318  0.00  0.00    +0.010 A 
ATOM     22  C   UNL     1      -3.548  -1.270  23.973  0.00  0.00    +0.003 A 
ATOM     23  C   UNL     1      -4.240  -1.672  23.767  0.00  0.00    +0.007 A 
ATOM     24  C   UNL     1      -4.150  -2.462  23.986  0.00  0.00    +0.035 A 
ATOM     25  S   UNL     1      -3.404  -2.550  24.326  0.00  0.00    -0.091 S 
ENDBRANCH  20  21
ENDBRANCH  19  20
ENDBRANCH  18  19
ENDBRANCH  15  16
BRANCH  13  29
ATOM     29  N   UNL     1      -1.439   2.751  24.500  0.00  0.00    -0.203 NA
ATOM     30  C   UNL     1      -1.156   3.258  25.086  0.00  0.00    +0.273 C 
ATOM     31  O   UNL     1      -0.462   3.070  25.492  0.00  0.00    -0.268 OA
BRANCH  30  32
ATOM     32  C   UNL     1      -1.565   3.951  25.265  0.00  0.00    +0.119 A 
ATOM     33  C   UNL     1      -1.301   4.720  25.123  0.00  0.00    +0.093 A 
ATOM     34  C   UNL     1      -0.583   4.930  24.776  0.00  0.00    +0.055 C 
ATOM     35  N   UNL     1      -1.883   5.241  25.389  0.00  0.00    -0.145 NA
ATOM     36  N   UNL     1      -2.505   4.795  25.695  0.00  0.00    -0.110 NA
ATOM     37  S   UNL     1      -2.309   3.998  25.619  0.00  0.00    +0.042 S 
ENDBRANCH  30  32
ENDBRANCH  13  29
TORSDOF 8
ENDMDL
MODEL 7
REMARK VINA RESULT:      -8.7      1.502      4.036
REMARK  Name = 
REMARK  8 active torsions:
REMARK  status: ('A' for Active; 'I' for Inactive)
REMARK    1  A    between atoms: C_7  and  C_8
REMARK    2  A    between atoms: C_13  and  N_29
REMARK    3  A    between atoms: C_15  and  C_16
REMARK    4  A    between atoms: N_18  and  C_19
REMARK    5  A    between atoms: C_19  and  C_20
REMARK    6  A    between atoms: C_19  and  C_26
REMARK    7  A    between atoms: C_20  and  C_21
REMARK    8  A    between atoms: C_30  and  C_32
REMARK                            x       y       z     vdW  Elec       q    Type
REMARK                         _______ _______ _______ _____ _____    ______ ____
ROOT
ATOM      8  C   UNL     1      -1.708   1.994  25.072  0.00  0.00    +0.267 C 
ATOM      9  O   UNL     1      -2.116   1.529  25.618  0.00  0.00    -0.268 OA
ATOM     10  N   UNL     1      -1.147   1.650  24.574  0.00  0.00    -0.268 N 
ATOM     11  C   UNL     1      -0.739   2.115  24.029  0.00  0.00    +0.096 C 
ATOM     12  C   UNL     1      -0.178   1.770  23.531  0.00  0.00    +0.043 C 
ATOM     13  C   UNL     1      -0.025   0.962  23.580  0.00  0.00    +0.100 C 
ATOM     14  C   UNL     1      -0.433   0.496  24.126  0.00  0.00    +0.051 C 
ATOM     15  C   UNL     1      -0.994   0.840  24.623  0.00  0.00    +0.155 C 
ENDROOT
BRANCH   8   7
ATOM      1  C   UNL     1      -3.235   2.746  24.502  0.00  0.00    +0.154 C 
ATOM      2  N   UNL     1      -2.563   3.149  24.762  0.00  0.00    -0.245 N 
ATOM      3  N   UNL     1      -2.476   3.968  24.805  0.00  0.00    -0.173 NA
ATOM      4  C   UNL     1      -1.719   4.129  25.093  0.00  0.00    +0.081 A 
ATOM      5  C   UNL     1      -1.399   4.878  25.223  0.00  0.00    +0.054 C 
ATOM      6  C   UNL     1      -1.340   3.409  25.228  0.00  0.00    +0.040 A 
ATOM      7  C   UNL     1      -1.862   2.803  25.023  0.00  0.00    +0.133 A 
ENDBRANCH   8   7
BRANCH  15  16
ATOM     16  C   UNL     1      -1.402   0.376  25.169  0.00  0.00    +0.260 C 
ATOM     17  O   UNL     1      -1.432   0.602  25.962  0.00  0.00    -0.272 OA
ATOM     18  N   UNL     1      -1.779  -0.315  24.923  0.00  0.00    -0.196 NA
BRANCH  18  19
ATOM     19  C   UNL     1      -2.187  -0.780  25.469  0.00  0.00    +0.179 C 
BRANCH  19  26
ATOM     26  C   UNL     1      -1.771  -1.250  26.003  0.00  0.00    +0.281 C 
ATOM     27  N   UNL     1      -1.152  -1.727  25.737  0.00  0.00    -0.086 NA
ATOM     28  O   UNL     1      -1.973  -1.245  26.803  0.00  0.00    -0.270 OA
ENDBRANCH  19  26
BRANCH  19  20
ATOM     20  C   UNL     1      -3.013  -0.772  25.482  0.00  0.00    +0.064 C 
BRANCH  20  21
ATOM     21  C   UNL     1      -3.437  -1.201  24.919  0.00  0.00    +0.010 A 
ATOM     22  C   UNL     1      -3.377  -2.013  24.782  0.00  0.00    +0.003 A 
ATOM     23  C   UNL     1      -3.898  -2.207  24.173  0.00  0.00    +0.007 A 
ATOM     24  C   UNL     1      -4.280  -1.516  23.934  0.00  0.00    +0.035 A 
ATOM     25  S   UNL     1      -3.995  -0.895  24.395  0.00  0.00    -0.091 S 
ENDBRANCH  20  21
ENDBRANCH  19  20
ENDBRANCH  18  19
ENDBRANCH  15  16
BRANCH  13  29
ATOM     29  N   UNL     1       0.536   0.618  23.082  0.00  0.00    -0.203 NA
ATOM     30  C   UNL     1       1.340   0.715  23.238  0.00  0.00    +0.273 C 
ATOM     31  O   UNL     1       1.584   1.157  23.891  0.00  0.00    -0.268 OA
BRANCH  30  32
ATOM     32  C   UNL     1       1.901   0.371  22.740  0.00  0.00    +0.119 A 
ATOM     33  C   UNL     1       2.701   0.573  22.698  0.00  0.00    +0.093 A 
ATOM     34  C   UNL     1       3.078   1.154  23.145  0.00  0.00    +0.055 C 
ATOM     35  N   UNL     1       3.055   0.091  22.129  0.00  0.00    -0.145 NA
ATOM     36  N   UNL     1       2.475  -0.408  21.821  0.00  0.00    -0.110 NA
ATOM     37  S   UNL     1       1.763  -0.235  22.198  0.00  0.00    +0.042 S 
ENDBRANCH  30  32
ENDBRANCH  13  29
TORSDOF 8
ENDMDL
