MODEL 1
REMARK VINA RESULT:     -10.5      0.000      0.000
REMARK  Name = 
REMARK  4 active torsions:
REMARK  status: ('A' for Active; 'I' for Inactive)
REMARK    1  A    between atoms: C_4  and  C_8
REMARK    2  A    between atoms: N_13  and  C_14
REMARK    3  A    between atoms: C_18  and  N_22
REMARK    4  A    between atoms: C_23  and  C_25
REMARK                            x       y       z     vdW  Elec       q    Type
REMARK                         _______ _______ _______ _____ _____    ______ ____
ROOT
ATOM     14  C   UNL     1      -1.076   1.704  24.760  0.00  0.00    +0.154 C 
ATOM     15  C   UNL     1      -0.610   2.377  24.864  0.00  0.00    +0.166 C 
ATOM     16  O   UNL     1       0.129   2.228  24.530  0.00  0.00    -0.350 OA
ATOM     17  C   UNL     1       0.120   1.464  24.220  0.00  0.00    +0.166 C 
ATOM     18  C   UNL     1       0.571   0.899  23.822  0.00  0.00    +0.155 C 
ATOM     19  C   UNL     1       0.105   0.227  23.718  0.00  0.00    +0.166 C 
ATOM     20  O   UNL     1      -0.635   0.376  24.051  0.00  0.00    -0.350 OA
ATOM     21  C   UNL     1      -0.625   1.141  24.362  0.00  0.00    +0.166 C 
ENDROOT
BRANCH  14  13
ATOM      8  C   UNL     1      -3.784   2.620  24.811  0.00  0.00    +0.086 A 
ATOM      9  C   UNL     1      -3.576   3.262  24.337  0.00  0.00    +0.040 A 
ATOM     10  C   UNL     1      -2.794   3.354  24.086  0.00  0.00    +0.103 A 
ATOM     11  N   UNL     1      -2.222   2.804  24.311  0.00  0.00    -0.211 NA
ATOM     12  C   UNL     1      -2.431   2.162  24.786  0.00  0.00    +0.237 A 
ATOM     13  N   UNL     1      -1.858   1.612  25.010  0.00  0.00    -0.200 NA
ATOM     30  N   UNL     1      -3.211   2.070  25.035  0.00  0.00    -0.212 NA
BRANCH   8   4
ATOM      1  F   UNL     1      -6.355   1.412  24.504  0.00  0.00    -0.204 F 
ATOM      2  C   UNL     1      -5.850   1.924  24.907  0.00  0.00    +0.140 A 
ATOM      3  C   UNL     1      -5.070   2.016  24.657  0.00  0.00    +0.031 A 
ATOM      4  C   UNL     1      -4.564   2.529  25.061  0.00  0.00    +0.020 A 
ATOM      5  C   UNL     1      -4.840   2.949  25.715  0.00  0.00    +0.002 A 
ATOM      6  C   UNL     1      -5.621   2.858  25.965  0.00  0.00    +0.002 A 
ATOM      7  C   UNL     1      -6.126   2.345  25.561  0.00  0.00    +0.030 A 
ENDBRANCH   8   4
ENDBRANCH  14  13
BRANCH  18  22
ATOM     22  N   UNL     1       1.352   0.991  23.572  0.00  0.00    -0.196 NA
ATOM     23  C   UNL     1       1.696   0.428  23.078  0.00  0.00    +0.300 C 
ATOM     24  O   UNL     1       1.260  -0.228  22.833  0.00  0.00    -0.265 OA
BRANCH  23  25
ATOM     25  C   UNL     1       2.477   0.520  22.827  0.00  0.00    +0.200 A 
ATOM     26  C   UNL     1       2.836   0.119  22.202  0.00  0.00    +0.046 A 
ATOM     27  C   UNL     1       3.617   0.380  22.147  0.00  0.00    +0.044 A 
ATOM     28  C   UNL     1       3.740   0.942  22.738  0.00  0.00    +0.180 A 
ATOM     29  O   UNL     1       3.035   1.028  23.158  0.00  0.00    -0.446 OA
ENDBRANCH  23  25
ENDBRANCH  18  22
TORSDOF 4
ENDMDL
MODEL 2
REMARK VINA RESULT:      -9.3      2.027      2.615
REMARK  Name = 
REMARK  4 active torsions:
REMARK  status: ('A' for Active; 'I' for Inactive)
REMARK    1  A    between atoms: C_4  and  C_8
REMARK    2  A    between atoms: N_13  and  C_14
REMARK    3  A    between atoms: C_18  and  N_22
REMARK    4  A    between atoms: C_23  and  C_25
REMARK                            x       y       z     vdW  Elec       q    Type
REMARK                         _______ _______ _______ _____ _____    ______ ____
ROOT
ATOM     14  C   UNL     1       0.172   0.826  23.616  0.00  0.00    +0.154 C 
ATOM     15  C   UNL     1       0.505   1.369  24.140  0.00  0.00    +0.166 C 
ATOM     16  O   UNL     1       1.324   1.343  24.046  0.00  0.00    -0.350 OA
ATOM     17  C   UNL     1       1.497   0.785  23.466  0.00  0.00    +0.166 C 
ATOM     18  C   UNL     1       2.110   0.422  23.048  0.00  0.00    +0.155 C 
ATOM     19  C   UNL     1       1.777  -0.121  22.525  0.00  0.00    +0.166 C 
ATOM     20  O   UNL     1       0.958  -0.095  22.618  0.00  0.00    -0.350 OA
ATOM     21  C   UNL     1       0.785   0.465  23.200  0.00  0.00    +0.166 C 
ENDROOT
BRANCH  14  13
ATOM      8  C   UNL     1      -2.316  -0.065  24.706  0.00  0.00    +0.086 A 
ATOM      9  C   UNL     1      -1.950  -0.201  25.432  0.00  0.00    +0.040 A 
ATOM     10  C   UNL     1      -1.144  -0.046  25.523  0.00  0.00    +0.103 A 
ATOM     11  N   UNL     1      -0.705   0.244  24.888  0.00  0.00    -0.211 NA
ATOM     12  C   UNL     1      -1.073   0.380  24.161  0.00  0.00    +0.237 A 
ATOM     13  N   UNL     1      -0.634   0.671  23.525  0.00  0.00    -0.200 NA
ATOM     30  N   UNL     1      -1.877   0.226  24.070  0.00  0.00    -0.212 NA
BRANCH   8   4
ATOM      1  F   UNL     1      -4.426  -1.832  23.933  0.00  0.00    -0.204 F 
ATOM      2  C   UNL     1      -4.176  -1.103  24.229  0.00  0.00    +0.140 A 
ATOM      3  C   UNL     1      -3.371  -0.948  24.320  0.00  0.00    +0.031 A 
ATOM      4  C   UNL     1      -3.121  -0.220  24.615  0.00  0.00    +0.020 A 
ATOM      5  C   UNL     1      -3.677   0.354  24.821  0.00  0.00    +0.002 A 
ATOM      6  C   UNL     1      -4.482   0.200  24.730  0.00  0.00    +0.002 A 
ATOM      7  C   UNL     1      -4.732  -0.529  24.434  0.00  0.00    +0.030 A 
ENDBRANCH   8   4
ENDBRANCH  14  13
BRANCH  18  22
ATOM     22  N   UNL     1       2.915   0.577  23.139  0.00  0.00    -0.196 NA
ATOM     23  C   UNL     1       3.453  -0.047  23.181  0.00  0.00    +0.300 C 
ATOM     24  O   UNL     1       3.186  -0.826  23.133  0.00  0.00    -0.265 OA
BRANCH  23  25
ATOM     25  C   UNL     1       4.259   0.108  23.272  0.00  0.00    +0.200 A 
ATOM     26  C   UNL     1       4.829  -0.429  23.531  0.00  0.00    +0.046 A 
ATOM     27  C   UNL     1       5.558  -0.042  23.539  0.00  0.00    +0.044 A 
ATOM     28  C   UNL     1       5.438   0.733  23.285  0.00  0.00    +0.180 A 
ATOM     29  O   UNL     1       4.634   0.826  23.121  0.00  0.00    -0.446 OA
ENDBRANCH  23  25
ENDBRANCH  18  22
TORSDOF 4
ENDMDL
MODEL 3
REMARK VINA RESULT:      -9.0      2.414      6.637
REMARK  Name = 
REMARK  4 active torsions:
REMARK  status: ('A' for Active; 'I' for Inactive)
REMARK    1  A    between atoms: C_4  and  C_8
REMARK    2  A    between atoms: N_13  and  C_14
REMARK    3  A    between atoms: C_18  and  N_22
REMARK    4  A    between atoms: C_23  and  C_25
REMARK                            x       y       z     vdW  Elec       q    Type
REMARK                         _______ _______ _______ _____ _____    ______ ____
ROOT
ATOM     14  C   UNL     1      -0.648   1.639  24.621  0.00  0.00    +0.154 C 
ATOM     15  C   UNL     1      -0.873   1.142  25.240  0.00  0.00    +0.166 C 
ATOM     16  O   UNL     1      -1.661   1.303  25.421  0.00  0.00    -0.350 OA
ATOM     17  C   UNL     1      -1.923   1.899  24.916  0.00  0.00    +0.166 C 
ATOM     18  C   UNL     1      -2.572   2.368  24.715  0.00  0.00    +0.155 C 
ATOM     19  C   UNL     1      -2.346   2.865  24.097  0.00  0.00    +0.166 C 
ATOM     20  O   UNL     1      -1.558   2.704  23.915  0.00  0.00    -0.350 OA
ATOM     21  C   UNL     1      -1.296   2.107  24.421  0.00  0.00    +0.166 C 
ENDROOT
BRANCH  14  13
ATOM      8  C   UNL     1       1.442   0.345  23.161  0.00  0.00    +0.086 A 
ATOM      9  C   UNL     1       0.998  -0.350  23.143  0.00  0.00    +0.040 A 
ATOM     10  C   UNL     1       0.254  -0.374  23.499  0.00  0.00    +0.103 A 
ATOM     11  N   UNL     1      -0.047   0.297  23.873  0.00  0.00    -0.211 NA
ATOM     12  C   UNL     1       0.397   0.992  23.891  0.00  0.00    +0.237 A 
ATOM     13  N   UNL     1       0.096   1.663  24.265  0.00  0.00    -0.200 NA
ATOM     30  N   UNL     1       1.141   1.016  23.535  0.00  0.00    -0.212 NA
BRANCH   8   4
ATOM      1  F   UNL     1       4.186   1.142  23.213  0.00  0.00    -0.204 F 
ATOM      2  C   UNL     1       3.557   0.768  22.831  0.00  0.00    +0.140 A 
ATOM      3  C   UNL     1       2.814   0.744  23.187  0.00  0.00    +0.031 A 
ATOM      4  C   UNL     1       2.185   0.369  22.806  0.00  0.00    +0.020 A 
ATOM      5  C   UNL     1       2.300   0.019  22.068  0.00  0.00    +0.002 A 
ATOM      6  C   UNL     1       3.045   0.043  21.711  0.00  0.00    +0.002 A 
ATOM      7  C   UNL     1       3.673   0.417  22.093  0.00  0.00    +0.030 A 
ENDBRANCH   8   4
ENDBRANCH  14  13
BRANCH  18  22
ATOM     22  N   UNL     1      -3.316   2.344  25.071  0.00  0.00    -0.196 NA
ATOM     23  C   UNL     1      -3.994   2.470  24.618  0.00  0.00    +0.300 C 
ATOM     24  O   UNL     1      -3.929   2.620  23.810  0.00  0.00    -0.265 OA
BRANCH  23  25
ATOM     25  C   UNL     1      -4.738   2.446  24.974  0.00  0.00    +0.200 A 
ATOM     26  C   UNL     1      -5.297   1.846  24.887  0.00  0.00    +0.046 A 
ATOM     27  C   UNL     1      -5.959   2.046  25.339  0.00  0.00    +0.044 A 
ATOM     28  C   UNL     1      -5.807   2.769  25.705  0.00  0.00    +0.180 A 
ATOM     29  O   UNL     1      -5.053   3.016  25.479  0.00  0.00    -0.446 OA
ENDBRANCH  23  25
ENDBRANCH  18  22
TORSDOF 4
ENDMDL
MODEL 4
REMARK VINA RESULT:      -7.9     15.477     16.816
REMARK  Name = 
REMARK  4 active torsions:
REMARK  status: ('A' for Active; 'I' for Inactive)
REMARK    1  A    between atoms: C_4  and  C_8
REMARK    2  A    between atoms: N_13  and  C_14
REMARK    3  A    between atoms: C_18  and  N_22
REMARK    4  A    between atoms: C_23  and  C_25
REMARK                            x       y       z     vdW  Elec       q    Type
REMARK                         _______ _______ _______ _____ _____    ______ ____
ROOT
ATOM     14  C   UNL     1      -5.452 -10.437  14.032  0.00  0.00    +0.154 C 
ATOM     15  C   UNL     1      -6.270 -10.461  14.129  0.00  0.00    +0.166 C 
ATOM     16  O   UNL     1      -6.430 -10.488  14.938  0.00  0.00    -0.350 OA
ATOM     17  C   UNL     1      -5.710 -10.480  15.340  0.00  0.00    +0.166 C 
ATOM     18  C   UNL     1      -5.363 -10.492  16.089  0.00  0.00    +0.155 C 
ATOM     19  C   UNL     1      -4.545 -10.467  15.992  0.00  0.00    +0.166 C 
ATOM     20  O   UNL     1      -4.385 -10.441  15.183  0.00  0.00    -0.350 OA
ATOM     21  C   UNL     1      -5.106 -10.448  14.780  0.00  0.00    +0.166 C 
ENDROOT
BRANCH  14  13
ATOM      8  C   UNL     1      -5.177  -9.372  11.393  0.00  0.00    +0.086 A 
ATOM      9  C   UNL     1      -5.843  -8.902  11.514  0.00  0.00    +0.040 A 
ATOM     10  C   UNL     1      -6.245  -8.932  12.234  0.00  0.00    +0.103 A 
ATOM     11  N   UNL     1      -5.981  -9.434  12.834  0.00  0.00    -0.211 NA
ATOM     12  C   UNL     1      -5.314  -9.905  12.712  0.00  0.00    +0.237 A 
ATOM     13  N   UNL     1      -5.049 -10.406  13.312  0.00  0.00    -0.200 NA
ATOM     30  N   UNL     1      -4.912  -9.874  11.993  0.00  0.00    -0.212 NA
BRANCH   8   4
ATOM      1  F   UNL     1      -2.776  -8.900   9.917  0.00  0.00    -0.204 F 
ATOM      2  C   UNL     1      -3.575  -9.105   9.936  0.00  0.00    +0.140 A 
ATOM      3  C   UNL     1      -3.976  -9.136  10.655  0.00  0.00    +0.031 A 
ATOM      4  C   UNL     1      -4.775  -9.341  10.674  0.00  0.00    +0.020 A 
ATOM      5  C   UNL     1      -5.172  -9.516   9.972  0.00  0.00    +0.002 A 
ATOM      6  C   UNL     1      -4.771  -9.485   9.252  0.00  0.00    +0.002 A 
ATOM      7  C   UNL     1      -3.972  -9.280   9.233  0.00  0.00    +0.030 A 
ENDBRANCH   8   4
ENDBRANCH  14  13
BRANCH  18  22
ATOM     22  N   UNL     1      -5.765 -10.522  16.809  0.00  0.00    -0.196 NA
ATOM     23  C   UNL     1      -5.346 -10.476  17.518  0.00  0.00    +0.300 C 
ATOM     24  O   UNL     1      -4.525 -10.399  17.508  0.00  0.00    -0.265 OA
BRANCH  23  25
ATOM     25  C   UNL     1      -5.748 -10.507  18.238  0.00  0.00    +0.200 A 
ATOM     26  C   UNL     1      -5.442 -10.781  18.953  0.00  0.00    +0.046 A 
ATOM     27  C   UNL     1      -6.032 -10.712  19.526  0.00  0.00    +0.044 A 
ATOM     28  C   UNL     1      -6.702 -10.395  19.165  0.00  0.00    +0.180 A 
ATOM     29  O   UNL     1      -6.527 -10.268  18.369  0.00  0.00    -0.446 OA
ENDBRANCH  23  25
ENDBRANCH  18  22
TORSDOF 4
ENDMDL
MODEL 5
REMARK VINA RESULT:      -7.6     15.129     16.070
REMARK  Name = 
REMARK  4 active torsions:
REMARK  status: ('A' for Active; 'I' for Inactive)
REMARK    1  A    between atoms: C_4  and  C_8
REMARK    2  A    between atoms: N_13  and  C_14
REMARK    3  A    between atoms: C_18  and  N_22
REMARK    4  A    between atoms: C_23  and  C_25
REMARK                            x       y       z     vdW  Elec       q    Type
REMARK                         _______ _______ _______ _____ _____    ______ ____
ROOT
ATOM     14  C   UNL     1      -5.301 -10.452  14.388  0.00  0.00    +0.154 C 
ATOM     15  C   UNL     1      -4.549 -10.757  14.238  0.00  0.00    +0.166 C 
ATOM     16  O   UNL     1      -4.361 -10.592  13.452  0.00  0.00    -0.350 OA
ATOM     17  C   UNL     1      -4.995 -10.186  13.117  0.00  0.00    +0.166 C 
ATOM     18  C   UNL     1      -5.271  -9.832  12.425  0.00  0.00    +0.155 C 
ATOM     19  C   UNL     1      -6.022  -9.528  12.575  0.00  0.00    +0.166 C 
ATOM     20  O   UNL     1      -6.211  -9.692  13.361  0.00  0.00    -0.350 OA
ATOM     21  C   UNL     1      -5.576 -10.099  13.696  0.00  0.00    +0.166 C 
ENDROOT
BRANCH  14  13
ATOM      8  C   UNL     1      -5.277 -10.485  17.247  0.00  0.00    +0.086 A 
ATOM      9  C   UNL     1      -4.454 -10.419  17.240  0.00  0.00    +0.040 A 
ATOM     10  C   UNL     1      -4.049 -10.378  16.523  0.00  0.00    +0.103 A 
ATOM     11  N   UNL     1      -4.466 -10.403  15.811  0.00  0.00    -0.211 NA
ATOM     12  C   UNL     1      -5.289 -10.469  15.818  0.00  0.00    +0.237 A 
ATOM     13  N   UNL     1      -5.706 -10.493  15.106  0.00  0.00    -0.200 NA
ATOM     30  N   UNL     1      -5.694 -10.510  16.535  0.00  0.00    -0.212 NA
BRANCH   8   4
ATOM      1  F   UNL     1      -7.698 -10.222  18.741  0.00  0.00    -0.204 F 
ATOM      2  C   UNL     1      -6.892 -10.394  18.711  0.00  0.00    +0.140 A 
ATOM      3  C   UNL     1      -6.488 -10.353  17.994  0.00  0.00    +0.031 A 
ATOM      4  C   UNL     1      -5.681 -10.526  17.964  0.00  0.00    +0.020 A 
ATOM      5  C   UNL     1      -5.280 -10.740  18.652  0.00  0.00    +0.002 A 
ATOM      6  C   UNL     1      -5.685 -10.781  19.370  0.00  0.00    +0.002 A 
ATOM      7  C   UNL     1      -6.491 -10.608  19.400  0.00  0.00    +0.030 A 
ENDBRANCH   8   4
ENDBRANCH  14  13
BRANCH  18  22
ATOM     22  N   UNL     1      -4.866  -9.791  11.707  0.00  0.00    -0.196 NA
ATOM     23  C   UNL     1      -4.962  -9.135  11.216  0.00  0.00    +0.300 C 
ATOM     24  O   UNL     1      -5.463  -8.520  11.442  0.00  0.00    -0.265 OA
BRANCH  23  25
ATOM     25  C   UNL     1      -4.556  -9.094  10.498  0.00  0.00    +0.200 A 
ATOM     26  C   UNL     1      -4.898  -9.001   9.753  0.00  0.00    +0.046 A 
ATOM     27  C   UNL     1      -4.291  -8.988   9.194  0.00  0.00    +0.044 A 
ATOM     28  C   UNL     1      -3.575  -9.073   9.594  0.00  0.00    +0.180 A 
ATOM     29  O   UNL     1      -3.739  -9.139  10.400  0.00  0.00    -0.446 OA
ENDBRANCH  23  25
ENDBRANCH  18  22
TORSDOF 4
ENDMDL
MODEL 6
REMARK VINA RESULT:      -7.5      3.187      4.697
REMARK  Name = 
REMARK  4 active torsions:
REMARK  status: ('A' for Active; 'I' for Inactive)
REMARK    1  A    between atoms: C_4  and  C_8
REMARK    2  A    between atoms: N_13  and  C_14
REMARK    3  A    between atoms: C_18  and  N_22
REMARK    4  A    between atoms: C_23  and  C_25
REMARK                            x       y       z     vdW  Elec       q    Type
REMARK                         _______ _______ _______ _____ _____    ______ ____
ROOT
ATOM     14  C   UNL     1      -1.958   1.089  23.825  0.00  0.00    +0.154 C 
ATOM     15  C   UNL     1      -2.271   1.563  23.227  0.00  0.00    +0.166 C 
ATOM     16  O   UNL     1      -2.039   2.341  23.372  0.00  0.00    -0.350 OA
ATOM     17  C   UNL     1      -1.583   2.348  24.059  0.00  0.00    +0.166 C 
ATOM     18  C   UNL     1      -1.158   2.832  24.574  0.00  0.00    +0.155 C 
ATOM     19  C   UNL     1      -0.845   2.358  25.172  0.00  0.00    +0.166 C 
ATOM     20  O   UNL     1      -1.077   1.580  25.027  0.00  0.00    -0.350 OA
ATOM     21  C   UNL     1      -1.533   1.573  24.339  0.00  0.00    +0.166 C 
ENDROOT
BRANCH  14  13
ATOM      8  C   UNL     1      -3.647  -1.178  24.253  0.00  0.00    +0.086 A 
ATOM      9  C   UNL     1      -4.299  -0.678  24.325  0.00  0.00    +0.040 A 
ATOM     10  C   UNL     1      -4.203   0.138  24.253  0.00  0.00    +0.103 A 
ATOM     11  N   UNL     1      -3.455   0.455  24.111  0.00  0.00    -0.211 NA
ATOM     12  C   UNL     1      -2.802  -0.045  24.039  0.00  0.00    +0.237 A 
ATOM     13  N   UNL     1      -2.054   0.272  23.896  0.00  0.00    -0.200 NA
ATOM     30  N   UNL     1      -2.898  -0.861  24.110  0.00  0.00    -0.212 NA
BRANCH   8   4
ATOM      1  F   UNL     1      -3.257  -3.597  25.724  0.00  0.00    -0.204 F 
ATOM      2  C   UNL     1      -3.548  -3.203  25.059  0.00  0.00    +0.140 A 
ATOM      3  C   UNL     1      -3.452  -2.388  24.988  0.00  0.00    +0.031 A 
ATOM      4  C   UNL     1      -3.743  -1.994  24.324  0.00  0.00    +0.020 A 
ATOM      5  C   UNL     1      -4.129  -2.417  23.731  0.00  0.00    +0.002 A 
ATOM      6  C   UNL     1      -4.226  -3.233  23.802  0.00  0.00    +0.002 A 
ATOM      7  C   UNL     1      -3.935  -3.627  24.466  0.00  0.00    +0.030 A 
ENDBRANCH   8   4
ENDBRANCH  14  13
BRANCH  18  22
ATOM     22  N   UNL     1      -1.062   3.649  24.502  0.00  0.00    -0.196 NA
ATOM     23  C   UNL     1      -1.319   4.148  25.106  0.00  0.00    +0.300 C 
ATOM     24  O   UNL     1      -1.672   3.832  25.782  0.00  0.00    -0.265 OA
BRANCH  23  25
ATOM     25  C   UNL     1      -1.223   4.965  25.035  0.00  0.00    +0.200 A 
ATOM     26  C   UNL     1      -1.807   5.534  25.160  0.00  0.00    +0.046 A 
ATOM     27  C   UNL     1      -1.471   6.277  25.028  0.00  0.00    +0.044 A 
ATOM     28  C   UNL     1      -0.681   6.166  24.823  0.00  0.00    +0.180 A 
ATOM     29  O   UNL     1      -0.527   5.355  24.827  0.00  0.00    -0.446 OA
ENDBRANCH  23  25
ENDBRANCH  18  22
TORSDOF 4
ENDMDL
MODEL 7
REMARK VINA RESULT:      -6.9     15.800     17.224
REMARK  Name = 
REMARK  4 active torsions:
REMARK  status: ('A' for Active; 'I' for Inactive)
REMARK    1  A    between atoms: C_4  and  C_8
REMARK    2  A    between atoms: N_13  and  C_14
REMARK    3  A    between atoms: C_18  and  N_22
REMARK    4  A    between atoms: C_23  and  C_25
REMARK                            x       y       z     vdW  Elec       q    Type
REMARK                         _______ _______ _______ _____ _____    ______ ____
ROOT
ATOM     14  C   UNL     1      -5.963 -10.512  13.544  0.00  0.00    +0.154 C 
ATOM     15  C   UNL     1      -6.755 -10.734  13.473  0.00  0.00    +0.166 C 
ATOM     16  O   UNL     1      -7.085 -10.743  14.229  0.00  0.00    -0.350 OA
ATOM     17  C   UNL     1      -6.499 -10.526  14.767  0.00  0.00    +0.166 C 
ATOM     18  C   UNL     1      -6.339 -10.397  15.566  0.00  0.00    +0.155 C 
ATOM     19  C   UNL     1      -5.548 -10.175  15.636  0.00  0.00    +0.166 C 
ATOM     20  O   UNL     1      -5.218 -10.166  14.881  0.00  0.00    -0.350 OA
ATOM     21  C   UNL     1      -5.805 -10.383  14.343  0.00  0.00    +0.166 C 
ENDROOT
BRANCH  14  13
ATOM      8  C   UNL     1      -5.151  -9.233  11.120  0.00  0.00    +0.086 A 
ATOM      9  C   UNL     1      -5.822  -8.754  11.148  0.00  0.00    +0.040 A 
ATOM     10  C   UNL     1      -6.361  -8.834  11.768  0.00  0.00    +0.103 A 
ATOM     11  N   UNL     1      -6.228  -9.393  12.360  0.00  0.00    -0.211 NA
ATOM     12  C   UNL     1      -5.557  -9.873  12.332  0.00  0.00    +0.237 A 
ATOM     13  N   UNL     1      -5.425 -10.432  12.924  0.00  0.00    -0.200 NA
ATOM     30  N   UNL     1      -5.019  -9.793  11.712  0.00  0.00    -0.212 NA
BRANCH   8   4
ATOM      1  F   UNL     1      -2.456  -9.016  10.193  0.00  0.00    -0.204 F 
ATOM      2  C   UNL     1      -3.266  -9.045  10.037  0.00  0.00    +0.140 A 
ATOM      3  C   UNL     1      -3.804  -9.125  10.657  0.00  0.00    +0.031 A 
ATOM      4  C   UNL     1      -4.614  -9.153  10.500  0.00  0.00    +0.020 A 
ATOM      5  C   UNL     1      -4.885  -9.102   9.723  0.00  0.00    +0.002 A 
ATOM      6  C   UNL     1      -4.347  -9.022   9.102  0.00  0.00    +0.002 A 
ATOM      7  C   UNL     1      -3.537  -8.993   9.259  0.00  0.00    +0.030 A 
ENDBRANCH   8   4
ENDBRANCH  14  13
BRANCH  18  22
ATOM     22  N   UNL     1      -6.878 -10.477  16.186  0.00  0.00    -0.196 NA
ATOM     23  C   UNL     1      -6.931  -9.891  16.764  0.00  0.00    +0.300 C 
ATOM     24  O   UNL     1      -6.446  -9.225  16.722  0.00  0.00    -0.265 OA
BRANCH  23  25
ATOM     25  C   UNL     1      -7.470  -9.971  17.384  0.00  0.00    +0.200 A 
ATOM     26  C   UNL     1      -8.154  -9.523  17.493  0.00  0.00    +0.046 A 
ATOM     27  C   UNL     1      -8.525  -9.788  18.180  0.00  0.00    +0.044 A 
ATOM     28  C   UNL     1      -8.071 -10.399  18.496  0.00  0.00    +0.180 A 
ATOM     29  O   UNL     1      -7.418 -10.512  18.004  0.00  0.00    -0.446 OA
ENDBRANCH  23  25
ENDBRANCH  18  22
TORSDOF 4
ENDMDL
MODEL 8
REMARK VINA RESULT:      -6.8     15.235     17.001
REMARK  Name = 
REMARK  4 active torsions:
REMARK  status: ('A' for Active; 'I' for Inactive)
REMARK    1  A    between atoms: C_4  and  C_8
REMARK    2  A    between atoms: N_13  and  C_14
REMARK    3  A    between atoms: C_18  and  N_22
REMARK    4  A    between atoms: C_23  and  C_25
REMARK                            x       y       z     vdW  Elec       q    Type
REMARK                         _______ _______ _______ _____ _____    ______ ____
ROOT
ATOM     14  C   UNL     1      -6.352 -10.344  14.585  0.00  0.00    +0.154 C 
ATOM     15  C   UNL     1      -7.036 -10.408  14.130  0.00  0.00    +0.166 C 
ATOM     16  O   UNL     1      -7.673 -10.163  14.593  0.00  0.00    -0.350 OA
ATOM     17  C   UNL     1      -7.383  -9.947  15.333  0.00  0.00    +0.166 C 
ATOM     18  C   UNL     1      -7.597  -9.663  16.078  0.00  0.00    +0.155 C 
ATOM     19  C   UNL     1      -6.912  -9.599  16.533  0.00  0.00    +0.166 C 
ATOM     20  O   UNL     1      -6.275  -9.844  16.070  0.00  0.00    -0.350 OA
ATOM     21  C   UNL     1      -6.566 -10.060  15.329  0.00  0.00    +0.166 C 
ENDROOT
BRANCH  14  13
ATOM      8  C   UNL     1      -4.282 -10.218  12.617  0.00  0.00    +0.086 A 
ATOM      9  C   UNL     1      -4.778  -9.779  12.125  0.00  0.00    +0.040 A 
ATOM     10  C   UNL     1      -5.543  -9.591  12.370  0.00  0.00    +0.103 A 
ATOM     11  N   UNL     1      -5.813  -9.842  13.109  0.00  0.00    -0.211 NA
ATOM     12  C   UNL     1      -5.317 -10.281  13.601  0.00  0.00    +0.237 A 
ATOM     13  N   UNL     1      -5.587 -10.532  14.340  0.00  0.00    -0.200 NA
ATOM     30  N   UNL     1      -4.552 -10.469  13.356  0.00  0.00    -0.212 NA
BRANCH   8   4
ATOM      1  F   UNL     1      -1.542 -10.742  13.237  0.00  0.00    -0.204 F 
ATOM      2  C   UNL     1      -2.148 -10.668  12.681  0.00  0.00    +0.140 A 
ATOM      3  C   UNL     1      -2.912 -10.480  12.927  0.00  0.00    +0.031 A 
ATOM      4  C   UNL     1      -3.518 -10.406  12.372  0.00  0.00    +0.020 A 
ATOM      5  C   UNL     1      -3.359 -10.519  11.570  0.00  0.00    +0.002 A 
ATOM      6  C   UNL     1      -2.594 -10.707  11.324  0.00  0.00    +0.002 A 
ATOM      7  C   UNL     1      -1.988 -10.781  11.879  0.00  0.00    +0.030 A 
ENDBRANCH   8   4
ENDBRANCH  14  13
BRANCH  18  22
ATOM     22  N   UNL     1      -8.362  -9.475  16.323  0.00  0.00    -0.196 NA
ATOM     23  C   UNL     1      -8.481  -9.090  17.043  0.00  0.00    +0.300 C 
ATOM     24  O   UNL     1      -7.836  -8.894  17.518  0.00  0.00    -0.265 OA
BRANCH  23  25
ATOM     25  C   UNL     1      -9.246  -8.902  17.289  0.00  0.00    +0.200 A 
ATOM     26  C   UNL     1      -9.631  -8.183  17.168  0.00  0.00    +0.046 A 
ATOM     27  C   UNL     1     -10.384  -8.237  17.503  0.00  0.00    +0.044 A 
ATOM     28  C   UNL     1     -10.463  -8.989  17.831  0.00  0.00    +0.180 A 
ATOM     29  O   UNL     1      -9.760  -9.401  17.698  0.00  0.00    -0.446 OA
ENDBRANCH  23  25
ENDBRANCH  18  22
TORSDOF 4
ENDMDL
