MODEL 1
REMARK VINA RESULT:     -11.8      0.000      0.000
REMARK  Name = 
REMARK  7 active torsions:
REMARK  status: ('A' for Active; 'I' for Inactive)
REMARK    1  A    between atoms: C_2  and  N_5
REMARK    2  A    between atoms: C_6  and  C_8
REMARK    3  A    between atoms: C_8  and  C_9
REMARK    4  A    between atoms: C_14  and  C_15
REMARK    5  A    between atoms: C_15  and  C_16
REMARK    6  A    between atoms: C_19  and  C_20
REMARK    7  A    between atoms: C_20  and  C_21
REMARK                            x       y       z     vdW  Elec       q    Type
REMARK                         _______ _______ _______ _____ _____    ______ ____
ROOT
ATOM      9  C   UNL     1      -0.524   1.619  24.795  0.00  0.00    +0.012 C 
ATOM     10  C   UNL     1      -0.153   1.843  24.093  0.00  0.00    +0.019 C 
ATOM     11  C   UNL     1       0.077   1.269  23.546  0.00  0.00    +0.089 C 
ATOM     12  N   UNL     1      -0.065   0.471  23.702  0.00  0.00    -0.218 NA
ATOM     13  C   UNL     1      -0.436   0.248  24.404  0.00  0.00    +0.089 C 
ATOM     14  C   UNL     1      -0.666   0.821  24.950  0.00  0.00    +0.024 C 
ENDROOT
BRANCH   9   8
ATOM      8  C   UNL     1      -0.753   2.193  25.342  0.00  0.00    +0.087 C 
BRANCH   8   6
ATOM      5  N   UNL     1      -1.074   3.565  25.580  0.00  0.00    -0.209 NA
ATOM      6  C   UNL     1      -1.071   2.909  25.081  0.00  0.00    +0.241 C 
ATOM      7  O   UNL     1      -1.385   2.966  24.320  0.00  0.00    -0.273 OA
BRANCH   5   2
ATOM      1  C   UNL     1      -1.709   4.995  25.057  0.00  0.00    +0.022 C 
ATOM      2  C   UNL     1      -1.391   4.280  25.318  0.00  0.00    +0.079 C 
ATOM      3  C   UNL     1      -0.650   4.505  25.035  0.00  0.00    +0.022 C 
ATOM      4  C   UNL     1      -2.132   4.055  25.602  0.00  0.00    +0.022 C 
ENDBRANCH   5   2
ENDBRANCH   8   6
ENDBRANCH   9   8
BRANCH  14  15
ATOM     15  C   UNL     1      -1.037   0.598  25.653  0.00  0.00    +0.051 C 
BRANCH  15  16
ATOM     16  C   UNL     1      -1.467  -0.106  25.686  0.00  0.00    +0.100 A 
ATOM     17  N   UNL     1      -1.149  -0.867  25.719  0.00  0.00    -0.082 NA
ATOM     18  O   UNL     1      -1.775  -1.404  25.746  0.00  0.00    -0.358 OA
ATOM     19  C   UNL     1      -2.480  -0.974  25.728  0.00  0.00    +0.154 A 
ATOM     27  C   UNL     1      -2.289  -0.172  25.692  0.00  0.00    +0.054 A 
BRANCH  19  20
ATOM     20  C   UNL     1      -3.241  -1.291  25.745  0.00  0.00    +0.067 C 
BRANCH  20  21
ATOM     21  C   UNL     1      -3.551  -1.655  25.073  0.00  0.00    +0.008 C 
ATOM     22  C   UNL     1      -3.973  -1.210  24.521  0.00  0.00    +0.000 C 
ATOM     23  C   UNL     1      -4.283  -1.575  23.849  0.00  0.00    +0.000 C 
ATOM     24  C   UNL     1      -4.173  -2.383  23.729  0.00  0.00    +0.000 C 
ATOM     25  C   UNL     1      -3.751  -2.828  24.282  0.00  0.00    +0.000 C 
ATOM     26  C   UNL     1      -3.441  -2.464  24.954  0.00  0.00    +0.000 C 
ENDBRANCH  20  21
ENDBRANCH  19  20
ENDBRANCH  15  16
ENDBRANCH  14  15
TORSDOF 7
ENDMDL
MODEL 2
REMARK VINA RESULT:     -11.8      2.208      3.074
REMARK  Name = 
REMARK  7 active torsions:
REMARK  status: ('A' for Active; 'I' for Inactive)
REMARK    1  A    between atoms: C_2  and  N_5
REMARK    2  A    between atoms: C_6  and  C_8
REMARK    3  A    between atoms: C_8  and  C_9
REMARK    4  A    between atoms: C_14  and  C_15
REMARK    5  A    between atoms: C_15  and  C_16
REMARK    6  A    between atoms: C_19  and  C_20
REMARK    7  A    between atoms: C_20  and  C_21
REMARK                            x       y       z     vdW  Elec       q    Type
REMARK                         _______ _______ _______ _____ _____    ______ ____
ROOT
ATOM      9  C   UNL     1      -4.258   2.921  24.949  0.00  0.00    +0.012 C 
ATOM     10  C   UNL     1      -4.690   3.480  25.376  0.00  0.00    +0.019 C 
ATOM     11  C   UNL     1      -5.404   3.265  25.731  0.00  0.00    +0.089 C 
ATOM     12  N   UNL     1      -5.685   2.493  25.658  0.00  0.00    -0.218 NA
ATOM     13  C   UNL     1      -5.253   1.936  25.231  0.00  0.00    +0.089 C 
ATOM     14  C   UNL     1      -4.540   2.149  24.876  0.00  0.00    +0.024 C 
ENDROOT
BRANCH   9   8
ATOM      8  C   UNL     1      -3.544   3.136  24.594  0.00  0.00    +0.087 C 
BRANCH   8   6
ATOM      5  N   UNL     1      -2.293   3.822  24.654  0.00  0.00    -0.209 NA
ATOM      6  C   UNL     1      -3.031   3.654  24.980  0.00  0.00    +0.241 C 
ATOM      7  O   UNL     1      -3.258   4.005  25.691  0.00  0.00    -0.273 OA
BRANCH   5   2
ATOM      1  C   UNL     1      -1.267   4.859  25.425  0.00  0.00    +0.022 C 
ATOM      2  C   UNL     1      -1.780   4.340  25.039  0.00  0.00    +0.079 C 
ATOM      3  C   UNL     1      -1.408   3.701  25.405  0.00  0.00    +0.022 C 
ATOM      4  C   UNL     1      -2.151   4.980  24.674  0.00  0.00    +0.022 C 
ENDBRANCH   5   2
ENDBRANCH   8   6
ENDBRANCH   9   8
BRANCH  14  15
ATOM     15  C   UNL     1      -4.107   1.592  24.448  0.00  0.00    +0.051 C 
BRANCH  15  16
ATOM     16  C   UNL     1      -4.174   0.790  24.631  0.00  0.00    +0.100 A 
ATOM     17  N   UNL     1      -4.762   0.278  24.360  0.00  0.00    -0.082 NA
ATOM     18  O   UNL     1      -4.617  -0.469  24.678  0.00  0.00    -0.358 OA
ATOM     19  C   UNL     1      -3.939  -0.419  25.146  0.00  0.00    +0.154 A 
ATOM     27  C   UNL     1      -3.666   0.359  25.117  0.00  0.00    +0.054 A 
BRANCH  19  20
ATOM     20  C   UNL     1      -3.595  -1.038  25.568  0.00  0.00    +0.067 C 
BRANCH  20  21
ATOM     21  C   UNL     1      -3.187  -1.634  25.169  0.00  0.00    +0.008 C 
ATOM     22  C   UNL     1      -2.378  -1.557  25.028  0.00  0.00    +0.000 C 
ATOM     23  C   UNL     1      -1.971  -2.153  24.628  0.00  0.00    +0.000 C 
ATOM     24  C   UNL     1      -2.371  -2.826  24.371  0.00  0.00    +0.000 C 
ATOM     25  C   UNL     1      -3.181  -2.903  24.512  0.00  0.00    +0.000 C 
ATOM     26  C   UNL     1      -3.589  -2.307  24.911  0.00  0.00    +0.000 C 
ENDBRANCH  20  21
ENDBRANCH  19  20
ENDBRANCH  15  16
ENDBRANCH  14  15
TORSDOF 7
ENDMDL
MODEL 3
REMARK VINA RESULT:     -11.7      2.188      5.859
REMARK  Name = 
REMARK  7 active torsions:
REMARK  status: ('A' for Active; 'I' for Inactive)
REMARK    1  A    between atoms: C_2  and  N_5
REMARK    2  A    between atoms: C_6  and  C_8
REMARK    3  A    between atoms: C_8  and  C_9
REMARK    4  A    between atoms: C_14  and  C_15
REMARK    5  A    between atoms: C_15  and  C_16
REMARK    6  A    between atoms: C_19  and  C_20
REMARK    7  A    between atoms: C_20  and  C_21
REMARK                            x       y       z     vdW  Elec       q    Type
REMARK                         _______ _______ _______ _____ _____    ______ ____
ROOT
ATOM      9  C   UNL     1      -4.740   1.006  24.750  0.00  0.00    +0.012 C 
ATOM     10  C   UNL     1      -5.369   0.650  25.147  0.00  0.00    +0.019 C 
ATOM     11  C   UNL     1      -5.967   1.116  25.476  0.00  0.00    +0.089 C 
ATOM     12  N   UNL     1      -5.934   1.937  25.407  0.00  0.00    -0.218 NA
ATOM     13  C   UNL     1      -5.305   2.293  25.010  0.00  0.00    +0.089 C 
ATOM     14  C   UNL     1      -4.708   1.828  24.682  0.00  0.00    +0.024 C 
ENDROOT
BRANCH   9   8
ATOM      8  C   UNL     1      -4.143   0.541  24.422  0.00  0.00    +0.087 C 
BRANCH   8   6
ATOM      5  N   UNL     1      -3.718  -0.797  24.155  0.00  0.00    -0.209 NA
ATOM      6  C   UNL     1      -4.047  -0.241  24.668  0.00  0.00    +0.241 C 
ATOM      7  O   UNL     1      -4.280  -0.465  25.427  0.00  0.00    -0.273 OA
BRANCH   5   2
ATOM      1  C   UNL     1      -3.525  -2.360  24.648  0.00  0.00    +0.022 C 
ATOM      2  C   UNL     1      -3.622  -1.578  24.401  0.00  0.00    +0.079 C 
ATOM      3  C   UNL     1      -2.966  -1.356  24.851  0.00  0.00    +0.022 C 
ATOM      4  C   UNL     1      -4.277  -1.800  23.952  0.00  0.00    +0.022 C 
ENDBRANCH   5   2
ENDBRANCH   8   6
ENDBRANCH   9   8
BRANCH  14  15
ATOM     15  C   UNL     1      -4.078   2.184  24.284  0.00  0.00    +0.051 C 
BRANCH  15  16
ATOM     16  C   UNL     1      -3.781   2.907  24.547  0.00  0.00    +0.100 A 
ATOM     17  N   UNL     1      -4.050   3.653  24.320  0.00  0.00    -0.082 NA
ATOM     18  O   UNL     1      -3.597   4.219  24.717  0.00  0.00    -0.358 OA
ATOM     19  C   UNL     1      -3.049   3.821  25.188  0.00  0.00    +0.154 A 
ATOM     27  C   UNL     1      -3.163   3.011  25.083  0.00  0.00    +0.054 A 
BRANCH  19  20
ATOM     20  C   UNL     1      -2.486   4.172  25.678  0.00  0.00    +0.067 C 
BRANCH  20  21
ATOM     21  C   UNL     1      -1.758   4.406  25.369  0.00  0.00    +0.008 C 
ATOM     22  C   UNL     1      -1.142   3.860  25.307  0.00  0.00    +0.000 C 
ATOM     23  C   UNL     1      -0.414   4.093  24.998  0.00  0.00    +0.000 C 
ATOM     24  C   UNL     1      -0.300   4.871  24.750  0.00  0.00    +0.000 C 
ATOM     25  C   UNL     1      -0.916   5.417  24.812  0.00  0.00    +0.000 C 
ATOM     26  C   UNL     1      -1.645   5.185  25.121  0.00  0.00    +0.000 C 
ENDBRANCH  20  21
ENDBRANCH  19  20
ENDBRANCH  15  16
ENDBRANCH  14  15
TORSDOF 7
ENDMDL
MODEL 4
REMARK VINA RESULT:     -10.8      2.266      2.713
REMARK  Name = 
REMARK  7 active torsions:
REMARK  status: ('A' for Active; 'I' for Inactive)
REMARK    1  A    between atoms: C_2  and  N_5
REMARK    2  A    between atoms: C_6  and  C_8
REMARK    3  A    between atoms: C_8  and  C_9
REMARK    4  A    between atoms: C_14  and  C_15
REMARK    5  A    between atoms: C_15  and  C_16
REMARK    6  A    between atoms: C_19  and  C_20
REMARK    7  A    between atoms: C_20  and  C_21
REMARK                            x       y       z     vdW  Elec       q    Type
REMARK                         _______ _______ _______ _____ _____    ______ ____
ROOT
ATOM      9  C   UNL     1      -2.912   2.258  24.046  0.00  0.00    +0.012 C 
ATOM     10  C   UNL     1      -3.249   2.458  23.320  0.00  0.00    +0.019 C 
ATOM     11  C   UNL     1      -2.865   2.258  22.618  0.00  0.00    +0.089 C 
ATOM     12  N   UNL     1      -2.144   1.859  22.641  0.00  0.00    -0.218 NA
ATOM     13  C   UNL     1      -1.807   1.659  23.367  0.00  0.00    +0.089 C 
ATOM     14  C   UNL     1      -2.190   1.859  24.069  0.00  0.00    +0.024 C 
ENDROOT
BRANCH   9   8
ATOM      8  C   UNL     1      -3.296   2.459  24.749  0.00  0.00    +0.087 C 
BRANCH   8   6
ATOM      5  N   UNL     1      -4.558   2.218  25.373  0.00  0.00    -0.209 NA
ATOM      6  C   UNL     1      -4.116   2.548  24.760  0.00  0.00    +0.241 C 
ATOM      7  O   UNL     1      -4.493   2.967  24.157  0.00  0.00    -0.273 OA
BRANCH   5   2
ATOM      1  C   UNL     1      -6.198   2.396  25.395  0.00  0.00    +0.022 C 
ATOM      2  C   UNL     1      -5.378   2.307  25.384  0.00  0.00    +0.079 C 
ATOM      3  C   UNL     1      -5.291   3.078  25.664  0.00  0.00    +0.022 C 
ATOM      4  C   UNL     1      -5.466   1.537  25.103  0.00  0.00    +0.022 C 
ENDBRANCH   5   2
ENDBRANCH   8   6
ENDBRANCH   9   8
BRANCH  14  15
ATOM     15  C   UNL     1      -1.853   1.659  24.796  0.00  0.00    +0.051 C 
BRANCH  15  16
ATOM     16  C   UNL     1      -1.573   0.894  24.923  0.00  0.00    +0.100 A 
ATOM     17  N   UNL     1      -0.835   0.603  24.694  0.00  0.00    -0.082 NA
ATOM     18  O   UNL     1      -0.787  -0.186  24.931  0.00  0.00    -0.358 OA
ATOM     19  C   UNL     1      -1.495  -0.382  25.308  0.00  0.00    +0.154 A 
ATOM     27  C   UNL     1      -1.980   0.285  25.303  0.00  0.00    +0.054 A 
BRANCH  19  20
ATOM     20  C   UNL     1      -1.684  -1.116  25.633  0.00  0.00    +0.067 C 
BRANCH  20  21
ATOM     21  C   UNL     1      -2.240  -1.601  25.262  0.00  0.00    +0.008 C 
ATOM     22  C   UNL     1      -3.036  -1.555  25.478  0.00  0.00    +0.000 C 
ATOM     23  C   UNL     1      -3.591  -2.039  25.108  0.00  0.00    +0.000 C 
ATOM     24  C   UNL     1      -3.354  -2.568  24.523  0.00  0.00    +0.000 C 
ATOM     25  C   UNL     1      -2.558  -2.614  24.306  0.00  0.00    +0.000 C 
ATOM     26  C   UNL     1      -2.001  -2.130  24.676  0.00  0.00    +0.000 C 
ENDBRANCH  20  21
ENDBRANCH  19  20
ENDBRANCH  15  16
ENDBRANCH  14  15
TORSDOF 7
ENDMDL
MODEL 5
REMARK VINA RESULT:     -10.7      1.766      4.566
REMARK  Name = 
REMARK  7 active torsions:
REMARK  status: ('A' for Active; 'I' for Inactive)
REMARK    1  A    between atoms: C_2  and  N_5
REMARK    2  A    between atoms: C_6  and  C_8
REMARK    3  A    between atoms: C_8  and  C_9
REMARK    4  A    between atoms: C_14  and  C_15
REMARK    5  A    between atoms: C_15  and  C_16
REMARK    6  A    between atoms: C_19  and  C_20
REMARK    7  A    between atoms: C_20  and  C_21
REMARK                            x       y       z     vdW  Elec       q    Type
REMARK                         _______ _______ _______ _____ _____    ______ ____
ROOT
ATOM      9  C   UNL     1      -1.291  -0.571  24.827  0.00  0.00    +0.012 C 
ATOM     10  C   UNL     1      -0.789  -1.001  24.334  0.00  0.00    +0.019 C 
ATOM     11  C   UNL     1      -0.172  -0.619  23.940  0.00  0.00    +0.089 C 
ATOM     12  N   UNL     1      -0.058   0.192  24.040  0.00  0.00    -0.218 NA
ATOM     13  C   UNL     1      -0.561   0.621  24.534  0.00  0.00    +0.089 C 
ATOM     14  C   UNL     1      -1.177   0.240  24.927  0.00  0.00    +0.024 C 
ENDROOT
BRANCH   9   8
ATOM      8  C   UNL     1      -1.908  -0.953  25.221  0.00  0.00    +0.087 C 
BRANCH   8   6
ATOM      5  N   UNL     1      -3.123  -1.653  24.947  0.00  0.00    -0.209 NA
ATOM      6  C   UNL     1      -2.307  -1.576  24.857  0.00  0.00    +0.241 C 
ATOM      7  O   UNL     1      -1.888  -2.123  24.403  0.00  0.00    -0.273 OA
BRANCH   5   2
ATOM      1  C   UNL     1      -3.920  -2.900  24.218  0.00  0.00    +0.022 C 
ATOM      2  C   UNL     1      -3.522  -2.276  24.583  0.00  0.00    +0.079 C 
ATOM      3  C   UNL     1      -3.232  -2.795  25.155  0.00  0.00    +0.022 C 
ATOM      4  C   UNL     1      -3.811  -1.757  24.011  0.00  0.00    +0.022 C 
ENDBRANCH   5   2
ENDBRANCH   8   6
ENDBRANCH   9   8
BRANCH  14  15
ATOM     15  C   UNL     1      -1.681   0.669  25.421  0.00  0.00    +0.051 C 
BRANCH  15  16
ATOM     16  C   UNL     1      -1.948   1.414  25.189  0.00  0.00    +0.100 A 
ATOM     17  N   UNL     1      -1.564   2.132  25.326  0.00  0.00    -0.082 NA
ATOM     18  O   UNL     1      -2.025   2.734  25.001  0.00  0.00    -0.358 OA
ATOM     19  C   UNL     1      -2.694   2.389  24.663  0.00  0.00    +0.154 A 
ATOM     27  C   UNL     1      -2.646   1.573  24.780  0.00  0.00    +0.054 A 
BRANCH  19  20
ATOM     20  C   UNL     1      -3.304   2.788  24.277  0.00  0.00    +0.067 C 
BRANCH  20  21
ATOM     21  C   UNL     1      -4.019   2.925  24.666  0.00  0.00    +0.008 C 
ATOM     22  C   UNL     1      -4.641   2.388  24.586  0.00  0.00    +0.000 C 
ATOM     23  C   UNL     1      -5.355   2.525  24.975  0.00  0.00    +0.000 C 
ATOM     24  C   UNL     1      -5.449   3.197  25.443  0.00  0.00    +0.000 C 
ATOM     25  C   UNL     1      -4.827   3.734  25.523  0.00  0.00    +0.000 C 
ATOM     26  C   UNL     1      -4.112   3.598  25.134  0.00  0.00    +0.000 C 
ENDBRANCH  20  21
ENDBRANCH  19  20
ENDBRANCH  15  16
ENDBRANCH  14  15
TORSDOF 7
ENDMDL
