MODEL 1
REMARK VINA RESULT:      -9.4      0.000      0.000
REMARK  Name = 
REMARK  4 active torsions:
REMARK  status: ('A' for Active; 'I' for Inactive)
REMARK    1  A    between atoms: C_5  and  N_8
REMARK    2  A    between atoms: C_12  and  C_13
REMARK    3  A    between atoms: C_15  and  C_18
REMARK    4  A    between atoms: C_21  and  N_24
REMARK                            x       y       z     vdW  Elec       q    Type
REMARK                         _______ _______ _______ _____ _____    ______ ____
ROOT
ATOM     13  C   UNL     1      -2.611   0.771  24.916  0.00  0.00    +0.251 A 
ATOM     14  N   UNL     1      -2.036   0.785  24.323  0.00  0.00    -0.190 NA
ATOM     15  C   UNL     1      -1.308   0.614  24.671  0.00  0.00    +0.205 A 
ATOM     16  N   UNL     1      -1.433   0.495  25.477  0.00  0.00    -0.056 NA
ATOM     17  O   UNL     1      -2.237   0.591  25.628  0.00  0.00    -0.336 OA
ENDROOT
BRANCH  15  18
ATOM     18  C   UNL     1      -0.583   0.571  24.280  0.00  0.00    +0.058 A 
ATOM     19  C   UNL     1      -0.298  -0.158  24.020  0.00  0.00    +0.008 A 
ATOM     20  C   UNL     1       0.428  -0.201  23.629  0.00  0.00    +0.034 A 
ATOM     21  C   UNL     1       0.868   0.484  23.499  0.00  0.00    +0.132 A 
ATOM     22  N   UNL     1       0.583   1.213  23.760  0.00  0.00    -0.229 NA
ATOM     23  C   UNL     1      -0.142   1.257  24.150  0.00  0.00    +0.103 A 
BRANCH  21  24
ATOM     24  N   UNL     1       1.594   0.441  23.108  0.00  0.00    -0.290 N 
ATOM     25  C   UNL     1       1.682  -0.059  22.458  0.00  0.00    +0.109 C 
ATOM     26  C   UNL     1       2.408  -0.102  22.067  0.00  0.00    +0.094 C 
ATOM     27  N   UNL     1       3.044   0.354  22.327  0.00  0.00    -0.269 NA
ATOM     28  C   UNL     1       3.770   0.311  21.936  0.00  0.00    +0.090 C 
ATOM     29  C   UNL     1       2.956   0.854  22.977  0.00  0.00    +0.094 C 
ATOM     30  C   UNL     1       2.230   0.897  23.368  0.00  0.00    +0.109 C 
ENDBRANCH  21  24
ENDBRANCH  15  18
BRANCH  13  12
ATOM      8  N   UNL     1      -4.002   0.337  24.730  0.00  0.00    -0.268 NA
ATOM      9  C   UNL     1      -4.727   0.721  24.640  0.00  0.00    +0.072 C 
ATOM     10  C   UNL     1      -4.589   1.534  24.667  0.00  0.00    +0.019 C 
ATOM     11  C   UNL     1      -3.779   1.652  24.773  0.00  0.00    +0.027 C 
ATOM     12  C   UNL     1      -3.417   0.911  24.812  0.00  0.00    +0.138 C 
BRANCH   8   5
ATOM      1  C   UNL     1      -3.531  -2.929  24.754  0.00  0.00    +0.090 C 
ATOM      2  N   UNL     1      -3.649  -2.112  24.748  0.00  0.00    -0.271 NA
ATOM      3  C   UNL     1      -3.736  -1.714  24.031  0.00  0.00    +0.074 C 
ATOM      4  C   UNL     1      -3.854  -0.897  24.024  0.00  0.00    +0.033 C 
ATOM      5  C   UNL     1      -3.885  -0.479  24.736  0.00  0.00    +0.061 C 
ATOM      6  C   UNL     1      -3.798  -0.878  25.452  0.00  0.00    +0.033 C 
ATOM      7  C   UNL     1      -3.680  -1.695  25.458  0.00  0.00    +0.074 C 
ENDBRANCH   8   5
ENDBRANCH  13  12
TORSDOF 4
ENDMDL
MODEL 2
REMARK VINA RESULT:      -9.2      2.695      4.820
REMARK  Name = 
REMARK  4 active torsions:
REMARK  status: ('A' for Active; 'I' for Inactive)
REMARK    1  A    between atoms: C_5  and  N_8
REMARK    2  A    between atoms: C_12  and  C_13
REMARK    3  A    between atoms: C_15  and  C_18
REMARK    4  A    between atoms: C_21  and  N_24
REMARK                            x       y       z     vdW  Elec       q    Type
REMARK                         _______ _______ _______ _____ _____    ______ ____
ROOT
ATOM     13  C   UNL     1      -1.095   2.951  25.337  0.00  0.00    +0.251 A 
ATOM     14  N   UNL     1      -1.499   2.348  24.945  0.00  0.00    -0.190 NA
ATOM     15  C   UNL     1      -1.394   1.651  25.372  0.00  0.00    +0.205 A 
ATOM     16  N   UNL     1      -0.925   1.822  26.028  0.00  0.00    -0.056 NA
ATOM     17  O   UNL     1      -0.740   2.625  26.007  0.00  0.00    -0.336 OA
ENDROOT
BRANCH  15  18
ATOM     18  C   UNL     1      -1.704   0.911  25.177  0.00  0.00    +0.058 A 
ATOM     19  C   UNL     1      -2.138   0.486  25.736  0.00  0.00    +0.008 A 
ATOM     20  C   UNL     1      -2.447  -0.254  25.541  0.00  0.00    +0.034 A 
ATOM     21  C   UNL     1      -2.323  -0.568  24.788  0.00  0.00    +0.132 A 
ATOM     22  N   UNL     1      -1.890  -0.142  24.230  0.00  0.00    -0.229 NA
ATOM     23  C   UNL     1      -1.580   0.597  24.425  0.00  0.00    +0.103 A 
BRANCH  21  24
ATOM     24  N   UNL     1      -2.633  -1.307  24.593  0.00  0.00    -0.290 N 
ATOM     25  C   UNL     1      -2.145  -1.972  24.594  0.00  0.00    +0.109 C 
ATOM     26  C   UNL     1      -2.455  -2.712  24.399  0.00  0.00    +0.094 C 
ATOM     27  N   UNL     1      -3.253  -2.786  24.203  0.00  0.00    -0.269 NA
ATOM     28  C   UNL     1      -3.562  -3.526  24.008  0.00  0.00    +0.090 C 
ATOM     29  C   UNL     1      -3.741  -2.121  24.202  0.00  0.00    +0.094 C 
ATOM     30  C   UNL     1      -3.431  -1.382  24.397  0.00  0.00    +0.109 C 
ENDBRANCH  21  24
ENDBRANCH  15  18
BRANCH  13  12
ATOM      8  N   UNL     1      -1.679   4.276  25.088  0.00  0.00    -0.268 NA
ATOM      9  C   UNL     1      -1.392   4.999  24.815  0.00  0.00    +0.072 C 
ATOM     10  C   UNL     1      -0.586   4.911  24.660  0.00  0.00    +0.019 C 
ATOM     11  C   UNL     1      -0.377   4.132  24.837  0.00  0.00    +0.027 C 
ATOM     12  C   UNL     1      -1.053   3.740  25.101  0.00  0.00    +0.138 C 
BRANCH   8   5
ATOM      1  C   UNL     1      -4.795   3.638  25.968  0.00  0.00    +0.090 C 
ATOM      2  N   UNL     1      -4.016   3.797  25.748  0.00  0.00    -0.271 NA
ATOM      3  C   UNL     1      -3.795   3.752  24.954  0.00  0.00    +0.074 C 
ATOM      4  C   UNL     1      -3.016   3.912  24.734  0.00  0.00    +0.033 C 
ATOM      5  C   UNL     1      -2.458   4.116  25.308  0.00  0.00    +0.061 C 
ATOM      6  C   UNL     1      -2.681   4.161  26.101  0.00  0.00    +0.033 C 
ATOM      7  C   UNL     1      -3.459   4.002  26.321  0.00  0.00    +0.074 C 
ENDBRANCH   8   5
ENDBRANCH  13  12
TORSDOF 4
ENDMDL
MODEL 3
REMARK VINA RESULT:      -9.1      2.446      5.191
REMARK  Name = 
REMARK  4 active torsions:
REMARK  status: ('A' for Active; 'I' for Inactive)
REMARK    1  A    between atoms: C_5  and  N_8
REMARK    2  A    between atoms: C_12  and  C_13
REMARK    3  A    between atoms: C_15  and  C_18
REMARK    4  A    between atoms: C_21  and  N_24
REMARK                            x       y       z     vdW  Elec       q    Type
REMARK                         _______ _______ _______ _____ _____    ______ ____
ROOT
ATOM     13  C   UNL     1      -3.337   3.097  24.970  0.00  0.00    +0.251 A 
ATOM     14  N   UNL     1      -3.315   2.296  25.172  0.00  0.00    -0.190 NA
ATOM     15  C   UNL     1      -3.541   1.860  24.509  0.00  0.00    +0.205 A 
ATOM     16  N   UNL     1      -3.703   2.390  23.899  0.00  0.00    -0.056 NA
ATOM     17  O   UNL     1      -3.577   3.153  24.183  0.00  0.00    -0.336 OA
ENDROOT
BRANCH  15  18
ATOM     18  C   UNL     1      -3.596   1.038  24.466  0.00  0.00    +0.058 A 
ATOM     19  C   UNL     1      -4.155   0.638  24.921  0.00  0.00    +0.008 A 
ATOM     20  C   UNL     1      -4.210  -0.185  24.878  0.00  0.00    +0.034 A 
ATOM     21  C   UNL     1      -3.706  -0.606  24.379  0.00  0.00    +0.132 A 
ATOM     22  N   UNL     1      -3.146  -0.206  23.924  0.00  0.00    -0.229 NA
ATOM     23  C   UNL     1      -3.091   0.617  23.967  0.00  0.00    +0.103 A 
BRANCH  21  24
ATOM     24  N   UNL     1      -3.760  -1.429  24.336  0.00  0.00    -0.290 N 
ATOM     25  C   UNL     1      -4.255  -1.779  23.777  0.00  0.00    +0.109 C 
ATOM     26  C   UNL     1      -4.310  -2.602  23.734  0.00  0.00    +0.094 C 
ATOM     27  N   UNL     1      -3.870  -3.072  24.249  0.00  0.00    -0.269 NA
ATOM     28  C   UNL     1      -3.925  -3.895  24.205  0.00  0.00    +0.090 C 
ATOM     29  C   UNL     1      -3.375  -2.721  24.808  0.00  0.00    +0.094 C 
ATOM     30  C   UNL     1      -3.320  -1.899  24.851  0.00  0.00    +0.109 C 
ENDBRANCH  21  24
ENDBRANCH  15  18
BRANCH  13  12
ATOM      8  N   UNL     1      -2.393   3.984  25.662  0.00  0.00    -0.268 NA
ATOM      9  C   UNL     1      -2.464   4.628  26.173  0.00  0.00    +0.072 C 
ATOM     10  C   UNL     1      -3.268   4.769  26.294  0.00  0.00    +0.019 C 
ATOM     11  C   UNL     1      -3.693   4.212  25.858  0.00  0.00    +0.027 C 
ATOM     12  C   UNL     1      -3.151   3.727  25.467  0.00  0.00    +0.138 C 
BRANCH   8   5
ATOM      1  C   UNL     1       0.435   2.668  24.585  0.00  0.00    +0.090 C 
ATOM      2  N   UNL     1      -0.272   2.997  24.854  0.00  0.00    -0.271 NA
ATOM      3  C   UNL     1      -0.589   2.758  25.578  0.00  0.00    +0.074 C 
ATOM      4  C   UNL     1      -1.296   3.087  25.847  0.00  0.00    +0.033 C 
ATOM      5  C   UNL     1      -1.686   3.655  25.393  0.00  0.00    +0.061 C 
ATOM      6  C   UNL     1      -1.368   3.894  24.670  0.00  0.00    +0.033 C 
ATOM      7  C   UNL     1      -0.661   3.565  24.401  0.00  0.00    +0.074 C 
ENDBRANCH   8   5
ENDBRANCH  13  12
TORSDOF 4
ENDMDL
MODEL 4
REMARK VINA RESULT:      -8.8      0.807      2.224
REMARK  Name = 
REMARK  4 active torsions:
REMARK  status: ('A' for Active; 'I' for Inactive)
REMARK    1  A    between atoms: C_5  and  N_8
REMARK    2  A    between atoms: C_12  and  C_13
REMARK    3  A    between atoms: C_15  and  C_18
REMARK    4  A    between atoms: C_21  and  N_24
REMARK                            x       y       z     vdW  Elec       q    Type
REMARK                         _______ _______ _______ _____ _____    ______ ____
ROOT
ATOM     13  C   UNL     1      -2.556   0.193  24.812  0.00  0.00    +0.251 A 
ATOM     14  N   UNL     1      -1.961   0.112  24.245  0.00  0.00    -0.190 NA
ATOM     15  C   UNL     1      -1.251   0.360  24.583  0.00  0.00    +0.205 A 
ATOM     16  N   UNL     1      -1.406   0.594  25.358  0.00  0.00    -0.056 NA
ATOM     17  O   UNL     1      -2.211   0.491  25.499  0.00  0.00    -0.336 OA
ENDROOT
BRANCH  15  18
ATOM     18  C   UNL     1      -0.515   0.372  24.210  0.00  0.00    +0.058 A 
ATOM     19  C   UNL     1      -0.171  -0.333  23.954  0.00  0.00    +0.008 A 
ATOM     20  C   UNL     1       0.565  -0.321  23.581  0.00  0.00    +0.034 A 
ATOM     21  C   UNL     1       0.957   0.395  23.466  0.00  0.00    +0.132 A 
ATOM     22  N   UNL     1       0.614   1.100  23.722  0.00  0.00    -0.229 NA
ATOM     23  C   UNL     1      -0.123   1.088  24.095  0.00  0.00    +0.103 A 
BRANCH  21  24
ATOM     24  N   UNL     1       1.694   0.407  23.093  0.00  0.00    -0.290 N 
ATOM     25  C   UNL     1       2.291   0.900  23.378  0.00  0.00    +0.109 C 
ATOM     26  C   UNL     1       3.028   0.911  23.005  0.00  0.00    +0.094 C 
ATOM     27  N   UNL     1       3.166   0.431  22.349  0.00  0.00    -0.269 NA
ATOM     28  C   UNL     1       3.902   0.443  21.976  0.00  0.00    +0.090 C 
ATOM     29  C   UNL     1       2.568  -0.061  22.064  0.00  0.00    +0.094 C 
ATOM     30  C   UNL     1       1.832  -0.073  22.437  0.00  0.00    +0.109 C 
ENDBRANCH  21  24
ENDBRANCH  15  18
BRANCH  13  12
ATOM      8  N   UNL     1      -3.960   0.546  24.562  0.00  0.00    -0.268 NA
ATOM      9  C   UNL     1      -4.665   0.124  24.496  0.00  0.00    +0.072 C 
ATOM     10  C   UNL     1      -4.494  -0.677  24.601  0.00  0.00    +0.019 C 
ATOM     11  C   UNL     1      -3.682  -0.748  24.732  0.00  0.00    +0.027 C 
ATOM     12  C   UNL     1      -3.352   0.008  24.708  0.00  0.00    +0.138 C 
BRANCH   8   5
ATOM      1  C   UNL     1      -3.627   3.817  24.290  0.00  0.00    +0.090 C 
ATOM      2  N   UNL     1      -3.710   2.999  24.358  0.00  0.00    -0.271 NA
ATOM      3  C   UNL     1      -3.633   2.520  23.690  0.00  0.00    +0.074 C 
ATOM      4  C   UNL     1      -3.716   1.702  23.758  0.00  0.00    +0.033 C 
ATOM      5  C   UNL     1      -3.877   1.364  24.494  0.00  0.00    +0.061 C 
ATOM      6  C   UNL     1      -3.954   1.843  25.160  0.00  0.00    +0.033 C 
ATOM      7  C   UNL     1      -3.871   2.661  25.092  0.00  0.00    +0.074 C 
ENDBRANCH   8   5
ENDBRANCH  13  12
TORSDOF 4
ENDMDL
MODEL 5
REMARK VINA RESULT:      -8.4      2.710      4.319
REMARK  Name = 
REMARK  4 active torsions:
REMARK  status: ('A' for Active; 'I' for Inactive)
REMARK    1  A    between atoms: C_5  and  N_8
REMARK    2  A    between atoms: C_12  and  C_13
REMARK    3  A    between atoms: C_15  and  C_18
REMARK    4  A    between atoms: C_21  and  N_24
REMARK                            x       y       z     vdW  Elec       q    Type
REMARK                         _______ _______ _______ _____ _____    ______ ____
ROOT
ATOM     13  C   UNL     1      -4.451   2.232  24.708  0.00  0.00    +0.251 A 
ATOM     14  N   UNL     1      -3.974   1.665  25.072  0.00  0.00    -0.190 NA
ATOM     15  C   UNL     1      -3.593   1.235  24.480  0.00  0.00    +0.205 A 
ATOM     16  N   UNL     1      -3.834   1.537  23.751  0.00  0.00    -0.056 NA
ATOM     17  O   UNL     1      -4.363   2.152  23.892  0.00  0.00    -0.336 OA
ENDROOT
BRANCH  15  18
ATOM     18  C   UNL     1      -3.064   0.613  24.596  0.00  0.00    +0.058 A 
ATOM     19  C   UNL     1      -3.295  -0.048  25.033  0.00  0.00    +0.008 A 
ATOM     20  C   UNL     1      -2.765  -0.670  25.149  0.00  0.00    +0.034 A 
ATOM     21  C   UNL     1      -2.006  -0.631  24.830  0.00  0.00    +0.132 A 
ATOM     22  N   UNL     1      -1.775   0.030  24.393  0.00  0.00    -0.229 NA
ATOM     23  C   UNL     1      -2.304   0.652  24.276  0.00  0.00    +0.103 A 
BRANCH  21  24
ATOM     24  N   UNL     1      -1.476  -1.254  24.946  0.00  0.00    -0.290 N 
ATOM     25  C   UNL     1      -0.774  -1.125  25.359  0.00  0.00    +0.109 C 
ATOM     26  C   UNL     1      -0.245  -1.748  25.476  0.00  0.00    +0.094 C 
ATOM     27  N   UNL     1      -0.418  -2.497  25.179  0.00  0.00    -0.269 NA
ATOM     28  C   UNL     1       0.111  -3.120  25.296  0.00  0.00    +0.090 C 
ATOM     29  C   UNL     1      -1.120  -2.626  24.766  0.00  0.00    +0.094 C 
ATOM     30  C   UNL     1      -1.650  -2.004  24.649  0.00  0.00    +0.109 C 
ENDBRANCH  21  24
ENDBRANCH  15  18
BRANCH  13  12
ATOM      8  N   UNL     1      -4.689   3.512  25.389  0.00  0.00    -0.268 NA
ATOM      9  C   UNL     1      -5.344   3.880  25.730  0.00  0.00    +0.072 C 
ATOM     10  C   UNL     1      -5.991   3.375  25.645  0.00  0.00    +0.019 C 
ATOM     11  C   UNL     1      -5.736   2.697  25.252  0.00  0.00    +0.027 C 
ATOM     12  C   UNL     1      -4.930   2.782  25.094  0.00  0.00    +0.138 C 
BRANCH   8   5
ATOM      1  C   UNL     1      -1.634   4.751  25.236  0.00  0.00    +0.090 C 
ATOM      2  N   UNL     1      -2.398   4.441  25.274  0.00  0.00    -0.271 NA
ATOM      3  C   UNL     1      -2.657   4.068  25.963  0.00  0.00    +0.074 C 
ATOM      4  C   UNL     1      -3.420   3.759  26.002  0.00  0.00    +0.033 C 
ATOM      5  C   UNL     1      -3.925   3.822  25.351  0.00  0.00    +0.061 C 
ATOM      6  C   UNL     1      -3.665   4.195  24.663  0.00  0.00    +0.033 C 
ATOM      7  C   UNL     1      -2.901   4.505  24.624  0.00  0.00    +0.074 C 
ENDBRANCH   8   5
ENDBRANCH  13  12
TORSDOF 4
ENDMDL
