REMARK  Name = 
REMARK  4 active torsions:
REMARK  status: ('A' for Active; 'I' for Inactive)
REMARK    1  A    between atoms: N_3  and  C_4
REMARK    2  A    between atoms: C_4  and  C_5
REMARK    3  A    between atoms: N_14  and  C_15
REMARK    4  A    between atoms: C_15  and  C_16
REMARK                            x       y       z     vdW  Elec       q    Type
REMARK                         _______ _______ _______ _____ _____    ______ ____
ROOT
ATOM      1  O   UNL     1       0.884  -2.150   0.000  0.00  0.00    -0.252 OA
ATOM      2  C   UNL     1       1.139  -1.365   0.000  0.00  0.00    +0.308 C 
ATOM      3  N   UNL     1       0.654  -0.698   0.000  0.00  0.00    -0.257 N 
ATOM     11  C   UNL     1       1.139  -0.030   0.000  0.00  0.00    +0.117 C 
ATOM     12  C   UNL     1       1.923  -0.285   0.000  0.00  0.00    +0.113 C 
ATOM     13  C   UNL     1       2.638   0.127   0.000  0.00  0.00    +0.094 C 
ATOM     14  N   UNL     1       3.352  -0.285   0.000  0.00  0.00    -0.270 NA
ATOM     19  C   UNL     1       3.352  -1.110   0.000  0.00  0.00    +0.094 C 
ATOM     20  C   UNL     1       2.638  -1.523   0.000  0.00  0.00    +0.112 C 
ATOM     21  N   UNL     1       1.923  -1.110   0.000  0.00  0.00    -0.261 N 
ENDROOT
BRANCH   3   4
ATOM      4  C   UNL     1      -0.171  -0.698   0.000  0.00  0.00    +0.141 C 
BRANCH   4   5
ATOM      5  C   UNL     1      -0.584  -1.412   0.000  0.00  0.00    +0.079 A 
ATOM      6  N   UNL     1      -0.171  -2.127   0.000  0.00  0.00    -0.246 NA
ATOM      7  C   UNL     1      -0.584  -2.841   0.000  0.00  0.00    +0.099 A 
ATOM      8  C   UNL     1      -1.409  -2.841   0.000  0.00  0.00    +0.021 A 
ATOM      9  C   UNL     1      -1.821  -2.127   0.000  0.00  0.00    +0.003 A 
ATOM     10  C   UNL     1      -1.409  -1.412   0.000  0.00  0.00    +0.016 A 
ENDBRANCH   4   5
ENDBRANCH   3   4
BRANCH  14  15
ATOM     15  C   UNL     1       4.067   0.127   0.000  0.00  0.00    +0.072 C 
BRANCH  15  16
ATOM     16  C   UNL     1       4.781  -0.285   0.000  0.00  0.00    +0.016 C 
ATOM     17  C   UNL     1       5.606  -0.285   0.000  0.00  0.00    +0.001 C 
ATOM     18  C   UNL     1       5.194  -1.000   0.000  0.00  0.00    +0.001 C 
ENDBRANCH  15  16
ENDBRANCH  14  15
TORSDOF 4
