MODEL 1
REMARK VINA RESULT:     -18.3      0.000      0.000
REMARK  Name = 
REMARK  2 active torsions:
REMARK  status: ('A' for Active; 'I' for Inactive)
REMARK    1  A    between atoms: C_2  and  C_26
REMARK    2  A    between atoms: C_12  and  C_13
REMARK                            x       y       z     vdW  Elec       q    Type
REMARK                         _______ _______ _______ _____ _____    ______ ____
ROOT
ATOM      1  O   UNL     1      -1.247  -0.312  25.143  0.00  0.00    -0.270 OA
ATOM      2  C   UNL     1      -2.048  -0.554  24.918  0.00  0.00    +0.249 C 
ATOM      3  N   UNL     1      -2.231  -1.376  24.767  0.00  0.00    -0.276 N 
ATOM      4  C   UNL     1      -2.001  -2.178  24.720  0.00  0.00    +0.096 C 
ATOM      5  C   UNL     1      -2.864  -2.582  24.458  0.00  0.00    +0.043 C 
ATOM      6  C   UNL     1      -3.488  -3.061  24.245  0.00  0.00    +0.011 C 
ATOM      7  C   UNL     1      -3.374  -2.378  24.361  0.00  0.00    +0.058 C 
ATOM      8  C   UNL     1      -2.533  -2.003  24.613  0.00  0.00    +0.099 C 
ATOM      9  C   UNL     1      -3.804  -1.565  24.361  0.00  0.00    +0.041 A 
ATOM     10  C   UNL     1      -4.546  -1.233  24.224  0.00  0.00    +0.013 A 
ATOM     11  C   UNL     1      -4.654  -0.419  24.302  0.00  0.00    +0.006 A 
ATOM     12  C   UNL     1      -3.911   0.026  24.540  0.00  0.00    +0.062 A 
ATOM     22  C   UNL     1      -3.278  -0.269  24.656  0.00  0.00    +0.261 A 
ATOM     23  O   UNL     1      -2.429   0.252  24.929  0.00  0.00    -0.267 OA
ATOM     24  N   UNL     1      -3.169  -1.083  24.577  0.00  0.00    -0.299 N 
ATOM     25  C   UNL     1      -3.304  -1.729  24.461  0.00  0.00    +0.110 C 
ENDROOT
BRANCH  12  13
ATOM     13  C   UNL     1      -3.802   0.770  24.662  0.00  0.00    +0.034 A 
ATOM     14  C   UNL     1      -3.657   1.463  24.773  0.00  0.00    +0.007 A 
ATOM     15  C   UNL     1      -3.905   2.158  24.915  0.00  0.00    +0.006 A 
ATOM     16  C   UNL     1      -4.721   2.034  24.956  0.00  0.00    +0.029 A 
ATOM     17  S   UNL     1      -4.864   1.232  24.826  0.00  0.00    -0.087 S 
ATOM     18  C   UNL     1      -5.226   2.668  25.107  0.00  0.00    +0.006 A 
ATOM     19  C   UNL     1      -4.918   3.425  25.217  0.00  0.00    +0.001 A 
ATOM     20  C   UNL     1      -4.104   3.549  25.175  0.00  0.00    +0.000 A 
ATOM     21  C   UNL     1      -3.598   2.916  25.024  0.00  0.00    +0.001 A 
ENDBRANCH  12  13
BRANCH   2  26
ATOM     26  C   UNL     1      -2.824  -0.076  24.791  0.00  0.00    +0.054 A 
ATOM     27  C   UNL     1      -2.907   0.263  24.044  0.00  0.00    +0.005 A 
ATOM     28  C   UNL     1      -3.581   0.706  23.865  0.00  0.00    +0.000 A 
ATOM     29  C   UNL     1      -4.170   0.809  24.433  0.00  0.00    +0.000 A 
ATOM     30  C   UNL     1      -4.086   0.469  25.180  0.00  0.00    +0.000 A 
ATOM     31  C   UNL     1      -3.412   0.027  25.359  0.00  0.00    +0.005 A 
ENDBRANCH   2  26
TORSDOF 2
ENDMDL
MODEL 2
REMARK VINA RESULT:     -18.1      1.472      4.071
REMARK  Name = 
REMARK  2 active torsions:
REMARK  status: ('A' for Active; 'I' for Inactive)
REMARK    1  A    between atoms: C_2  and  C_26
REMARK    2  A    between atoms: C_12  and  C_13
REMARK                            x       y       z     vdW  Elec       q    Type
REMARK                         _______ _______ _______ _____ _____    ______ ____
ROOT
ATOM      1  O   UNL     1      -5.806   1.981  24.647  0.00  0.00    -0.270 OA
ATOM      2  C   UNL     1      -4.945   1.988  24.742  0.00  0.00    +0.249 C 
ATOM      3  N   UNL     1      -4.534   2.707  24.956  0.00  0.00    -0.276 N 
ATOM      4  C   UNL     1      -4.537   3.521  25.146  0.00  0.00    +0.096 C 
ATOM      5  C   UNL     1      -3.569   3.662  25.285  0.00  0.00    +0.043 C 
ATOM      6  C   UNL     1      -2.817   3.939  25.432  0.00  0.00    +0.011 C 
ATOM      7  C   UNL     1      -3.121   3.331  25.256  0.00  0.00    +0.058 C 
ATOM      8  C   UNL     1      -4.059   3.211  25.125  0.00  0.00    +0.099 C 
ATOM      9  C   UNL     1      -2.922   2.453  25.072  0.00  0.00    +0.041 A 
ATOM     10  C   UNL     1      -2.280   1.939  25.021  0.00  0.00    +0.013 A 
ATOM     11  C   UNL     1      -2.400   1.147  24.823  0.00  0.00    +0.006 A 
ATOM     12  C   UNL     1      -3.260   0.934  24.679  0.00  0.00    +0.062 A 
ATOM     22  C   UNL     1      -3.806   1.384  24.725  0.00  0.00    +0.261 A 
ATOM     23  O   UNL     1      -4.792   1.129  24.557  0.00  0.00    -0.267 OA
ATOM     24  N   UNL     1      -3.685   2.176  24.924  0.00  0.00    -0.299 N 
ATOM     25  C   UNL     1      -3.371   2.743  25.091  0.00  0.00    +0.110 C 
ENDROOT
BRANCH  12  13
ATOM     13  C   UNL     1      -3.576   0.268  24.488  0.00  0.00    +0.034 A 
ATOM     14  C   UNL     1      -3.909  -0.337  24.296  0.00  0.00    +0.007 A 
ATOM     15  C   UNL     1      -3.896  -1.086  24.232  0.00  0.00    +0.006 A 
ATOM     16  C   UNL     1      -3.144  -1.262  24.524  0.00  0.00    +0.029 A 
ATOM     17  S   UNL     1      -2.781  -0.553  24.738  0.00  0.00    -0.087 S 
ATOM     18  C   UNL     1      -2.888  -2.046  24.556  0.00  0.00    +0.006 A 
ATOM     19  C   UNL     1      -3.383  -2.653  24.298  0.00  0.00    +0.001 A 
ATOM     20  C   UNL     1      -4.134  -2.477  24.007  0.00  0.00    +0.000 A 
ATOM     21  C   UNL     1      -4.391  -1.694  23.974  0.00  0.00    +0.001 A 
ENDBRANCH  12  13
BRANCH   2  26
ATOM     26  C   UNL     1      -4.309   1.327  24.656  0.00  0.00    +0.054 A 
ATOM     27  C   UNL     1      -4.022   1.216  23.892  0.00  0.00    +0.005 A 
ATOM     28  C   UNL     1      -3.450   0.639  23.746  0.00  0.00    +0.000 A 
ATOM     29  C   UNL     1      -3.166   0.174  24.365  0.00  0.00    +0.000 A 
ATOM     30  C   UNL     1      -3.454   0.286  25.131  0.00  0.00    +0.000 A 
ATOM     31  C   UNL     1      -4.026   0.863  25.276  0.00  0.00    +0.005 A 
ENDBRANCH   2  26
TORSDOF 2
ENDMDL
