MODEL 1
REMARK VINA RESULT:     -11.1      0.000      0.000
REMARK  Name = 
REMARK  6 active torsions:
REMARK  status: ('A' for Active; 'I' for Inactive)
REMARK    1  A    between atoms: C_2  and  C_4
REMARK    2  A    between atoms: C_6  and  C_7
REMARK    3  A    between atoms: C_7  and  C_8
REMARK    4  A    between atoms: C_20  and  C_21
REMARK    5  A    between atoms: C_21  and  N_22
REMARK    6  A    between atoms: C_23  and  C_25
REMARK                            x       y       z     vdW  Elec       q    Type
REMARK                         _______ _______ _______ _____ _____    ______ ____
ROOT
ATOM      4  C   UNL     1      -4.495   1.893  25.070  0.00  0.00    +0.006 C 
ATOM      5  C   UNL     1      -4.558   1.099  24.857  0.00  0.00    +0.005 C 
ATOM      6  C   UNL     1      -3.909   0.704  24.538  0.00  0.00    +0.027 C 
ATOM     17  C   UNL     1      -3.194   1.103  24.432  0.00  0.00    -0.048 C 
ATOM     18  C   UNL     1      -2.544   0.708  24.113  0.00  0.00    +0.026 C 
ATOM     19  C   UNL     1      -3.131   1.898  24.646  0.00  0.00    -0.033 C 
ATOM     20  C   UNL     1      -3.780   2.293  24.964  0.00  0.00    +0.043 C 
ENDROOT
BRANCH   4   2
ATOM      1  C   UNL     1      -5.661   2.699  24.894  0.00  0.00    +0.000 C 
ATOM      2  C   UNL     1      -5.145   2.288  25.389  0.00  0.00    +0.000 C 
ATOM      3  C   UNL     1      -5.279   2.271  26.202  0.00  0.00    +0.000 C 
ENDBRANCH   4   2
BRANCH   6   7
ATOM      7  C   UNL     1      -3.972  -0.091  24.325  0.00  0.00    +0.089 C 
BRANCH   7   8
ATOM      8  C   UNL     1      -3.820  -0.681  24.881  0.00  0.00    +0.226 C 
ATOM      9  O   UNL     1      -3.661  -0.477  25.665  0.00  0.00    -0.275 OA
ATOM     10  N   UNL     1      -3.828  -1.473  24.654  0.00  0.00    -0.277 N 
ATOM     11  C   UNL     1      -3.987  -1.677  23.870  0.00  0.00    +0.111 C 
ATOM     12  C   UNL     1      -3.994  -2.469  23.643  0.00  0.00    +0.094 C 
ATOM     13  N   UNL     1      -3.842  -3.060  24.200  0.00  0.00    -0.269 NA
ATOM     14  C   UNL     1      -3.850  -3.853  23.972  0.00  0.00    +0.090 C 
ATOM     15  C   UNL     1      -3.684  -2.857  24.983  0.00  0.00    +0.094 C 
ATOM     16  C   UNL     1      -3.676  -2.064  25.211  0.00  0.00    +0.111 C 
ENDBRANCH   7   8
ENDBRANCH   6   7
BRANCH  20  21
ATOM     21  C   UNL     1      -3.717   3.087  25.178  0.00  0.00    +0.119 C 
BRANCH  21  22
ATOM     22  N   UNL     1      -3.039   3.514  24.983  0.00  0.00    -0.205 NA
ATOM     23  C   UNL     1      -2.776   4.117  25.479  0.00  0.00    +0.241 C 
ATOM     24  O   UNL     1      -3.189   4.294  26.171  0.00  0.00    -0.273 OA
BRANCH  23  25
ATOM     25  C   UNL     1      -2.097   4.546  25.284  0.00  0.00    +0.078 C 
ATOM     26  C   UNL     1      -1.367   4.163  25.241  0.00  0.00    +0.009 C 
ATOM     27  C   UNL     1      -0.689   4.590  25.046  0.00  0.00    +0.000 C 
ATOM     28  C   UNL     1      -0.740   5.401  24.894  0.00  0.00    +0.000 C 
ATOM     29  C   UNL     1      -1.470   5.782  24.938  0.00  0.00    +0.000 C 
ATOM     30  C   UNL     1      -2.149   5.354  25.133  0.00  0.00    +0.009 C 
ENDBRANCH  23  25
ENDBRANCH  21  22
ENDBRANCH  20  21
TORSDOF 6
ENDMDL
MODEL 2
REMARK VINA RESULT:     -10.8      3.207      5.076
REMARK  Name = 
REMARK  6 active torsions:
REMARK  status: ('A' for Active; 'I' for Inactive)
REMARK    1  A    between atoms: C_2  and  C_4
REMARK    2  A    between atoms: C_6  and  C_7
REMARK    3  A    between atoms: C_7  and  C_8
REMARK    4  A    between atoms: C_20  and  C_21
REMARK    5  A    between atoms: C_21  and  N_22
REMARK    6  A    between atoms: C_23  and  C_25
REMARK                            x       y       z     vdW  Elec       q    Type
REMARK                         _______ _______ _______ _____ _____    ______ ____
ROOT
ATOM      4  C   UNL     1      -1.513  -0.211  24.643  0.00  0.00    +0.006 C 
ATOM      5  C   UNL     1      -0.734  -0.071  24.412  0.00  0.00    +0.005 C 
ATOM      6  C   UNL     1      -0.544   0.614  23.995  0.00  0.00    +0.027 C 
ATOM     17  C   UNL     1      -1.133   1.161  23.809  0.00  0.00    -0.048 C 
ATOM     18  C   UNL     1      -0.942   1.847  23.392  0.00  0.00    +0.026 C 
ATOM     19  C   UNL     1      -1.913   1.022  24.041  0.00  0.00    -0.033 C 
ATOM     20  C   UNL     1      -2.103   0.337  24.457  0.00  0.00    +0.043 C 
ENDROOT
BRANCH   4   2
ATOM      1  C   UNL     1      -1.638  -0.910  25.883  0.00  0.00    +0.000 C 
ATOM      2  C   UNL     1      -1.704  -0.897  25.061  0.00  0.00    +0.000 C 
ATOM      3  C   UNL     1      -1.960  -1.567  24.656  0.00  0.00    +0.000 C 
ENDBRANCH   4   2
BRANCH   6   7
ATOM      7  C   UNL     1       0.236   0.753  23.763  0.00  0.00    +0.089 C 
BRANCH   7   8
ATOM      8  C   UNL     1       0.601   0.251  23.220  0.00  0.00    +0.226 C 
ATOM      9  O   UNL     1       0.164  -0.341  22.848  0.00  0.00    -0.275 OA
ATOM     10  N   UNL     1       1.403   0.342  23.049  0.00  0.00    -0.277 N 
ATOM     11  C   UNL     1       1.840   0.934  23.421  0.00  0.00    +0.111 C 
ATOM     12  C   UNL     1       2.642   1.025  23.250  0.00  0.00    +0.094 C 
ATOM     13  N   UNL     1       3.007   0.522  22.706  0.00  0.00    -0.269 NA
ATOM     14  C   UNL     1       3.809   0.613  22.535  0.00  0.00    +0.090 C 
ATOM     15  C   UNL     1       2.570  -0.070  22.334  0.00  0.00    +0.094 C 
ATOM     16  C   UNL     1       1.768  -0.161  22.505  0.00  0.00    +0.111 C 
ENDBRANCH   7   8
ENDBRANCH   6   7
BRANCH  20  21
ATOM     21  C   UNL     1      -2.882   0.197  24.689  0.00  0.00    +0.119 C 
BRANCH  21  22
ATOM     22  N   UNL     1      -3.386   0.831  24.847  0.00  0.00    -0.205 NA
ATOM     23  C   UNL     1      -4.203   0.725  24.819  0.00  0.00    +0.241 C 
ATOM     24  O   UNL     1      -4.518  -0.015  24.633  0.00  0.00    -0.273 OA
BRANCH  23  25
ATOM     25  C   UNL     1      -4.707   1.360  24.978  0.00  0.00    +0.078 C 
ATOM     26  C   UNL     1      -5.272   1.297  25.577  0.00  0.00    +0.009 C 
ATOM     27  C   UNL     1      -5.776   1.931  25.735  0.00  0.00    +0.000 C 
ATOM     28  C   UNL     1      -5.715   2.627  25.295  0.00  0.00    +0.000 C 
ATOM     29  C   UNL     1      -5.150   2.688  24.697  0.00  0.00    +0.000 C 
ATOM     30  C   UNL     1      -4.646   2.054  24.538  0.00  0.00    +0.009 C 
ENDBRANCH  23  25
ENDBRANCH  21  22
ENDBRANCH  20  21
TORSDOF 6
ENDMDL
MODEL 3
REMARK VINA RESULT:     -10.6      1.130      2.174
REMARK  Name = 
REMARK  6 active torsions:
REMARK  status: ('A' for Active; 'I' for Inactive)
REMARK    1  A    between atoms: C_2  and  C_4
REMARK    2  A    between atoms: C_6  and  C_7
REMARK    3  A    between atoms: C_7  and  C_8
REMARK    4  A    between atoms: C_20  and  C_21
REMARK    5  A    between atoms: C_21  and  N_22
REMARK    6  A    between atoms: C_23  and  C_25
REMARK                            x       y       z     vdW  Elec       q    Type
REMARK                         _______ _______ _______ _____ _____    ______ ____
ROOT
ATOM      4  C   UNL     1      -1.644   0.766  24.704  0.00  0.00    +0.006 C 
ATOM      5  C   UNL     1      -2.232   0.190  24.650  0.00  0.00    +0.005 C 
ATOM      6  C   UNL     1      -3.021   0.393  24.775  0.00  0.00    +0.027 C 
ATOM     17  C   UNL     1      -3.224   1.172  24.953  0.00  0.00    -0.048 C 
ATOM     18  C   UNL     1      -4.014   1.375  25.078  0.00  0.00    +0.026 C 
ATOM     19  C   UNL     1      -2.636   1.749  25.007  0.00  0.00    -0.033 C 
ATOM     20  C   UNL     1      -1.847   1.547  24.882  0.00  0.00    +0.043 C 
ENDROOT
BRANCH   4   2
ATOM      1  C   UNL     1      -0.532   0.609  23.821  0.00  0.00    +0.000 C 
ATOM      2  C   UNL     1      -0.854   0.563  24.579  0.00  0.00    +0.000 C 
ATOM      3  C   UNL     1      -0.388   0.315  25.212  0.00  0.00    +0.000 C 
ENDBRANCH   4   2
BRANCH   6   7
ATOM      7  C   UNL     1      -3.609  -0.184  24.721  0.00  0.00    +0.089 C 
BRANCH   7   8
ATOM      8  C   UNL     1      -3.511  -0.910  25.101  0.00  0.00    +0.226 C 
ATOM      9  O   UNL     1      -3.212  -0.935  25.870  0.00  0.00    -0.275 OA
ATOM     10  N   UNL     1      -3.712  -1.609  24.713  0.00  0.00    -0.277 N 
ATOM     11  C   UNL     1      -4.011  -1.584  23.944  0.00  0.00    +0.111 C 
ATOM     12  C   UNL     1      -4.212  -2.282  23.556  0.00  0.00    +0.094 C 
ATOM     13  N   UNL     1      -4.114  -3.009  23.937  0.00  0.00    -0.269 NA
ATOM     14  C   UNL     1      -4.315  -3.708  23.548  0.00  0.00    +0.090 C 
ATOM     15  C   UNL     1      -3.815  -3.035  24.704  0.00  0.00    +0.094 C 
ATOM     16  C   UNL     1      -3.614  -2.335  25.093  0.00  0.00    +0.111 C 
ENDBRANCH   7   8
ENDBRANCH   6   7
BRANCH  20  21
ATOM     21  C   UNL     1      -1.259   2.123  24.936  0.00  0.00    +0.119 C 
BRANCH  21  22
ATOM     22  N   UNL     1      -1.456   2.921  24.868  0.00  0.00    -0.205 NA
ATOM     23  C   UNL     1      -0.945   3.497  25.162  0.00  0.00    +0.241 C 
ATOM     24  O   UNL     1      -0.237   3.277  25.524  0.00  0.00    -0.273 OA
BRANCH  23  25
ATOM     25  C   UNL     1      -1.142   4.297  25.095  0.00  0.00    +0.078 C 
ATOM     26  C   UNL     1      -1.847   4.576  25.420  0.00  0.00    +0.009 C 
ATOM     27  C   UNL     1      -2.044   5.375  25.353  0.00  0.00    +0.000 C 
ATOM     28  C   UNL     1      -1.536   5.894  24.960  0.00  0.00    +0.000 C 
ATOM     29  C   UNL     1      -0.831   5.613  24.635  0.00  0.00    +0.000 C 
ATOM     30  C   UNL     1      -0.635   4.815  24.703  0.00  0.00    +0.009 C 
ENDBRANCH  23  25
ENDBRANCH  21  22
ENDBRANCH  20  21
TORSDOF 6
ENDMDL
MODEL 4
REMARK VINA RESULT:     -10.3      1.080      5.836
REMARK  Name = 
REMARK  6 active torsions:
REMARK  status: ('A' for Active; 'I' for Inactive)
REMARK    1  A    between atoms: C_2  and  C_4
REMARK    2  A    between atoms: C_6  and  C_7
REMARK    3  A    between atoms: C_7  and  C_8
REMARK    4  A    between atoms: C_20  and  C_21
REMARK    5  A    between atoms: C_21  and  N_22
REMARK    6  A    between atoms: C_23  and  C_25
REMARK                            x       y       z     vdW  Elec       q    Type
REMARK                         _______ _______ _______ _____ _____    ______ ____
ROOT
ATOM      4  C   UNL     1      -3.555   1.667  24.815  0.00  0.00    +0.006 C 
ATOM      5  C   UNL     1      -3.011   2.253  25.020  0.00  0.00    +0.005 C 
ATOM      6  C   UNL     1      -2.236   2.047  25.209  0.00  0.00    +0.027 C 
ATOM     17  C   UNL     1      -2.003   1.256  25.195  0.00  0.00    -0.048 C 
ATOM     18  C   UNL     1      -1.227   1.050  25.385  0.00  0.00    +0.026 C 
ATOM     19  C   UNL     1      -2.548   0.670  24.990  0.00  0.00    -0.033 C 
ATOM     20  C   UNL     1      -3.323   0.875  24.801  0.00  0.00    +0.043 C 
ENDROOT
BRANCH   4   2
ATOM      1  C   UNL     1      -4.928   1.795  25.190  0.00  0.00    +0.000 C 
ATOM      2  C   UNL     1      -4.331   1.873  24.625  0.00  0.00    +0.000 C 
ATOM      3  C   UNL     1      -4.510   2.157  23.872  0.00  0.00    +0.000 C 
ENDBRANCH   4   2
BRANCH   6   7
ATOM      7  C   UNL     1      -1.691   2.633  25.414  0.00  0.00    +0.089 C 
BRANCH   7   8
ATOM      8  C   UNL     1      -1.954   3.389  25.612  0.00  0.00    +0.226 C 
ATOM      9  O   UNL     1      -2.602   3.482  26.116  0.00  0.00    -0.275 OA
ATOM     10  N   UNL     1      -1.570   4.052  25.308  0.00  0.00    -0.277 N 
ATOM     11  C   UNL     1      -0.923   3.960  24.804  0.00  0.00    +0.111 C 
ATOM     12  C   UNL     1      -0.539   4.622  24.500  0.00  0.00    +0.094 C 
ATOM     13  N   UNL     1      -0.802   5.380  24.699  0.00  0.00    -0.269 NA
ATOM     14  C   UNL     1      -0.417   6.043  24.393  0.00  0.00    +0.090 C 
ATOM     15  C   UNL     1      -1.449   5.472  25.201  0.00  0.00    +0.094 C 
ATOM     16  C   UNL     1      -1.833   4.809  25.506  0.00  0.00    +0.111 C 
ENDBRANCH   7   8
ENDBRANCH   6   7
BRANCH  20  21
ATOM     21  C   UNL     1      -3.867   0.290  24.596  0.00  0.00    +0.119 C 
BRANCH  21  22
ATOM     22  N   UNL     1      -3.650  -0.505  24.628  0.00  0.00    -0.205 NA
ATOM     23  C   UNL     1      -4.161  -1.084  24.338  0.00  0.00    +0.241 C 
ATOM     24  O   UNL     1      -4.889  -0.868  24.015  0.00  0.00    -0.273 OA
BRANCH  23  25
ATOM     25  C   UNL     1      -3.944  -1.880  24.371  0.00  0.00    +0.078 C 
ATOM     26  C   UNL     1      -4.142  -2.387  23.750  0.00  0.00    +0.009 C 
ATOM     27  C   UNL     1      -3.926  -3.182  23.783  0.00  0.00    +0.000 C 
ATOM     28  C   UNL     1      -3.511  -3.471  24.436  0.00  0.00    +0.000 C 
ATOM     29  C   UNL     1      -3.313  -2.963  25.055  0.00  0.00    +0.000 C 
ATOM     30  C   UNL     1      -3.530  -2.168  25.023  0.00  0.00    +0.009 C 
ENDBRANCH  23  25
ENDBRANCH  21  22
ENDBRANCH  20  21
TORSDOF 6
ENDMDL
MODEL 5
REMARK VINA RESULT:     -10.2      2.921      4.548
REMARK  Name = 
REMARK  6 active torsions:
REMARK  status: ('A' for Active; 'I' for Inactive)
REMARK    1  A    between atoms: C_2  and  C_4
REMARK    2  A    between atoms: C_6  and  C_7
REMARK    3  A    between atoms: C_7  and  C_8
REMARK    4  A    between atoms: C_20  and  C_21
REMARK    5  A    between atoms: C_21  and  N_22
REMARK    6  A    between atoms: C_23  and  C_25
REMARK                            x       y       z     vdW  Elec       q    Type
REMARK                         _______ _______ _______ _____ _____    ______ ____
ROOT
ATOM      4  C   UNL     1      -2.107   1.887  23.360  0.00  0.00    +0.006 C 
ATOM      5  C   UNL     1      -1.348   1.572  23.434  0.00  0.00    +0.005 C 
ATOM      6  C   UNL     1      -0.976   1.559  24.169  0.00  0.00    +0.027 C 
ATOM     17  C   UNL     1      -1.362   1.861  24.832  0.00  0.00    -0.048 C 
ATOM     18  C   UNL     1      -0.989   1.848  25.568  0.00  0.00    +0.026 C 
ATOM     19  C   UNL     1      -2.121   2.177  24.759  0.00  0.00    -0.033 C 
ATOM     20  C   UNL     1      -2.493   2.190  24.024  0.00  0.00    +0.043 C 
ENDROOT
BRANCH   4   2
ATOM      1  C   UNL     1      -2.927   1.253  22.378  0.00  0.00    +0.000 C 
ATOM      2  C   UNL     1      -2.479   1.900  22.624  0.00  0.00    +0.000 C 
ATOM      3  C   UNL     1      -2.404   2.560  22.136  0.00  0.00    +0.000 C 
ENDBRANCH   4   2
BRANCH   6   7
ATOM      7  C   UNL     1      -0.216   1.244  24.242  0.00  0.00    +0.089 C 
BRANCH   7   8
ATOM      8  C   UNL     1      -0.023   0.540  23.857  0.00  0.00    +0.226 C 
ATOM      9  O   UNL     1      -0.571  -0.077  23.827  0.00  0.00    -0.275 OA
ATOM     10  N   UNL     1       0.716   0.453  23.504  0.00  0.00    -0.277 N 
ATOM     11  C   UNL     1       1.264   1.069  23.534  0.00  0.00    +0.111 C 
ATOM     12  C   UNL     1       2.004   0.982  23.181  0.00  0.00    +0.094 C 
ATOM     13  N   UNL     1       2.197   0.277  22.796  0.00  0.00    -0.269 NA
ATOM     14  C   UNL     1       2.938   0.190  22.443  0.00  0.00    +0.090 C 
ATOM     15  C   UNL     1       1.650  -0.339  22.766  0.00  0.00    +0.094 C 
ATOM     16  C   UNL     1       0.910  -0.252  23.119  0.00  0.00    +0.111 C 
ENDBRANCH   7   8
ENDBRANCH   6   7
BRANCH  20  21
ATOM     21  C   UNL     1      -3.252   2.505  23.951  0.00  0.00    +0.119 C 
BRANCH  21  22
ATOM     22  N   UNL     1      -3.849   2.270  24.470  0.00  0.00    -0.205 NA
ATOM     23  C   UNL     1      -4.519   2.741  24.568  0.00  0.00    +0.241 C 
ATOM     24  O   UNL     1      -4.593   3.447  24.146  0.00  0.00    -0.273 OA
BRANCH  23  25
ATOM     25  C   UNL     1      -5.116   2.506  25.088  0.00  0.00    +0.078 C 
ATOM     26  C   UNL     1      -5.584   1.851  24.908  0.00  0.00    +0.009 C 
ATOM     27  C   UNL     1      -6.181   1.616  25.427  0.00  0.00    +0.000 C 
ATOM     28  C   UNL     1      -6.309   2.037  26.126  0.00  0.00    +0.000 C 
ATOM     29  C   UNL     1      -5.840   2.692  26.305  0.00  0.00    +0.000 C 
ATOM     30  C   UNL     1      -5.244   2.926  25.785  0.00  0.00    +0.009 C 
ENDBRANCH  23  25
ENDBRANCH  21  22
ENDBRANCH  20  21
TORSDOF 6
ENDMDL
MODEL 6
REMARK VINA RESULT:     -10.0      2.881      5.038
REMARK  Name = 
REMARK  6 active torsions:
REMARK  status: ('A' for Active; 'I' for Inactive)
REMARK    1  A    between atoms: C_2  and  C_4
REMARK    2  A    between atoms: C_6  and  C_7
REMARK    3  A    between atoms: C_7  and  C_8
REMARK    4  A    between atoms: C_20  and  C_21
REMARK    5  A    between atoms: C_21  and  N_22
REMARK    6  A    between atoms: C_23  and  C_25
REMARK                            x       y       z     vdW  Elec       q    Type
REMARK                         _______ _______ _______ _____ _____    ______ ____
ROOT
ATOM      4  C   UNL     1      -1.631   0.798  24.732  0.00  0.00    +0.006 C 
ATOM      5  C   UNL     1      -2.287   1.297  24.713  0.00  0.00    +0.005 C 
ATOM      6  C   UNL     1      -2.490   1.685  24.015  0.00  0.00    +0.027 C 
ATOM     17  C   UNL     1      -2.037   1.575  23.334  0.00  0.00    -0.048 C 
ATOM     18  C   UNL     1      -2.240   1.964  22.636  0.00  0.00    +0.026 C 
ATOM     19  C   UNL     1      -1.380   1.076  23.353  0.00  0.00    -0.033 C 
ATOM     20  C   UNL     1      -1.177   0.688  24.051  0.00  0.00    +0.043 C 
ENDROOT
BRANCH   4   2
ATOM      1  C   UNL     1      -0.937   0.780  25.981  0.00  0.00    +0.000 C 
ATOM      2  C   UNL     1      -1.428   0.409  25.431  0.00  0.00    +0.000 C 
ATOM      3  C   UNL     1      -1.715  -0.350  25.578  0.00  0.00    +0.000 C 
ENDBRANCH   4   2
BRANCH   6   7
ATOM      7  C   UNL     1      -3.147   2.184  23.996  0.00  0.00    +0.089 C 
BRANCH   7   8
ATOM      8  C   UNL     1      -3.880   1.912  24.258  0.00  0.00    +0.226 C 
ATOM      9  O   UNL     1      -4.100   1.128  24.124  0.00  0.00    -0.275 OA
ATOM     10  N   UNL     1      -4.393   2.422  24.653  0.00  0.00    -0.277 N 
ATOM     11  C   UNL     1      -4.173   3.206  24.787  0.00  0.00    +0.111 C 
ATOM     12  C   UNL     1      -4.686   3.717  25.182  0.00  0.00    +0.094 C 
ATOM     13  N   UNL     1      -5.420   3.444  25.445  0.00  0.00    -0.269 NA
ATOM     14  C   UNL     1      -5.932   3.956  25.840  0.00  0.00    +0.090 C 
ATOM     15  C   UNL     1      -5.640   2.661  25.311  0.00  0.00    +0.094 C 
ATOM     16  C   UNL     1      -5.127   2.149  24.916  0.00  0.00    +0.111 C 
ENDBRANCH   7   8
ENDBRANCH   6   7
BRANCH  20  21
ATOM     21  C   UNL     1      -0.520   0.189  24.070  0.00  0.00    +0.119 C 
BRANCH  21  22
ATOM     22  N   UNL     1       0.121   0.330  23.571  0.00  0.00    -0.205 NA
ATOM     23  C   UNL     1       0.683  -0.259  23.445  0.00  0.00    +0.241 C 
ATOM     24  O   UNL     1       0.605  -0.992  23.817  0.00  0.00    -0.273 OA
BRANCH  23  25
ATOM     25  C   UNL     1       1.325  -0.117  22.945  0.00  0.00    +0.078 C 
ATOM     26  C   UNL     1       1.981   0.298  23.225  0.00  0.00    +0.009 C 
ATOM     27  C   UNL     1       2.623   0.440  22.725  0.00  0.00    +0.000 C 
ATOM     28  C   UNL     1       2.608   0.166  21.946  0.00  0.00    +0.000 C 
ATOM     29  C   UNL     1       1.952  -0.249  21.668  0.00  0.00    +0.000 C 
ATOM     30  C   UNL     1       1.310  -0.390  22.167  0.00  0.00    +0.009 C 
ENDBRANCH  23  25
ENDBRANCH  21  22
ENDBRANCH  20  21
TORSDOF 6
ENDMDL
