MODEL 1
REMARK VINA RESULT:     -12.3      0.000      0.000
REMARK  Name = 
REMARK  7 active torsions:
REMARK  status: ('A' for Active; 'I' for Inactive)
REMARK    1  A    between atoms: O_2  and  C_3
REMARK    2  A    between atoms: C_7  and  C_9
REMARK    3  A    between atoms: N_13  and  C_14
REMARK    4  A    between atoms: C_18  and  N_22
REMARK    5  A    between atoms: N_25  and  C_26
REMARK    6  A    between atoms: C_29  and  O_30
REMARK    7  A    between atoms: O_30  and  C_31
REMARK                            x       y       z     vdW  Elec       q    Type
REMARK                         _______ _______ _______ _____ _____    ______ ____
ROOT
ATOM     14  C   UNL     1      -0.851   3.698  25.373  0.00  0.00    +0.167 C 
ATOM     15  C   UNL     1      -0.888   3.368  26.128  0.00  0.00    +0.169 C 
ATOM     16  O   UNL     1      -0.644   2.582  26.075  0.00  0.00    -0.350 OA
ATOM     17  C   UNL     1      -0.456   2.426  25.288  0.00  0.00    +0.167 C 
ATOM     18  C   UNL     1      -0.189   1.844  24.767  0.00  0.00    +0.156 C 
ATOM     19  C   UNL     1      -0.151   2.174  24.012  0.00  0.00    +0.166 C 
ATOM     20  O   UNL     1      -0.396   2.960  24.065  0.00  0.00    -0.350 OA
ATOM     21  C   UNL     1      -0.584   3.116  24.854  0.00  0.00    +0.169 C 
ENDROOT
BRANCH  14  13
ATOM      9  C   UNL     1      -1.807   4.793  25.155  0.00  0.00    +0.184 A 
ATOM     10  N   UNL     1      -1.746   5.584  24.926  0.00  0.00    -0.108 NA
ATOM     11  N   UNL     1      -0.948   5.753  24.803  0.00  0.00    -0.023 NA
ATOM     12  N   UNL     1      -0.515   5.067  24.955  0.00  0.00    -0.043 NA
ATOM     13  N   UNL     1      -1.046   4.474  25.173  0.00  0.00    -0.210 N 
BRANCH   9   7
ATOM      3  C   UNL     1      -3.648   3.649  24.910  0.00  0.00    +0.139 A 
ATOM      4  C   UNL     1      -3.901   3.592  25.693  0.00  0.00    +0.037 A 
ATOM      5  C   UNL     1      -3.456   3.934  26.297  0.00  0.00    +0.003 A 
ATOM      6  C   UNL     1      -2.758   4.335  26.118  0.00  0.00    +0.003 A 
ATOM      7  C   UNL     1      -2.505   4.392  25.334  0.00  0.00    +0.040 A 
ATOM      8  C   UNL     1      -2.950   4.050  24.731  0.00  0.00    +0.040 A 
BRANCH   3   2
ATOM      1  C   UNL     1      -4.302   2.508  24.350  0.00  0.00    +0.252 C 
ATOM      2  O   UNL     1      -4.093   3.306  24.307  0.00  0.00    -0.471 OA
ENDBRANCH   3   2
ENDBRANCH   9   7
ENDBRANCH  14  13
BRANCH  18  22
ATOM     22  N   UNL     1       0.007   1.068  24.967  0.00  0.00    -0.184 NA
ATOM     23  C   UNL     1      -0.562   0.472  24.915  0.00  0.00    +0.344 C 
ATOM     24  O   UNL     1      -1.326   0.653  24.663  0.00  0.00    -0.249 OA
ATOM     25  N   UNL     1      -0.367  -0.304  25.115  0.00  0.00    -0.161 NA
BRANCH  25  26
ATOM     26  C   UNL     1      -0.935  -0.899  25.063  0.00  0.00    +0.075 A 
ATOM     27  C   UNL     1      -0.935  -1.415  24.420  0.00  0.00    +0.020 A 
ATOM     28  C   UNL     1      -1.502  -2.010  24.368  0.00  0.00    +0.039 A 
ATOM     29  C   UNL     1      -2.073  -2.090  24.959  0.00  0.00    +0.145 A 
ATOM     37  C   UNL     1      -2.074  -1.573  25.603  0.00  0.00    +0.039 A 
ATOM     38  C   UNL     1      -1.505  -0.978  25.654  0.00  0.00    +0.020 A 
BRANCH  29  30
ATOM     30  O   UNL     1      -2.641  -2.685  24.908  0.00  0.00    -0.453 OA
BRANCH  30  31
ATOM     31  C   UNL     1      -3.332  -2.558  24.475  0.00  0.00    +0.145 A 
ATOM     32  C   UNL     1      -3.576  -3.112  23.915  0.00  0.00    +0.037 A 
ATOM     33  C   UNL     1      -4.268  -2.986  23.483  0.00  0.00    +0.003 A 
ATOM     34  C   UNL     1      -4.715  -2.304  23.611  0.00  0.00    +0.000 A 
ATOM     35  C   UNL     1      -4.471  -1.750  24.171  0.00  0.00    +0.003 A 
ATOM     36  C   UNL     1      -3.780  -1.877  24.603  0.00  0.00    +0.037 A 
ENDBRANCH  30  31
ENDBRANCH  29  30
ENDBRANCH  25  26
ENDBRANCH  18  22
TORSDOF 7
ENDMDL
MODEL 2
REMARK VINA RESULT:     -11.4      1.393      2.889
REMARK  Name = 
REMARK  7 active torsions:
REMARK  status: ('A' for Active; 'I' for Inactive)
REMARK    1  A    between atoms: O_2  and  C_3
REMARK    2  A    between atoms: C_7  and  C_9
REMARK    3  A    between atoms: N_13  and  C_14
REMARK    4  A    between atoms: C_18  and  N_22
REMARK    5  A    between atoms: N_25  and  C_26
REMARK    6  A    between atoms: C_29  and  O_30
REMARK    7  A    between atoms: O_30  and  C_31
REMARK                            x       y       z     vdW  Elec       q    Type
REMARK                         _______ _______ _______ _____ _____    ______ ____
ROOT
ATOM     14  C   UNL     1      -2.461   4.072  25.284  0.00  0.00    +0.167 C 
ATOM     15  C   UNL     1      -2.647   3.747  26.018  0.00  0.00    +0.169 C 
ATOM     16  O   UNL     1      -3.227   3.172  25.902  0.00  0.00    -0.350 OA
ATOM     17  C   UNL     1      -3.399   3.142  25.097  0.00  0.00    +0.167 C 
ATOM     18  C   UNL     1      -3.863   2.769  24.526  0.00  0.00    +0.156 C 
ATOM     19  C   UNL     1      -3.677   3.094  23.791  0.00  0.00    +0.166 C 
ATOM     20  O   UNL     1      -3.097   3.669  23.907  0.00  0.00    -0.350 OA
ATOM     21  C   UNL     1      -2.925   3.699  24.714  0.00  0.00    +0.169 C 
ENDROOT
BRANCH  14  13
ATOM      9  C   UNL     1      -1.088   4.572  25.122  0.00  0.00    +0.184 A 
ATOM     10  N   UNL     1      -0.749   5.308  24.965  0.00  0.00    -0.108 NA
ATOM     11  N   UNL     1      -1.359   5.859  24.890  0.00  0.00    -0.023 NA
ATOM     12  N   UNL     1      -2.074   5.463  25.000  0.00  0.00    -0.043 NA
ATOM     13  N   UNL     1      -1.906   4.668  25.143  0.00  0.00    -0.210 N 
BRANCH   9   7
ATOM      3  C   UNL     1      -0.022   2.715  24.701  0.00  0.00    +0.139 A 
ATOM      4  C   UNL     1       0.139   2.451  25.466  0.00  0.00    +0.037 A 
ATOM      5  C   UNL     1      -0.109   2.894  26.116  0.00  0.00    +0.003 A 
ATOM      6  C   UNL     1      -0.518   3.601  26.002  0.00  0.00    +0.003 A 
ATOM      7  C   UNL     1      -0.679   3.865  25.236  0.00  0.00    +0.040 A 
ATOM      8  C   UNL     1      -0.431   3.422  24.587  0.00  0.00    +0.040 A 
BRANCH   3   2
ATOM      1  C   UNL     1       0.110   1.454  24.041  0.00  0.00    +0.252 C 
ATOM      2  O   UNL     1       0.226   2.272  24.052  0.00  0.00    -0.471 OA
ENDBRANCH   3   2
ENDBRANCH   9   7
ENDBRANCH  14  13
BRANCH  18  22
ATOM     22  N   UNL     1      -4.418   2.173  24.666  0.00  0.00    -0.184 NA
ATOM     23  C   UNL     1      -4.182   1.383  24.674  0.00  0.00    +0.344 C 
ATOM     24  O   UNL     1      -3.391   1.187  24.541  0.00  0.00    -0.249 OA
ATOM     25  N   UNL     1      -4.735   0.788  24.814  0.00  0.00    -0.161 NA
BRANCH  25  26
ATOM     26  C   UNL     1      -4.499  -0.003  24.821  0.00  0.00    +0.075 A 
ATOM     27  C   UNL     1      -4.588  -0.467  24.146  0.00  0.00    +0.020 A 
ATOM     28  C   UNL     1      -4.353  -1.256  24.153  0.00  0.00    +0.039 A 
ATOM     29  C   UNL     1      -4.027  -1.583  24.838  0.00  0.00    +0.145 A 
ATOM     37  C   UNL     1      -3.937  -1.119  25.514  0.00  0.00    +0.039 A 
ATOM     38  C   UNL     1      -4.174  -0.329  25.506  0.00  0.00    +0.020 A 
BRANCH  29  30
ATOM     30  O   UNL     1      -3.791  -2.373  24.846  0.00  0.00    -0.453 OA
BRANCH  30  31
ATOM     31  C   UNL     1      -3.018  -2.575  24.637  0.00  0.00    +0.145 A 
ATOM     32  C   UNL     1      -2.388  -2.347  25.118  0.00  0.00    +0.037 A 
ATOM     33  C   UNL     1      -1.615  -2.549  24.909  0.00  0.00    +0.003 A 
ATOM     34  C   UNL     1      -1.474  -2.978  24.219  0.00  0.00    +0.000 A 
ATOM     35  C   UNL     1      -2.105  -3.206  23.738  0.00  0.00    +0.003 A 
ATOM     36  C   UNL     1      -2.876  -3.004  23.947  0.00  0.00    +0.037 A 
ENDBRANCH  30  31
ENDBRANCH  29  30
ENDBRANCH  25  26
ENDBRANCH  18  22
TORSDOF 7
ENDMDL
MODEL 3
REMARK VINA RESULT:     -11.2      2.209      6.353
REMARK  Name = 
REMARK  7 active torsions:
REMARK  status: ('A' for Active; 'I' for Inactive)
REMARK    1  A    between atoms: O_2  and  C_3
REMARK    2  A    between atoms: C_7  and  C_9
REMARK    3  A    between atoms: N_13  and  C_14
REMARK    4  A    between atoms: C_18  and  N_22
REMARK    5  A    between atoms: N_25  and  C_26
REMARK    6  A    between atoms: C_29  and  O_30
REMARK    7  A    between atoms: O_30  and  C_31
REMARK                            x       y       z     vdW  Elec       q    Type
REMARK                         _______ _______ _______ _____ _____    ______ ____
ROOT
ATOM     14  C   UNL     1      -3.528  -1.593  24.922  0.00  0.00    +0.167 C 
ATOM     15  C   UNL     1      -3.545  -1.404  25.724  0.00  0.00    +0.169 C 
ATOM     16  O   UNL     1      -3.890  -0.659  25.803  0.00  0.00    -0.350 OA
ATOM     17  C   UNL     1      -4.085  -0.387  25.049  0.00  0.00    +0.167 C 
ATOM     18  C   UNL     1      -4.419   0.241  24.631  0.00  0.00    +0.156 C 
ATOM     19  C   UNL     1      -4.402   0.052  23.829  0.00  0.00    +0.166 C 
ATOM     20  O   UNL     1      -4.057  -0.693  23.750  0.00  0.00    -0.350 OA
ATOM     21  C   UNL     1      -3.861  -0.965  24.505  0.00  0.00    +0.169 C 
ENDROOT
BRANCH  14  13
ATOM      9  C   UNL     1      -2.431  -2.478  24.505  0.00  0.00    +0.184 A 
ATOM     10  N   UNL     1      -2.384  -3.224  24.153  0.00  0.00    -0.108 NA
ATOM     11  N   UNL     1      -3.153  -3.494  24.025  0.00  0.00    -0.023 NA
ATOM     12  N   UNL     1      -3.675  -2.916  24.298  0.00  0.00    -0.043 NA
ATOM     13  N   UNL     1      -3.228  -2.289  24.594  0.00  0.00    -0.210 N 
BRANCH   9   7
ATOM      3  C   UNL     1      -0.778  -1.058  24.391  0.00  0.00    +0.139 A 
ATOM      4  C   UNL     1      -0.515  -1.063  25.173  0.00  0.00    +0.037 A 
ATOM      5  C   UNL     1      -0.890  -1.540  25.732  0.00  0.00    +0.003 A 
ATOM      6  C   UNL     1      -1.529  -2.012  25.509  0.00  0.00    +0.003 A 
ATOM      7  C   UNL     1      -1.792  -2.006  24.727  0.00  0.00    +0.040 A 
ATOM      8  C   UNL     1      -1.417  -1.530  24.169  0.00  0.00    +0.040 A 
BRANCH   3   2
ATOM      1  C   UNL     1      -0.310   0.227  23.975  0.00  0.00    +0.252 C 
ATOM      2  O   UNL     1      -0.403  -0.582  23.833  0.00  0.00    -0.471 OA
ENDBRANCH   3   2
ENDBRANCH   9   7
ENDBRANCH  14  13
BRANCH  18  22
ATOM     22  N   UNL     1      -4.718   0.936  24.959  0.00  0.00    -0.184 NA
ATOM     23  C   UNL     1      -4.238   1.605  25.019  0.00  0.00    +0.344 C 
ATOM     24  O   UNL     1      -3.458   1.577  24.751  0.00  0.00    -0.249 OA
ATOM     25  N   UNL     1      -4.537   2.300  25.346  0.00  0.00    -0.161 NA
BRANCH  25  26
ATOM     26  C   UNL     1      -4.056   2.968  25.406  0.00  0.00    +0.075 A 
ATOM     27  C   UNL     1      -3.963   3.469  24.758  0.00  0.00    +0.020 A 
ATOM     28  C   UNL     1      -3.483   4.136  24.817  0.00  0.00    +0.039 A 
ATOM     29  C   UNL     1      -3.095   4.304  25.526  0.00  0.00    +0.145 A 
ATOM     37  C   UNL     1      -3.189   3.803  26.176  0.00  0.00    +0.039 A 
ATOM     38  C   UNL     1      -3.669   3.135  26.115  0.00  0.00    +0.020 A 
BRANCH  29  30
ATOM     30  O   UNL     1      -2.615   4.971  25.587  0.00  0.00    -0.453 OA
BRANCH  30  31
ATOM     31  C   UNL     1      -1.845   4.953  25.291  0.00  0.00    +0.145 A 
ATOM     32  C   UNL     1      -1.356   4.309  25.452  0.00  0.00    +0.037 A 
ATOM     33  C   UNL     1      -0.586   4.291  25.157  0.00  0.00    +0.003 A 
ATOM     34  C   UNL     1      -0.305   4.917  24.699  0.00  0.00    +0.000 A 
ATOM     35  C   UNL     1      -0.795   5.562  24.537  0.00  0.00    +0.003 A 
ATOM     36  C   UNL     1      -1.564   5.579  24.833  0.00  0.00    +0.037 A 
ENDBRANCH  30  31
ENDBRANCH  29  30
ENDBRANCH  25  26
ENDBRANCH  18  22
TORSDOF 7
ENDMDL
MODEL 4
REMARK VINA RESULT:     -10.3      3.051      4.808
REMARK  Name = 
REMARK  7 active torsions:
REMARK  status: ('A' for Active; 'I' for Inactive)
REMARK    1  A    between atoms: O_2  and  C_3
REMARK    2  A    between atoms: C_7  and  C_9
REMARK    3  A    between atoms: N_13  and  C_14
REMARK    4  A    between atoms: C_18  and  N_22
REMARK    5  A    between atoms: N_25  and  C_26
REMARK    6  A    between atoms: C_29  and  O_30
REMARK    7  A    between atoms: O_30  and  C_31
REMARK                            x       y       z     vdW  Elec       q    Type
REMARK                         _______ _______ _______ _____ _____    ______ ____
ROOT
ATOM     14  C   UNL     1      -2.056   2.801  24.662  0.00  0.00    +0.167 C 
ATOM     15  C   UNL     1      -2.196   2.810  23.849  0.00  0.00    +0.169 C 
ATOM     16  O   UNL     1      -1.730   2.223  23.505  0.00  0.00    -0.350 OA
ATOM     17  C   UNL     1      -1.303   1.852  24.103  0.00  0.00    +0.167 C 
ATOM     18  C   UNL     1      -0.751   1.260  24.262  0.00  0.00    +0.156 C 
ATOM     19  C   UNL     1      -0.611   1.251  25.075  0.00  0.00    +0.166 C 
ATOM     20  O   UNL     1      -1.076   1.838  25.419  0.00  0.00    -0.350 OA
ATOM     21  C   UNL     1      -1.504   2.209  24.819  0.00  0.00    +0.169 C 
ENDROOT
BRANCH  14  13
ATOM      9  C   UNL     1      -3.208   3.321  25.413  0.00  0.00    +0.184 A 
ATOM     10  N   UNL     1      -3.314   3.896  25.995  0.00  0.00    -0.108 NA
ATOM     11  N   UNL     1      -2.578   4.230  26.161  0.00  0.00    -0.023 NA
ATOM     12  N   UNL     1      -2.017   3.860  25.682  0.00  0.00    -0.043 NA
ATOM     13  N   UNL     1      -2.407   3.298  25.220  0.00  0.00    -0.210 N 
BRANCH   9   7
ATOM      3  C   UNL     1      -4.587   1.659  25.101  0.00  0.00    +0.139 A 
ATOM      4  C   UNL     1      -4.983   1.910  24.423  0.00  0.00    +0.037 A 
ATOM      5  C   UNL     1      -4.788   2.632  24.074  0.00  0.00    +0.003 A 
ATOM      6  C   UNL     1      -4.196   3.102  24.404  0.00  0.00    +0.003 A 
ATOM      7  C   UNL     1      -3.800   2.850  25.083  0.00  0.00    +0.040 A 
ATOM      8  C   UNL     1      -3.995   2.129  25.431  0.00  0.00    +0.040 A 
BRANCH   3   2
ATOM      1  C   UNL     1      -4.547   0.230  25.093  0.00  0.00    +0.252 C 
ATOM      2  O   UNL     1      -4.783   0.938  25.449  0.00  0.00    -0.471 OA
ENDBRANCH   3   2
ENDBRANCH   9   7
ENDBRANCH  14  13
BRANCH  18  22
ATOM     22  N   UNL     1      -0.400   0.763  23.704  0.00  0.00    -0.184 NA
ATOM     23  C   UNL     1       0.415   0.795  23.577  0.00  0.00    +0.344 C 
ATOM     24  O   UNL     1       0.879   1.324  24.007  0.00  0.00    -0.249 OA
ATOM     25  N   UNL     1       0.765   0.298  23.020  0.00  0.00    -0.161 NA
BRANCH  25  26
ATOM     26  C   UNL     1       1.580   0.330  22.892  0.00  0.00    +0.075 A 
ATOM     27  C   UNL     1       2.014   0.979  23.158  0.00  0.00    +0.020 A 
ATOM     28  C   UNL     1       2.828   1.011  23.031  0.00  0.00    +0.039 A 
ATOM     29  C   UNL     1       3.209   0.394  22.638  0.00  0.00    +0.145 A 
ATOM     37  C   UNL     1       2.775  -0.256  22.372  0.00  0.00    +0.039 A 
ATOM     38  C   UNL     1       1.960  -0.287  22.500  0.00  0.00    +0.020 A 
BRANCH  29  30
ATOM     30  O   UNL     1       4.022   0.425  22.510  0.00  0.00    -0.453 OA
BRANCH  30  31
ATOM     31  C   UNL     1       4.542   0.176  23.101  0.00  0.00    +0.145 A 
ATOM     32  C   UNL     1       5.014   0.727  23.494  0.00  0.00    +0.037 A 
ATOM     33  C   UNL     1       5.534   0.478  24.085  0.00  0.00    +0.003 A 
ATOM     34  C   UNL     1       5.581  -0.322  24.282  0.00  0.00    +0.000 A 
ATOM     35  C   UNL     1       5.109  -0.872  23.889  0.00  0.00    +0.003 A 
ATOM     36  C   UNL     1       4.590  -0.624  23.299  0.00  0.00    +0.037 A 
ENDBRANCH  30  31
ENDBRANCH  29  30
ENDBRANCH  25  26
ENDBRANCH  18  22
TORSDOF 7
ENDMDL
MODEL 5
REMARK VINA RESULT:     -10.2      2.998      4.741
REMARK  Name = 
REMARK  7 active torsions:
REMARK  status: ('A' for Active; 'I' for Inactive)
REMARK    1  A    between atoms: O_2  and  C_3
REMARK    2  A    between atoms: C_7  and  C_9
REMARK    3  A    between atoms: N_13  and  C_14
REMARK    4  A    between atoms: C_18  and  N_22
REMARK    5  A    between atoms: N_25  and  C_26
REMARK    6  A    between atoms: C_29  and  O_30
REMARK    7  A    between atoms: O_30  and  C_31
REMARK                            x       y       z     vdW  Elec       q    Type
REMARK                         _______ _______ _______ _____ _____    ______ ____
ROOT
ATOM     14  C   UNL     1      -3.303   1.932  24.677  0.00  0.00    +0.167 C 
ATOM     15  C   UNL     1      -3.078   1.591  25.393  0.00  0.00    +0.169 C 
ATOM     16  O   UNL     1      -2.432   1.099  25.249  0.00  0.00    -0.350 OA
ATOM     17  C   UNL     1      -2.257   1.136  24.444  0.00  0.00    +0.167 C 
ATOM     18  C   UNL     1      -1.751   0.856  23.856  0.00  0.00    +0.156 C 
ATOM     19  C   UNL     1      -1.976   1.197  23.140  0.00  0.00    +0.166 C 
ATOM     20  O   UNL     1      -2.622   1.689  23.284  0.00  0.00    -0.350 OA
ATOM     21  C   UNL     1      -2.796   1.651  24.090  0.00  0.00    +0.169 C 
ENDROOT
BRANCH  14  13
ATOM      9  C   UNL     1      -3.948   3.245  24.824  0.00  0.00    +0.184 A 
ATOM     10  N   UNL     1      -4.673   3.568  24.596  0.00  0.00    -0.108 NA
ATOM     11  N   UNL     1      -5.099   2.984  24.197  0.00  0.00    -0.023 NA
ATOM     12  N   UNL     1      -4.637   2.300  24.179  0.00  0.00    -0.043 NA
ATOM     13  N   UNL     1      -3.927   2.462  24.567  0.00  0.00    -0.210 N 
BRANCH   9   7
ATOM      3  C   UNL     1      -2.180   4.453  25.240  0.00  0.00    +0.139 A 
ATOM      4  C   UNL     1      -2.158   4.419  26.064  0.00  0.00    +0.037 A 
ATOM      5  C   UNL     1      -2.733   3.994  26.475  0.00  0.00    +0.003 A 
ATOM      6  C   UNL     1      -3.330   3.602  26.062  0.00  0.00    +0.003 A 
ATOM      7  C   UNL     1      -3.351   3.636  25.238  0.00  0.00    +0.040 A 
ATOM      8  C   UNL     1      -2.777   4.061  24.827  0.00  0.00    +0.040 A 
BRANCH   3   2
ATOM      1  C   UNL     1      -0.806   4.692  24.926  0.00  0.00    +0.252 C 
ATOM      2  O   UNL     1      -1.605   4.878  24.830  0.00  0.00    -0.471 OA
ENDBRANCH   3   2
ENDBRANCH   9   7
ENDBRANCH  14  13
BRANCH  18  22
ATOM     22  N   UNL     1      -1.127   0.327  23.966  0.00  0.00    -0.184 NA
ATOM     23  C   UNL     1      -0.392   0.478  23.624  0.00  0.00    +0.344 C 
ATOM     24  O   UNL     1      -0.280   1.158  23.172  0.00  0.00    -0.249 OA
ATOM     25  N   UNL     1       0.231  -0.051  23.734  0.00  0.00    -0.161 NA
BRANCH  25  26
ATOM     26  C   UNL     1       0.967   0.100  23.392  0.00  0.00    +0.075 A 
ATOM     27  C   UNL     1       1.431   0.722  23.669  0.00  0.00    +0.020 A 
ATOM     28  C   UNL     1       2.165   0.874  23.327  0.00  0.00    +0.039 A 
ATOM     29  C   UNL     1       2.437   0.401  22.707  0.00  0.00    +0.145 A 
ATOM     37  C   UNL     1       1.973  -0.222  22.429  0.00  0.00    +0.039 A 
ATOM     38  C   UNL     1       1.238  -0.372  22.772  0.00  0.00    +0.020 A 
BRANCH  29  30
ATOM     30  O   UNL     1       3.172   0.551  22.365  0.00  0.00    -0.453 OA
BRANCH  30  31
ATOM     31  C   UNL     1       3.863   0.376  22.779  0.00  0.00    +0.145 A 
ATOM     32  C   UNL     1       4.379   0.982  22.997  0.00  0.00    +0.037 A 
ATOM     33  C   UNL     1       5.071   0.806  23.411  0.00  0.00    +0.003 A 
ATOM     34  C   UNL     1       5.246   0.024  23.607  0.00  0.00    +0.000 A 
ATOM     35  C   UNL     1       4.731  -0.582  23.389  0.00  0.00    +0.003 A 
ATOM     36  C   UNL     1       4.040  -0.406  22.975  0.00  0.00    +0.037 A 
ENDBRANCH  30  31
ENDBRANCH  29  30
ENDBRANCH  25  26
ENDBRANCH  18  22
TORSDOF 7
ENDMDL
MODEL 6
REMARK VINA RESULT:      -9.1      3.349      5.795
REMARK  Name = 
REMARK  7 active torsions:
REMARK  status: ('A' for Active; 'I' for Inactive)
REMARK    1  A    between atoms: O_2  and  C_3
REMARK    2  A    between atoms: C_7  and  C_9
REMARK    3  A    between atoms: N_13  and  C_14
REMARK    4  A    between atoms: C_18  and  N_22
REMARK    5  A    between atoms: N_25  and  C_26
REMARK    6  A    between atoms: C_29  and  O_30
REMARK    7  A    between atoms: O_30  and  C_31
REMARK                            x       y       z     vdW  Elec       q    Type
REMARK                         _______ _______ _______ _____ _____    ______ ____
ROOT
ATOM     14  C   UNL     1      -1.905  -0.277  25.267  0.00  0.00    +0.167 C 
ATOM     15  C   UNL     1      -1.954   0.542  25.191  0.00  0.00    +0.169 C 
ATOM     16  O   UNL     1      -1.416   0.776  24.612  0.00  0.00    -0.350 OA
ATOM     17  C   UNL     1      -1.034   0.103  24.330  0.00  0.00    +0.167 C 
ATOM     18  C   UNL     1      -0.465  -0.170  23.798  0.00  0.00    +0.156 C 
ATOM     19  C   UNL     1      -0.416  -0.990  23.875  0.00  0.00    +0.166 C 
ATOM     20  O   UNL     1      -0.954  -1.224  24.454  0.00  0.00    -0.350 OA
ATOM     21  C   UNL     1      -1.336  -0.549  24.736  0.00  0.00    +0.169 C 
ENDROOT
BRANCH  14  13
ATOM      9  C   UNL     1      -3.165  -0.847  25.766  0.00  0.00    +0.184 A 
ATOM     10  N   UNL     1      -3.372  -1.356  26.383  0.00  0.00    -0.108 NA
ATOM     11  N   UNL     1      -2.681  -1.566  26.783  0.00  0.00    -0.023 NA
ATOM     12  N   UNL     1      -2.048  -1.188  26.414  0.00  0.00    -0.043 NA
ATOM     13  N   UNL     1      -2.347  -0.744  25.786  0.00  0.00    -0.210 N 
BRANCH   9   7
ATOM      3  C   UNL     1      -4.509   0.593  24.828  0.00  0.00    +0.139 A 
ATOM      4  C   UNL     1      -4.724   0.184  24.146  0.00  0.00    +0.037 A 
ATOM      5  C   UNL     1      -4.420  -0.570  24.003  0.00  0.00    +0.003 A 
ATOM      6  C   UNL     1      -3.900  -0.914  24.543  0.00  0.00    +0.003 A 
ATOM      7  C   UNL     1      -3.685  -0.504  25.226  0.00  0.00    +0.040 A 
ATOM      8  C   UNL     1      -3.989   0.249  25.368  0.00  0.00    +0.040 A 
BRANCH   3   2
ATOM      1  C   UNL     1      -5.628   1.455  25.041  0.00  0.00    +0.252 C 
ATOM      2  O   UNL     1      -4.812   1.346  24.970  0.00  0.00    -0.471 OA
ENDBRANCH   3   2
ENDBRANCH   9   7
ENDBRANCH  14  13
BRANCH  18  22
ATOM     22  N   UNL     1      -0.023   0.296  23.280  0.00  0.00    -0.184 NA
ATOM     23  C   UNL     1       0.796   0.209  23.244  0.00  0.00    +0.344 C 
ATOM     24  O   UNL     1       1.174  -0.345  23.725  0.00  0.00    -0.249 OA
ATOM     25  N   UNL     1       1.238   0.674  22.726  0.00  0.00    -0.161 NA
BRANCH  25  26
ATOM     26  C   UNL     1       2.058   0.587  22.689  0.00  0.00    +0.075 A 
ATOM     27  C   UNL     1       2.387  -0.065  22.308  0.00  0.00    +0.020 A 
ATOM     28  C   UNL     1       3.206  -0.153  22.271  0.00  0.00    +0.039 A 
ATOM     29  C   UNL     1       3.697   0.414  22.616  0.00  0.00    +0.145 A 
ATOM     37  C   UNL     1       3.368   1.068  22.998  0.00  0.00    +0.039 A 
ATOM     38  C   UNL     1       2.548   1.154  23.034  0.00  0.00    +0.020 A 
BRANCH  29  30
ATOM     30  O   UNL     1       4.516   0.328  22.580  0.00  0.00    -0.453 OA
BRANCH  30  31
ATOM     31  C   UNL     1       4.932   0.063  23.242  0.00  0.00    +0.145 A 
ATOM     32  C   UNL     1       4.929  -0.738  23.438  0.00  0.00    +0.037 A 
ATOM     33  C   UNL     1       5.346  -1.003  24.099  0.00  0.00    +0.003 A 
ATOM     34  C   UNL     1       5.765  -0.466  24.564  0.00  0.00    +0.000 A 
ATOM     35  C   UNL     1       5.768   0.336  24.368  0.00  0.00    +0.003 A 
ATOM     36  C   UNL     1       5.352   0.600  23.707  0.00  0.00    +0.037 A 
ENDBRANCH  30  31
ENDBRANCH  29  30
ENDBRANCH  25  26
ENDBRANCH  18  22
TORSDOF 7
ENDMDL
MODEL 7
REMARK VINA RESULT:      -8.8      3.202      5.507
REMARK  Name = 
REMARK  7 active torsions:
REMARK  status: ('A' for Active; 'I' for Inactive)
REMARK    1  A    between atoms: O_2  and  C_3
REMARK    2  A    between atoms: C_7  and  C_9
REMARK    3  A    between atoms: N_13  and  C_14
REMARK    4  A    between atoms: C_18  and  N_22
REMARK    5  A    between atoms: N_25  and  C_26
REMARK    6  A    between atoms: C_29  and  O_30
REMARK    7  A    between atoms: O_30  and  C_31
REMARK                            x       y       z     vdW  Elec       q    Type
REMARK                         _______ _______ _______ _____ _____    ______ ____
ROOT
ATOM     14  C   UNL     1      -3.058   1.041  24.790  0.00  0.00    +0.167 C 
ATOM     15  C   UNL     1      -2.691   1.084  25.527  0.00  0.00    +0.169 C 
ATOM     16  O   UNL     1      -1.910   1.321  25.408  0.00  0.00    -0.350 OA
ATOM     17  C   UNL     1      -1.794   1.424  24.599  0.00  0.00    +0.167 C 
ATOM     18  C   UNL     1      -1.241   1.635  24.024  0.00  0.00    +0.156 C 
ATOM     19  C   UNL     1      -1.609   1.592  23.287  0.00  0.00    +0.166 C 
ATOM     20  O   UNL     1      -2.390   1.355  23.406  0.00  0.00    -0.350 OA
ATOM     21  C   UNL     1      -2.505   1.252  24.216  0.00  0.00    +0.169 C 
ENDROOT
BRANCH  14  13
ATOM      9  C   UNL     1      -4.164   0.073  24.754  0.00  0.00    +0.184 A 
ATOM     10  N   UNL     1      -4.964   0.107  24.552  0.00  0.00    -0.108 NA
ATOM     11  N   UNL     1      -5.136   0.882  24.324  0.00  0.00    -0.023 NA
ATOM     12  N   UNL     1      -4.444   1.326  24.385  0.00  0.00    -0.043 NA
ATOM     13  N   UNL     1      -3.843   0.826  24.651  0.00  0.00    -0.210 N 
BRANCH   9   7
ATOM      3  C   UNL     1      -3.007  -1.776  24.726  0.00  0.00    +0.139 A 
ATOM      4  C   UNL     1      -2.946  -1.935  25.533  0.00  0.00    +0.037 A 
ATOM      5  C   UNL     1      -3.291  -1.424  26.081  0.00  0.00    +0.003 A 
ATOM      6  C   UNL     1      -3.698  -0.754  25.822  0.00  0.00    +0.003 A 
ATOM      7  C   UNL     1      -3.758  -0.596  25.014  0.00  0.00    +0.040 A 
ATOM      8  C   UNL     1      -3.413  -1.107  24.466  0.00  0.00    +0.040 A 
BRANCH   3   2
ATOM      1  C   UNL     1      -1.873  -2.515  24.266  0.00  0.00    +0.252 C 
ATOM      2  O   UNL     1      -2.662  -2.287  24.178  0.00  0.00    -0.471 OA
ENDBRANCH   3   2
ENDBRANCH   9   7
ENDBRANCH  14  13
BRANCH  18  22
ATOM     22  N   UNL     1      -0.457   1.850  24.162  0.00  0.00    -0.184 NA
ATOM     23  C   UNL     1       0.157   1.417  23.820  0.00  0.00    +0.344 C 
ATOM     24  O   UNL     1      -0.014   0.769  23.340  0.00  0.00    -0.249 OA
ATOM     25  N   UNL     1       0.941   1.632  23.959  0.00  0.00    -0.161 NA
BRANCH  25  26
ATOM     26  C   UNL     1       1.554   1.199  23.617  0.00  0.00    +0.075 A 
ATOM     27  C   UNL     1       1.517   0.376  23.596  0.00  0.00    +0.020 A 
ATOM     28  C   UNL     1       2.130  -0.056  23.255  0.00  0.00    +0.039 A 
ATOM     29  C   UNL     1       2.782   0.335  22.933  0.00  0.00    +0.145 A 
ATOM     37  C   UNL     1       2.819   1.159  22.953  0.00  0.00    +0.039 A 
ATOM     38  C   UNL     1       2.205   1.591  23.295  0.00  0.00    +0.020 A 
BRANCH  29  30
ATOM     30  O   UNL     1       3.395  -0.097  22.591  0.00  0.00    -0.453 OA
BRANCH  30  31
ATOM     31  C   UNL     1       4.102  -0.206  23.003  0.00  0.00    +0.145 A 
ATOM     32  C   UNL     1       4.204  -0.871  23.479  0.00  0.00    +0.037 A 
ATOM     33  C   UNL     1       4.911  -0.980  23.891  0.00  0.00    +0.003 A 
ATOM     34  C   UNL     1       5.516  -0.422  23.826  0.00  0.00    +0.000 A 
ATOM     35  C   UNL     1       5.414   0.243  23.350  0.00  0.00    +0.003 A 
ATOM     36  C   UNL     1       4.707   0.352  22.939  0.00  0.00    +0.037 A 
ENDBRANCH  30  31
ENDBRANCH  29  30
ENDBRANCH  25  26
ENDBRANCH  18  22
TORSDOF 7
ENDMDL
MODEL 8
REMARK VINA RESULT:      -8.7      1.784      5.712
REMARK  Name = 
REMARK  7 active torsions:
REMARK  status: ('A' for Active; 'I' for Inactive)
REMARK    1  A    between atoms: O_2  and  C_3
REMARK    2  A    between atoms: C_7  and  C_9
REMARK    3  A    between atoms: N_13  and  C_14
REMARK    4  A    between atoms: C_18  and  N_22
REMARK    5  A    between atoms: N_25  and  C_26
REMARK    6  A    between atoms: C_29  and  O_30
REMARK    7  A    between atoms: O_30  and  C_31
REMARK                            x       y       z     vdW  Elec       q    Type
REMARK                         _______ _______ _______ _____ _____    ______ ____
ROOT
ATOM     14  C   UNL     1      -1.618  -1.937  24.669  0.00  0.00    +0.167 C 
ATOM     15  C   UNL     1      -1.373  -1.756  25.436  0.00  0.00    +0.169 C 
ATOM     16  O   UNL     1      -0.823  -1.143  25.388  0.00  0.00    -0.350 OA
ATOM     17  C   UNL     1      -0.729  -0.946  24.594  0.00  0.00    +0.167 C 
ATOM     18  C   UNL     1      -0.331  -0.445  24.072  0.00  0.00    +0.156 C 
ATOM     19  C   UNL     1      -0.577  -0.626  23.306  0.00  0.00    +0.166 C 
ATOM     20  O   UNL     1      -1.127  -1.239  23.353  0.00  0.00    -0.350 OA
ATOM     21  C   UNL     1      -1.221  -1.437  24.149  0.00  0.00    +0.169 C 
ENDROOT
BRANCH  14  13
ATOM      9  C   UNL     1      -2.983  -2.472  24.563  0.00  0.00    +0.184 A 
ATOM     10  N   UNL     1      -3.316  -3.172  24.278  0.00  0.00    -0.108 NA
ATOM     11  N   UNL     1      -2.703  -3.650  24.000  0.00  0.00    -0.023 NA
ATOM     12  N   UNL     1      -1.993  -3.246  24.112  0.00  0.00    -0.043 NA
ATOM     13  N   UNL     1      -2.166  -2.518  24.460  0.00  0.00    -0.210 N 
BRANCH   9   7
ATOM      3  C   UNL     1      -4.145  -0.633  24.732  0.00  0.00    +0.139 A 
ATOM      4  C   UNL     1      -4.222  -0.572  25.550  0.00  0.00    +0.037 A 
ATOM      5  C   UNL     1      -3.887  -1.144  26.041  0.00  0.00    +0.003 A 
ATOM      6  C   UNL     1      -3.474  -1.778  25.711  0.00  0.00    +0.003 A 
ATOM      7  C   UNL     1      -3.397  -1.839  24.892  0.00  0.00    +0.040 A 
ATOM      8  C   UNL     1      -3.732  -1.267  24.402  0.00  0.00    +0.040 A 
BRANCH   3   2
ATOM      1  C   UNL     1      -4.308   0.738  24.362  0.00  0.00    +0.252 C 
ATOM      2  O   UNL     1      -4.480  -0.061  24.242  0.00  0.00    -0.471 OA
ENDBRANCH   3   2
ENDBRANCH   9   7
ENDBRANCH  14  13
BRANCH  18  22
ATOM     22  N   UNL     1       0.217   0.136  24.281  0.00  0.00    -0.184 NA
ATOM     23  C   UNL     1      -0.037   0.903  24.448  0.00  0.00    +0.344 C 
ATOM     24  O   UNL     1      -0.840   1.089  24.406  0.00  0.00    -0.249 OA
ATOM     25  N   UNL     1       0.510   1.483  24.657  0.00  0.00    -0.161 NA
BRANCH  25  26
ATOM     26  C   UNL     1       0.255   2.250  24.824  0.00  0.00    +0.075 A 
ATOM     27  C   UNL     1       0.126   2.785  24.210  0.00  0.00    +0.020 A 
ATOM     28  C   UNL     1      -0.128   3.551  24.377  0.00  0.00    +0.039 A 
ATOM     29  C   UNL     1      -0.253   3.783  25.160  0.00  0.00    +0.145 A 
ATOM     37  C   UNL     1      -0.124   3.248  25.774  0.00  0.00    +0.039 A 
ATOM     38  C   UNL     1       0.130   2.481  25.606  0.00  0.00    +0.020 A 
BRANCH  29  30
ATOM     30  O   UNL     1      -0.507   4.549  25.327  0.00  0.00    -0.453 OA
BRANCH  30  31
ATOM     31  C   UNL     1      -1.314   4.726  25.322  0.00  0.00    +0.145 A 
ATOM     32  C   UNL     1      -1.597   5.343  24.854  0.00  0.00    +0.037 A 
ATOM     33  C   UNL     1      -2.403   5.520  24.849  0.00  0.00    +0.003 A 
ATOM     34  C   UNL     1      -2.925   5.080  25.313  0.00  0.00    +0.000 A 
ATOM     35  C   UNL     1      -2.641   4.463  25.781  0.00  0.00    +0.003 A 
ATOM     36  C   UNL     1      -1.836   4.286  25.786  0.00  0.00    +0.037 A 
ENDBRANCH  30  31
ENDBRANCH  29  30
ENDBRANCH  25  26
ENDBRANCH  18  22
TORSDOF 7
ENDMDL
