MODEL 1
REMARK VINA RESULT:     -12.7      0.000      0.000
REMARK  Name = 
REMARK  6 active torsions:
REMARK  status: ('A' for Active; 'I' for Inactive)
REMARK    1  A    between atoms: N_4  and  C_5
REMARK    2  A    between atoms: C_8  and  C_9
REMARK    3  A    between atoms: C_9  and  N_10
REMARK    4  A    between atoms: C_14  and  C_15
REMARK    5  A    between atoms: C_17  and  C_20
REMARK    6  A    between atoms: C_24  and  N_26
REMARK                            x       y       z     vdW  Elec       q    Type
REMARK                         _______ _______ _______ _____ _____    ______ ____
ROOT
ATOM     15  C   UNL     1      -4.430   2.902  24.933  0.00  0.00    +0.251 A 
ATOM     16  N   UNL     1      -3.665   2.975  25.233  0.00  0.00    -0.190 NA
ATOM     17  C   UNL     1      -3.309   3.624  24.871  0.00  0.00    +0.203 A 
ATOM     18  N   UNL     1      -3.853   3.954  24.347  0.00  0.00    -0.056 NA
ATOM     19  O   UNL     1      -4.547   3.508  24.385  0.00  0.00    -0.336 OA
ENDROOT
BRANCH  17  20
ATOM     20  C   UNL     1      -2.542   3.896  25.008  0.00  0.00    +0.043 A 
ATOM     21  C   UNL     1      -2.403   4.704  25.105  0.00  0.00    +0.024 A 
ATOM     22  C   UNL     1      -1.637   4.977  25.242  0.00  0.00    +0.100 A 
ATOM     23  N   UNL     1      -1.010   4.443  25.283  0.00  0.00    -0.229 NA
ATOM     24  C   UNL     1      -1.148   3.635  25.186  0.00  0.00    +0.132 A 
ATOM     25  C   UNL     1      -1.915   3.362  25.049  0.00  0.00    +0.037 A 
BRANCH  24  26
ATOM     26  N   UNL     1      -0.521   3.101  25.227  0.00  0.00    -0.288 N 
ATOM     27  C   UNL     1      -0.232   2.860  25.960  0.00  0.00    +0.124 C 
ATOM     28  C   UNL     1       0.396   2.326  26.001  0.00  0.00    +0.164 C 
ATOM     29  O   UNL     1       0.734   2.033  25.308  0.00  0.00    -0.350 OA
ATOM     30  C   UNL     1       0.445   2.275  24.574  0.00  0.00    +0.164 C 
ATOM     31  C   UNL     1      -0.183   2.809  24.533  0.00  0.00    +0.124 C 
ENDBRANCH  24  26
ENDBRANCH  17  20
BRANCH  15  14
ATOM     10  N   UNL     1      -4.929   1.520  24.980  0.00  0.00    -0.263 NA
ATOM     11  C   UNL     1      -5.599   1.153  25.290  0.00  0.00    +0.073 C 
ATOM     12  C   UNL     1      -6.067   1.732  25.645  0.00  0.00    +0.019 C 
ATOM     13  C   UNL     1      -5.686   2.458  25.554  0.00  0.00    +0.027 C 
ATOM     14  C   UNL     1      -4.982   2.328  25.143  0.00  0.00    +0.138 C 
BRANCH  10   9
ATOM      9  C   UNL     1      -4.314   1.147  24.578  0.00  0.00    +0.099 C 
BRANCH   9   8
ATOM      5  C   UNL     1      -4.002  -1.299  24.785  0.00  0.00    +0.073 A 
ATOM      6  C   UNL     1      -4.350  -0.984  24.107  0.00  0.00    +0.016 A 
ATOM      7  C   UNL     1      -4.455  -0.168  24.038  0.00  0.00    -0.002 A 
ATOM      8  C   UNL     1      -4.210   0.332  24.647  0.00  0.00    -0.006 A 
ATOM     32  C   UNL     1      -3.861   0.016  25.325  0.00  0.00    -0.002 A 
ATOM     33  C   UNL     1      -3.757  -0.799  25.393  0.00  0.00    +0.016 A 
BRANCH   5   4
ATOM      1  C   UNL     1      -3.094  -3.280  24.656  0.00  0.00    +0.097 C 
ATOM      2  C   UNL     1      -3.198  -2.465  24.588  0.00  0.00    +0.246 C 
ATOM      3  O   UNL     1      -2.604  -1.999  24.255  0.00  0.00    -0.273 OA
ATOM      4  N   UNL     1      -3.898  -2.115  24.853  0.00  0.00    -0.179 NA
ENDBRANCH   5   4
ENDBRANCH   9   8
ENDBRANCH  10   9
ENDBRANCH  15  14
TORSDOF 6
ENDMDL
MODEL 2
REMARK VINA RESULT:     -11.9      1.518      3.791
REMARK  Name = 
REMARK  6 active torsions:
REMARK  status: ('A' for Active; 'I' for Inactive)
REMARK    1  A    between atoms: N_4  and  C_5
REMARK    2  A    between atoms: C_8  and  C_9
REMARK    3  A    between atoms: C_9  and  N_10
REMARK    4  A    between atoms: C_14  and  C_15
REMARK    5  A    between atoms: C_17  and  C_20
REMARK    6  A    between atoms: C_24  and  N_26
REMARK                            x       y       z     vdW  Elec       q    Type
REMARK                         _______ _______ _______ _____ _____    ______ ____
ROOT
ATOM     15  C   UNL     1       0.003   1.765  24.626  0.00  0.00    +0.251 A 
ATOM     16  N   UNL     1      -0.612   2.291  24.466  0.00  0.00    -0.190 NA
ATOM     17  C   UNL     1      -0.603   2.878  25.045  0.00  0.00    +0.203 A 
ATOM     18  N   UNL     1       0.018   2.715  25.564  0.00  0.00    -0.056 NA
ATOM     19  O   UNL     1       0.392   2.027  25.305  0.00  0.00    -0.336 OA
ENDROOT
BRANCH  17  20
ATOM     20  C   UNL     1      -1.123   3.517  25.097  0.00  0.00    +0.043 A 
ATOM     21  C   UNL     1      -0.829   4.287  25.112  0.00  0.00    +0.024 A 
ATOM     22  C   UNL     1      -1.347   4.926  25.164  0.00  0.00    +0.100 A 
ATOM     23  N   UNL     1      -2.161   4.795  25.201  0.00  0.00    -0.229 NA
ATOM     24  C   UNL     1      -2.456   4.025  25.186  0.00  0.00    +0.132 A 
ATOM     25  C   UNL     1      -1.937   3.385  25.134  0.00  0.00    +0.037 A 
BRANCH  24  26
ATOM     26  N   UNL     1      -3.270   3.893  25.223  0.00  0.00    -0.288 N 
ATOM     27  C   UNL     1      -3.643   3.826  25.955  0.00  0.00    +0.124 C 
ATOM     28  C   UNL     1      -4.457   3.695  25.992  0.00  0.00    +0.164 C 
ATOM     29  O   UNL     1      -4.897   3.631  25.297  0.00  0.00    -0.350 OA
ATOM     30  C   UNL     1      -4.522   3.698  24.565  0.00  0.00    +0.164 C 
ATOM     31  C   UNL     1      -3.709   3.829  24.528  0.00  0.00    +0.124 C 
ENDBRANCH  24  26
ENDBRANCH  17  20
BRANCH  15  14
ATOM     10  N   UNL     1      -0.101   0.333  24.306  0.00  0.00    -0.263 NA
ATOM     11  C   UNL     1       0.239  -0.164  23.743  0.00  0.00    +0.073 C 
ATOM     12  C   UNL     1       0.746   0.290  23.275  0.00  0.00    +0.019 C 
ATOM     13  C   UNL     1       0.719   1.067  23.549  0.00  0.00    +0.027 C 
ATOM     14  C   UNL     1       0.195   1.095  24.187  0.00  0.00    +0.138 C 
BRANCH  10   9
ATOM      9  C   UNL     1      -0.641   0.110  24.887  0.00  0.00    +0.099 C 
BRANCH   9   8
ATOM      5  C   UNL     1      -2.123  -1.838  24.516  0.00  0.00    +0.073 A 
ATOM      6  C   UNL     1      -1.390  -1.940  24.881  0.00  0.00    +0.016 A 
ATOM      7  C   UNL     1      -0.896  -1.291  25.004  0.00  0.00    -0.002 A 
ATOM      8  C   UNL     1      -1.135  -0.539  24.763  0.00  0.00    -0.006 A 
ATOM     32  C   UNL     1      -1.868  -0.437  24.398  0.00  0.00    -0.002 A 
ATOM     33  C   UNL     1      -2.361  -1.087  24.275  0.00  0.00    +0.016 A 
BRANCH   5   4
ATOM      1  C   UNL     1      -3.789  -3.232  24.729  0.00  0.00    +0.097 C 
ATOM      2  C   UNL     1      -3.296  -2.583  24.852  0.00  0.00    +0.246 C 
ATOM      3  O   UNL     1      -3.481  -2.027  25.434  0.00  0.00    -0.273 OA
ATOM      4  N   UNL     1      -2.616  -2.488  24.393  0.00  0.00    -0.179 NA
ENDBRANCH   5   4
ENDBRANCH   9   8
ENDBRANCH  10   9
ENDBRANCH  15  14
TORSDOF 6
ENDMDL
MODEL 3
REMARK VINA RESULT:     -11.5      1.621      4.759
REMARK  Name = 
REMARK  6 active torsions:
REMARK  status: ('A' for Active; 'I' for Inactive)
REMARK    1  A    between atoms: N_4  and  C_5
REMARK    2  A    between atoms: C_8  and  C_9
REMARK    3  A    between atoms: C_9  and  N_10
REMARK    4  A    between atoms: C_14  and  C_15
REMARK    5  A    between atoms: C_17  and  C_20
REMARK    6  A    between atoms: C_24  and  N_26
REMARK                            x       y       z     vdW  Elec       q    Type
REMARK                         _______ _______ _______ _____ _____    ______ ____
ROOT
ATOM     15  C   UNL     1      -4.801   0.670  24.852  0.00  0.00    +0.251 A 
ATOM     16  N   UNL     1      -4.207   0.171  25.132  0.00  0.00    -0.190 NA
ATOM     17  C   UNL     1      -4.164  -0.482  24.631  0.00  0.00    +0.203 A 
ATOM     18  N   UNL     1      -4.733  -0.388  24.040  0.00  0.00    -0.056 NA
ATOM     19  O   UNL     1      -5.126   0.324  24.177  0.00  0.00    -0.336 OA
ENDROOT
BRANCH  17  20
ATOM     20  C   UNL     1      -3.645  -1.119  24.706  0.00  0.00    +0.043 A 
ATOM     21  C   UNL     1      -3.941  -1.886  24.777  0.00  0.00    +0.024 A 
ATOM     22  C   UNL     1      -3.424  -2.523  24.852  0.00  0.00    +0.100 A 
ATOM     23  N   UNL     1      -2.609  -2.394  24.857  0.00  0.00    -0.229 NA
ATOM     24  C   UNL     1      -2.312  -1.628  24.786  0.00  0.00    +0.132 A 
ATOM     25  C   UNL     1      -2.831  -0.990  24.711  0.00  0.00    +0.037 A 
BRANCH  24  26
ATOM     26  N   UNL     1      -1.497  -1.499  24.790  0.00  0.00    -0.288 N 
ATOM     27  C   UNL     1      -1.154  -1.016  24.217  0.00  0.00    +0.124 C 
ATOM     28  C   UNL     1      -0.339  -0.887  24.222  0.00  0.00    +0.164 C 
ATOM     29  O   UNL     1       0.132  -1.241  24.799  0.00  0.00    -0.350 OA
ATOM     30  C   UNL     1      -0.212  -1.724  25.373  0.00  0.00    +0.164 C 
ATOM     31  C   UNL     1      -1.027  -1.853  25.368  0.00  0.00    +0.124 C 
ENDBRANCH  24  26
ENDBRANCH  17  20
BRANCH  15  14
ATOM     10  N   UNL     1      -4.673   2.120  25.058  0.00  0.00    -0.263 NA
ATOM     11  C   UNL     1      -5.080   2.684  25.501  0.00  0.00    +0.073 C 
ATOM     12  C   UNL     1      -5.690   2.300  25.904  0.00  0.00    +0.019 C 
ATOM     13  C   UNL     1      -5.659   1.499  25.709  0.00  0.00    +0.027 C 
ATOM     14  C   UNL     1      -5.031   1.388  25.186  0.00  0.00    +0.138 C 
BRANCH  10   9
ATOM      9  C   UNL     1      -4.023   2.263  24.572  0.00  0.00    +0.099 C 
BRANCH   9   8
ATOM      5  C   UNL     1      -2.511   4.163  25.050  0.00  0.00    +0.073 A 
ATOM      6  C   UNL     1      -3.113   4.245  24.492  0.00  0.00    +0.016 A 
ATOM      7  C   UNL     1      -3.617   3.612  24.332  0.00  0.00    -0.002 A 
ATOM      8  C   UNL     1      -3.519   2.896  24.731  0.00  0.00    -0.006 A 
ATOM     32  C   UNL     1      -2.917   2.814  25.290  0.00  0.00    -0.002 A 
ATOM     33  C   UNL     1      -2.413   3.448  25.449  0.00  0.00    +0.016 A 
BRANCH   5   4
ATOM      1  C   UNL     1      -0.730   5.425  25.079  0.00  0.00    +0.097 C 
ATOM      2  C   UNL     1      -1.234   4.792  24.920  0.00  0.00    +0.246 C 
ATOM      3  O   UNL     1      -0.965   4.152  24.473  0.00  0.00    -0.273 OA
ATOM      4  N   UNL     1      -2.008   4.797  25.209  0.00  0.00    -0.179 NA
ENDBRANCH   5   4
ENDBRANCH   9   8
ENDBRANCH  10   9
ENDBRANCH  15  14
TORSDOF 6
ENDMDL
MODEL 4
REMARK VINA RESULT:     -11.0      1.648      4.545
REMARK  Name = 
REMARK  6 active torsions:
REMARK  status: ('A' for Active; 'I' for Inactive)
REMARK    1  A    between atoms: N_4  and  C_5
REMARK    2  A    between atoms: C_8  and  C_9
REMARK    3  A    between atoms: C_9  and  N_10
REMARK    4  A    between atoms: C_14  and  C_15
REMARK    5  A    between atoms: C_17  and  C_20
REMARK    6  A    between atoms: C_24  and  N_26
REMARK                            x       y       z     vdW  Elec       q    Type
REMARK                         _______ _______ _______ _____ _____    ______ ____
ROOT
ATOM     15  C   UNL     1      -0.518   3.216  25.131  0.00  0.00    +0.251 A 
ATOM     16  N   UNL     1      -0.609   2.584  24.608  0.00  0.00    -0.190 NA
ATOM     17  C   UNL     1      -0.062   2.002  24.812  0.00  0.00    +0.203 A 
ATOM     18  N   UNL     1       0.369   2.274  25.461  0.00  0.00    -0.056 NA
ATOM     19  O   UNL     1       0.087   3.024  25.658  0.00  0.00    -0.336 OA
ENDROOT
BRANCH  17  20
ATOM     20  C   UNL     1       0.039   1.276  24.433  0.00  0.00    +0.043 A 
ATOM     21  C   UNL     1       0.586   1.204  23.819  0.00  0.00    +0.024 A 
ATOM     22  C   UNL     1       0.687   0.479  23.441  0.00  0.00    +0.100 A 
ATOM     23  N   UNL     1       0.243  -0.175  23.676  0.00  0.00    -0.229 NA
ATOM     24  C   UNL     1      -0.303  -0.104  24.290  0.00  0.00    +0.132 A 
ATOM     25  C   UNL     1      -0.405   0.622  24.669  0.00  0.00    +0.037 A 
BRANCH  24  26
ATOM     26  N   UNL     1      -0.748  -0.758  24.525  0.00  0.00    -0.288 N 
ATOM     27  C   UNL     1      -0.398  -1.353  24.975  0.00  0.00    +0.124 C 
ATOM     28  C   UNL     1      -0.842  -2.007  25.211  0.00  0.00    +0.164 C 
ATOM     29  O   UNL     1      -1.637  -2.065  24.996  0.00  0.00    -0.350 OA
ATOM     30  C   UNL     1      -1.987  -1.469  24.546  0.00  0.00    +0.164 C 
ATOM     31  C   UNL     1      -1.542  -0.815  24.310  0.00  0.00    +0.124 C 
ENDBRANCH  24  26
ENDBRANCH  17  20
BRANCH  15  14
ATOM     10  N   UNL     1      -1.705   4.021  25.453  0.00  0.00    -0.263 NA
ATOM     11  C   UNL     1      -1.930   4.804  25.324  0.00  0.00    +0.073 C 
ATOM     12  C   UNL     1      -1.318   5.183  24.921  0.00  0.00    +0.019 C 
ATOM     13  C   UNL     1      -0.715   4.633  24.799  0.00  0.00    +0.027 C 
ATOM     14  C   UNL     1      -0.954   3.915  25.128  0.00  0.00    +0.138 C 
BRANCH  10   9
ATOM      9  C   UNL     1      -2.152   3.445  25.837  0.00  0.00    +0.099 C 
BRANCH   9   8
ATOM      5  C   UNL     1      -4.565   3.212  25.340  0.00  0.00    +0.073 A 
ATOM      6  C   UNL     1      -4.319   3.648  25.995  0.00  0.00    +0.016 A 
ATOM      7  C   UNL     1      -3.515   3.726  26.162  0.00  0.00    -0.002 A 
ATOM      8  C   UNL     1      -2.956   3.367  25.671  0.00  0.00    -0.006 A 
ATOM     32  C   UNL     1      -3.202   2.931  25.016  0.00  0.00    -0.002 A 
ATOM     33  C   UNL     1      -4.007   2.853  24.851  0.00  0.00    +0.016 A 
BRANCH   5   4
ATOM      1  C   UNL     1      -6.563   2.348  25.178  0.00  0.00    +0.097 C 
ATOM      2  C   UNL     1      -5.759   2.425  25.342  0.00  0.00    +0.246 C 
ATOM      3  O   UNL     1      -5.342   1.795  25.674  0.00  0.00    -0.273 OA
ATOM      4  N   UNL     1      -5.370   3.135  25.175  0.00  0.00    -0.179 NA
ENDBRANCH   5   4
ENDBRANCH   9   8
ENDBRANCH  10   9
ENDBRANCH  15  14
TORSDOF 6
ENDMDL
MODEL 5
REMARK VINA RESULT:     -10.8      1.588      5.404
REMARK  Name = 
REMARK  6 active torsions:
REMARK  status: ('A' for Active; 'I' for Inactive)
REMARK    1  A    between atoms: N_4  and  C_5
REMARK    2  A    between atoms: C_8  and  C_9
REMARK    3  A    between atoms: C_9  and  N_10
REMARK    4  A    between atoms: C_14  and  C_15
REMARK    5  A    between atoms: C_17  and  C_20
REMARK    6  A    between atoms: C_24  and  N_26
REMARK                            x       y       z     vdW  Elec       q    Type
REMARK                         _______ _______ _______ _____ _____    ______ ____
ROOT
ATOM     15  C   UNL     1      -0.544   1.191  25.040  0.00  0.00    +0.251 A 
ATOM     16  N   UNL     1      -0.967   0.521  25.270  0.00  0.00    -0.190 NA
ATOM     17  C   UNL     1      -0.744  -0.102  24.779  0.00  0.00    +0.203 A 
ATOM     18  N   UNL     1      -0.182   0.181  24.245  0.00  0.00    -0.056 NA
ATOM     19  O   UNL     1      -0.059   0.981  24.407  0.00  0.00    -0.336 OA
ENDROOT
BRANCH  17  20
ATOM     20  C   UNL     1      -1.031  -0.875  24.815  0.00  0.00    +0.043 A 
ATOM     21  C   UNL     1      -0.539  -1.486  25.069  0.00  0.00    +0.024 A 
ATOM     22  C   UNL     1      -0.824  -2.259  25.105  0.00  0.00    +0.100 A 
ATOM     23  N   UNL     1      -1.603  -2.421  24.887  0.00  0.00    -0.229 NA
ATOM     24  C   UNL     1      -2.096  -1.811  24.632  0.00  0.00    +0.132 A 
ATOM     25  C   UNL     1      -1.810  -1.037  24.596  0.00  0.00    +0.037 A 
BRANCH  24  26
ATOM     26  N   UNL     1      -2.875  -1.973  24.414  0.00  0.00    -0.288 N 
ATOM     27  C   UNL     1      -3.129  -2.754  24.344  0.00  0.00    +0.124 C 
ATOM     28  C   UNL     1      -3.908  -2.916  24.125  0.00  0.00    +0.164 C 
ATOM     29  O   UNL     1      -4.432  -2.297  23.977  0.00  0.00    -0.350 OA
ATOM     30  C   UNL     1      -4.178  -1.515  24.047  0.00  0.00    +0.164 C 
ATOM     31  C   UNL     1      -3.399  -1.353  24.265  0.00  0.00    +0.124 C 
ENDBRANCH  24  26
ENDBRANCH  17  20
BRANCH  15  14
ATOM     10  N   UNL     1      -1.089   2.554  25.135  0.00  0.00    -0.263 NA
ATOM     11  C   UNL     1      -0.961   3.199  25.633  0.00  0.00    +0.073 C 
ATOM     12  C   UNL     1      -0.389   2.984  26.188  0.00  0.00    +0.019 C 
ATOM     13  C   UNL     1      -0.163   2.206  26.033  0.00  0.00    +0.027 C 
ATOM     14  C   UNL     1      -0.596   1.939  25.382  0.00  0.00    +0.138 C 
BRANCH  10   9
ATOM      9  C   UNL     1      -1.616   2.526  24.503  0.00  0.00    +0.099 C 
BRANCH   9   8
ATOM      5  C   UNL     1      -3.888   3.480  24.740  0.00  0.00    +0.073 A 
ATOM      6  C   UNL     1      -3.790   2.666  24.647  0.00  0.00    +0.016 A 
ATOM      7  C   UNL     1      -3.033   2.348  24.568  0.00  0.00    -0.002 A 
ATOM      8  C   UNL     1      -2.373   2.845  24.582  0.00  0.00    -0.006 A 
ATOM     32  C   UNL     1      -2.471   3.659  24.675  0.00  0.00    -0.002 A 
ATOM     33  C   UNL     1      -3.229   3.976  24.754  0.00  0.00    +0.016 A 
BRANCH   5   4
ATOM      1  C   UNL     1      -5.819   4.015  25.605  0.00  0.00    +0.097 C 
ATOM      2  C   UNL     1      -5.062   3.698  25.526  0.00  0.00    +0.246 C 
ATOM      3  O   UNL     1      -4.720   3.282  26.151  0.00  0.00    -0.273 OA
ATOM      4  N   UNL     1      -4.645   3.797  24.820  0.00  0.00    -0.179 NA
ENDBRANCH   5   4
ENDBRANCH   9   8
ENDBRANCH  10   9
ENDBRANCH  15  14
TORSDOF 6
ENDMDL
