MODEL 1
REMARK VINA RESULT:     -12.6      0.000      0.000
REMARK  Name = 
REMARK  6 active torsions:
REMARK  status: ('A' for Active; 'I' for Inactive)
REMARK    1  A    between atoms: C_2  and  C_4
REMARK    2  A    between atoms: C_4  and  N_5
REMARK    3  A    between atoms: C_6  and  C_12
REMARK    4  A    between atoms: C_12  and  C_14
REMARK    5  A    between atoms: C_17  and  N_18
REMARK    6  A    between atoms: C_19  and  C_21
REMARK                            x       y       z     vdW  Elec       q    Type
REMARK                         _______ _______ _______ _____ _____    ______ ____
ROOT
ATOM     14  C   UNL     1      -3.619   2.318  24.159  0.00  0.00    +0.010 A 
ATOM     15  C   UNL     1      -4.293   1.918  24.417  0.00  0.00    -0.000 A 
ATOM     16  C   UNL     1      -4.343   1.099  24.337  0.00  0.00    +0.016 A 
ATOM     17  C   UNL     1      -3.718   0.678  23.999  0.00  0.00    +0.074 A 
ATOM     27  C   UNL     1      -3.045   1.078  23.741  0.00  0.00    +0.016 A 
ATOM     28  C   UNL     1      -2.994   1.897  23.820  0.00  0.00    -0.000 A 
ENDROOT
BRANCH  17  18
ATOM     18  N   UNL     1      -3.768  -0.142  23.920  0.00  0.00    -0.175 NA
ATOM     19  C   UNL     1      -3.651  -0.628  24.575  0.00  0.00    +0.269 C 
ATOM     20  O   UNL     1      -3.484  -0.294  25.312  0.00  0.00    -0.268 OA
BRANCH  19  21
ATOM     21  C   UNL     1      -3.702  -1.448  24.495  0.00  0.00    +0.055 A 
ATOM     22  C   UNL     1      -4.187  -1.777  23.917  0.00  0.00    +0.005 A 
ATOM     23  C   UNL     1      -4.238  -2.597  23.837  0.00  0.00    +0.000 A 
ATOM     24  C   UNL     1      -3.802  -3.087  24.338  0.00  0.00    +0.000 A 
ATOM     25  C   UNL     1      -3.315  -2.757  24.917  0.00  0.00    +0.000 A 
ATOM     26  C   UNL     1      -3.266  -1.938  24.996  0.00  0.00    +0.005 A 
ENDBRANCH  19  21
ENDBRANCH  17  18
BRANCH  14  12
ATOM     12  C   UNL     1      -3.570   3.137  24.238  0.00  0.00    +0.195 C 
ATOM     13  O   UNL     1      -3.541   3.616  23.567  0.00  0.00    -0.216 OA
BRANCH  12   6
ATOM      5  N   UNL     1      -2.876   3.887  25.237  0.00  0.00    -0.274 N 
ATOM      6  C   UNL     1      -3.548   3.479  24.989  0.00  0.00    +0.139 C 
ATOM      7  C   UNL     1      -4.200   3.412  25.492  0.00  0.00    +0.165 C 
ATOM      8  O   UNL     1      -4.179   3.753  26.242  0.00  0.00    -0.343 OA
ATOM      9  C   UNL     1      -3.507   4.162  26.491  0.00  0.00    +0.227 C 
ATOM     10  C   UNL     1      -2.855   4.229  25.988  0.00  0.00    +0.256 C 
ATOM     11  O   UNL     1      -2.183   4.637  26.237  0.00  0.00    -0.272 OA
BRANCH   5   4
ATOM      4  C   UNL     1      -2.225   3.954  24.735  0.00  0.00    +0.094 C 
BRANCH   4   2
ATOM      1  C   UNL     1      -0.952   3.788  25.362  0.00  0.00    +0.002 C 
ATOM      2  C   UNL     1      -1.519   4.276  25.016  0.00  0.00    +0.020 C 
ATOM      3  C   UNL     1      -1.380   5.087  24.950  0.00  0.00    +0.002 C 
ENDBRANCH   4   2
ENDBRANCH   5   4
ENDBRANCH  12   6
ENDBRANCH  14  12
TORSDOF 6
ENDMDL
MODEL 2
REMARK VINA RESULT:     -11.3      1.704      5.898
REMARK  Name = 
REMARK  6 active torsions:
REMARK  status: ('A' for Active; 'I' for Inactive)
REMARK    1  A    between atoms: C_2  and  C_4
REMARK    2  A    between atoms: C_4  and  N_5
REMARK    3  A    between atoms: C_6  and  C_12
REMARK    4  A    between atoms: C_12  and  C_14
REMARK    5  A    between atoms: C_17  and  N_18
REMARK    6  A    between atoms: C_19  and  C_21
REMARK                            x       y       z     vdW  Elec       q    Type
REMARK                         _______ _______ _______ _____ _____    ______ ____
ROOT
ATOM     14  C   UNL     1      -1.992   0.235  25.395  0.00  0.00    +0.010 A 
ATOM     15  C   UNL     1      -2.545   0.683  24.979  0.00  0.00    -0.000 A 
ATOM     16  C   UNL     1      -2.386   1.471  24.797  0.00  0.00    +0.016 A 
ATOM     17  C   UNL     1      -1.671   1.813  25.031  0.00  0.00    +0.074 A 
ATOM     27  C   UNL     1      -1.117   1.365  25.447  0.00  0.00    +0.016 A 
ATOM     28  C   UNL     1      -1.277   0.576  25.629  0.00  0.00    -0.000 A 
ENDROOT
BRANCH  17  18
ATOM     18  N   UNL     1      -1.511   2.601  24.848  0.00  0.00    -0.175 NA
ATOM     19  C   UNL     1      -1.597   3.184  25.425  0.00  0.00    +0.269 C 
ATOM     20  O   UNL     1      -1.843   2.979  26.186  0.00  0.00    -0.268 OA
BRANCH  19  21
ATOM     21  C   UNL     1      -1.438   3.973  25.242  0.00  0.00    +0.055 A 
ATOM     22  C   UNL     1      -0.711   4.182  24.914  0.00  0.00    +0.005 A 
ATOM     23  C   UNL     1      -0.552   4.971  24.731  0.00  0.00    +0.000 A 
ATOM     24  C   UNL     1      -1.120   5.551  24.878  0.00  0.00    +0.000 A 
ATOM     25  C   UNL     1      -1.848   5.342  25.207  0.00  0.00    +0.000 A 
ATOM     26  C   UNL     1      -2.006   4.553  25.389  0.00  0.00    +0.005 A 
ENDBRANCH  19  21
ENDBRANCH  17  18
BRANCH  14  12
ATOM     12  C   UNL     1      -2.151  -0.553  25.578  0.00  0.00    +0.195 C 
ATOM     13  O   UNL     1      -2.653  -0.737  26.206  0.00  0.00    -0.216 OA
BRANCH  12   6
ATOM      5  N   UNL     1      -2.288  -1.722  24.768  0.00  0.00    -0.274 N 
ATOM      6  C   UNL     1      -1.810  -1.158  25.132  0.00  0.00    +0.139 C 
ATOM      7  C   UNL     1      -0.989  -1.197  25.050  0.00  0.00    +0.165 C 
ATOM      8  O   UNL     1      -0.648  -1.801  24.605  0.00  0.00    -0.343 OA
ATOM      9  C   UNL     1      -1.126  -2.367  24.240  0.00  0.00    +0.227 C 
ATOM     10  C   UNL     1      -1.947  -2.327  24.322  0.00  0.00    +0.256 C 
ATOM     11  O   UNL     1      -2.424  -2.892  23.958  0.00  0.00    -0.272 OA
BRANCH   5   4
ATOM      4  C   UNL     1      -3.108  -1.683  24.849  0.00  0.00    +0.094 C 
BRANCH   4   2
ATOM      1  C   UNL     1      -4.010  -2.236  23.889  0.00  0.00    +0.002 C 
ATOM      2  C   UNL     1      -3.579  -2.308  24.587  0.00  0.00    +0.020 C 
ATOM      3  C   UNL     1      -3.619  -3.006  25.026  0.00  0.00    +0.002 C 
ENDBRANCH   4   2
ENDBRANCH   5   4
ENDBRANCH  12   6
ENDBRANCH  14  12
TORSDOF 6
ENDMDL
MODEL 3
REMARK VINA RESULT:     -11.1      0.940      1.585
REMARK  Name = 
REMARK  6 active torsions:
REMARK  status: ('A' for Active; 'I' for Inactive)
REMARK    1  A    between atoms: C_2  and  C_4
REMARK    2  A    between atoms: C_4  and  N_5
REMARK    3  A    between atoms: C_6  and  C_12
REMARK    4  A    between atoms: C_12  and  C_14
REMARK    5  A    between atoms: C_17  and  N_18
REMARK    6  A    between atoms: C_19  and  C_21
REMARK                            x       y       z     vdW  Elec       q    Type
REMARK                         _______ _______ _______ _____ _____    ______ ____
ROOT
ATOM     14  C   UNL     1      -3.112   1.994  23.961  0.00  0.00    +0.010 A 
ATOM     15  C   UNL     1      -2.977   1.517  23.302  0.00  0.00    -0.000 A 
ATOM     16  C   UNL     1      -3.206   0.725  23.311  0.00  0.00    +0.016 A 
ATOM     17  C   UNL     1      -3.571   0.409  23.981  0.00  0.00    +0.074 A 
ATOM     27  C   UNL     1      -3.707   0.886  24.640  0.00  0.00    +0.016 A 
ATOM     28  C   UNL     1      -3.478   1.679  24.631  0.00  0.00    -0.000 A 
ENDROOT
BRANCH  17  18
ATOM     18  N   UNL     1      -3.801  -0.383  23.990  0.00  0.00    -0.175 NA
ATOM     19  C   UNL     1      -3.299  -0.955  24.308  0.00  0.00    +0.269 C 
ATOM     20  O   UNL     1      -2.566  -0.734  24.618  0.00  0.00    -0.268 OA
BRANCH  19  21
ATOM     21  C   UNL     1      -3.528  -1.747  24.317  0.00  0.00    +0.055 A 
ATOM     22  C   UNL     1      -4.143  -2.005  23.832  0.00  0.00    +0.005 A 
ATOM     23  C   UNL     1      -4.372  -2.798  23.841  0.00  0.00    +0.000 A 
ATOM     24  C   UNL     1      -3.986  -3.333  24.336  0.00  0.00    +0.000 A 
ATOM     25  C   UNL     1      -3.370  -3.075  24.823  0.00  0.00    +0.000 A 
ATOM     26  C   UNL     1      -3.142  -2.282  24.813  0.00  0.00    +0.005 A 
ENDBRANCH  19  21
ENDBRANCH  17  18
BRANCH  14  12
ATOM     12  C   UNL     1      -2.883   2.786  23.951  0.00  0.00    +0.195 C 
ATOM     13  O   UNL     1      -3.425   3.370  23.736  0.00  0.00    -0.216 OA
BRANCH  12   6
ATOM      5  N   UNL     1      -1.979   3.628  24.669  0.00  0.00    -0.274 N 
ATOM      6  C   UNL     1      -2.112   2.996  24.157  0.00  0.00    +0.139 C 
ATOM      7  C   UNL     1      -1.473   2.571  23.851  0.00  0.00    +0.165 C 
ATOM      8  O   UNL     1      -0.703   2.780  24.056  0.00  0.00    -0.343 OA
ATOM      9  C   UNL     1      -0.569   3.413  24.568  0.00  0.00    +0.227 C 
ATOM     10  C   UNL     1      -1.207   3.838  24.875  0.00  0.00    +0.256 C 
ATOM     11  O   UNL     1      -1.074   4.471  25.386  0.00  0.00    -0.272 OA
BRANCH   5   4
ATOM      4  C   UNL     1      -2.616   4.053  24.975  0.00  0.00    +0.094 C 
BRANCH   4   2
ATOM      1  C   UNL     1      -2.611   4.230  26.393  0.00  0.00    +0.002 C 
ATOM      2  C   UNL     1      -2.511   4.538  25.635  0.00  0.00    +0.020 C 
ATOM      3  C   UNL     1      -2.306   5.330  25.535  0.00  0.00    +0.002 C 
ENDBRANCH   4   2
ENDBRANCH   5   4
ENDBRANCH  12   6
ENDBRANCH  14  12
TORSDOF 6
ENDMDL
