MODEL 1
REMARK VINA RESULT:     -12.6      0.000      0.000
REMARK  Name = 
REMARK  7 active torsions:
REMARK  status: ('A' for Active; 'I' for Inactive)
REMARK    1  A    between atoms: O_2  and  C_3
REMARK    2  A    between atoms: C_6  and  C_7
REMARK    3  A    between atoms: C_7  and  N_8
REMARK    4  A    between atoms: C_9  and  C_11
REMARK    5  A    between atoms: C_11  and  C_12
REMARK    6  A    between atoms: C_17  and  C_19
REMARK    7  A    between atoms: C_30  and  C_32
REMARK                            x       y       z     vdW  Elec       q    Type
REMARK                         _______ _______ _______ _____ _____    ______ ____
ROOT
ATOM     12  C   UNL     1      -1.940   2.125  24.570  0.00  0.00    +0.050 C 
ATOM     13  C   UNL     1      -2.756   2.135  24.695  0.00  0.00    +0.063 A 
ATOM     14  C   UNL     1      -3.130   2.833  24.924  0.00  0.00    +0.023 A 
ATOM     15  C   UNL     1      -2.688   3.523  25.028  0.00  0.00    +0.034 C 
ATOM     16  C   UNL     1      -1.873   3.513  24.903  0.00  0.00    +0.010 C 
ATOM     17  C   UNL     1      -1.432   4.202  25.006  0.00  0.00    +0.059 C 
ATOM     18  C   UNL     1      -2.185   4.485  25.190  0.00  0.00    +0.005 C 
ATOM     21  C   UNL     1      -0.617   4.194  24.881  0.00  0.00    +0.154 C 
ATOM     22  O   UNL     1      -0.175   4.883  24.985  0.00  0.00    -0.223 OA
ATOM     23  C   UNL     1      -0.243   3.495  24.652  0.00  0.00    +0.033 C 
ATOM     24  C   UNL     1      -0.684   2.805  24.548  0.00  0.00    +0.003 C 
ATOM     25  C   UNL     1      -1.499   2.815  24.674  0.00  0.00    +0.006 C 
ATOM     26  C   UNL     1      -1.125   2.116  24.445  0.00  0.00    +0.000 C 
ATOM     27  S   UNL     1      -3.936   2.676  25.007  0.00  0.00    -0.054 S 
ATOM     28  C   UNL     1      -4.059   1.881  24.829  0.00  0.00    +0.185 A 
ATOM     29  N   UNL     1      -4.785   1.488  24.842  0.00  0.00    -0.150 NA
ATOM     30  C   UNL     1      -5.472   1.896  25.046  0.00  0.00    +0.277 C 
ATOM     31  O   UNL     1      -6.197   1.504  25.058  0.00  0.00    -0.267 OA
ATOM     37  N   UNL     1      -3.331   1.545  24.636  0.00  0.00    -0.227 NA
ENDROOT
BRANCH  30  32
ATOM     32  C   UNL     1      -5.432   2.697  25.238  0.00  0.00    +0.085 A 
ATOM     33  C   UNL     1      -5.451   3.325  24.702  0.00  0.00    +0.012 A 
ATOM     34  C   UNL     1      -5.398   4.028  25.131  0.00  0.00    +0.008 A 
ATOM     35  C   UNL     1      -5.346   3.835  25.932  0.00  0.00    +0.036 A 
ATOM     36  S   UNL     1      -5.368   3.013  25.997  0.00  0.00    -0.082 S 
ENDBRANCH  30  32
BRANCH  17  19
ATOM     19  C   UNL     1      -1.252   4.990  25.174  0.00  0.00    +0.184 C 
ATOM     20  O   UNL     1      -1.855   5.521  25.362  0.00  0.00    -0.220 OA
ENDBRANCH  17  19
BRANCH  12  11
ATOM     11  C   UNL     1      -1.566   1.427  24.341  0.00  0.00    +0.093 C 
BRANCH  11   9
ATOM      8  N   UNL     1      -1.737   0.038  24.628  0.00  0.00    -0.201 NA
ATOM      9  C   UNL     1      -1.514   0.795  24.868  0.00  0.00    +0.242 C 
ATOM     10  O   UNL     1      -1.239   0.920  25.636  0.00  0.00    -0.273 OA
BRANCH   8   7
ATOM      7  C   UNL     1      -1.685  -0.594  25.155  0.00  0.00    +0.141 C 
BRANCH   7   6
ATOM      3  C   UNL     1      -3.044  -2.630  24.785  0.00  0.00    +0.139 A 
ATOM      4  C   UNL     1      -2.353  -2.510  24.350  0.00  0.00    +0.037 A 
ATOM      5  C   UNL     1      -1.900  -1.831  24.474  0.00  0.00    +0.001 A 
ATOM      6  C   UNL     1      -2.137  -1.272  25.032  0.00  0.00    -0.000 A 
ATOM     38  C   UNL     1      -2.829  -1.392  25.468  0.00  0.00    +0.001 A 
ATOM     39  C   UNL     1      -3.281  -2.071  25.344  0.00  0.00    +0.037 A 
BRANCH   3   2
ATOM      1  C   UNL     1      -4.051  -3.329  24.051  0.00  0.00    +0.252 C 
ATOM      2  O   UNL     1      -3.497  -3.309  24.662  0.00  0.00    -0.471 OA
ENDBRANCH   3   2
ENDBRANCH   7   6
ENDBRANCH   8   7
ENDBRANCH  11   9
ENDBRANCH  12  11
TORSDOF 7
ENDMDL
MODEL 2
REMARK VINA RESULT:     -12.2      2.578      4.865
REMARK  Name = 
REMARK  7 active torsions:
REMARK  status: ('A' for Active; 'I' for Inactive)
REMARK    1  A    between atoms: O_2  and  C_3
REMARK    2  A    between atoms: C_6  and  C_7
REMARK    3  A    between atoms: C_7  and  N_8
REMARK    4  A    between atoms: C_9  and  C_11
REMARK    5  A    between atoms: C_11  and  C_12
REMARK    6  A    between atoms: C_17  and  C_19
REMARK    7  A    between atoms: C_30  and  C_32
REMARK                            x       y       z     vdW  Elec       q    Type
REMARK                         _______ _______ _______ _____ _____    ______ ____
ROOT
ATOM     12  C   UNL     1      -1.263  -0.036  24.510  0.00  0.00    +0.050 C 
ATOM     13  C   UNL     1      -1.639   0.699  24.533  0.00  0.00    +0.063 A 
ATOM     14  C   UNL     1      -2.459   0.740  24.615  0.00  0.00    +0.023 A 
ATOM     15  C   UNL     1      -2.903   0.047  24.674  0.00  0.00    +0.034 C 
ATOM     16  C   UNL     1      -2.528  -0.686  24.651  0.00  0.00    +0.010 C 
ATOM     17  C   UNL     1      -2.971  -1.379  24.711  0.00  0.00    +0.059 C 
ATOM     18  C   UNL     1      -3.574  -0.818  24.760  0.00  0.00    +0.005 C 
ATOM     21  C   UNL     1      -2.596  -2.113  24.688  0.00  0.00    +0.154 C 
ATOM     22  O   UNL     1      -3.040  -2.807  24.747  0.00  0.00    -0.223 OA
ATOM     23  C   UNL     1      -1.776  -2.155  24.606  0.00  0.00    +0.033 C 
ATOM     24  C   UNL     1      -1.331  -1.462  24.546  0.00  0.00    +0.003 C 
ATOM     25  C   UNL     1      -1.708  -0.728  24.569  0.00  0.00    +0.006 C 
ATOM     26  C   UNL     1      -0.888  -0.769  24.487  0.00  0.00    +0.000 C 
ATOM     27  S   UNL     1      -2.675   1.537  24.620  0.00  0.00    -0.054 S 
ATOM     28  C   UNL     1      -1.989   1.987  24.541  0.00  0.00    +0.185 A 
ATOM     29  N   UNL     1      -1.950   2.811  24.520  0.00  0.00    -0.150 NA
ATOM     30  C   UNL     1      -2.640   3.259  24.581  0.00  0.00    +0.277 C 
ATOM     31  O   UNL     1      -2.600   4.083  24.560  0.00  0.00    -0.267 OA
ATOM     37  N   UNL     1      -1.349   1.470  24.487  0.00  0.00    -0.227 NA
ENDROOT
BRANCH  30  32
ATOM     32  C   UNL     1      -3.369   2.882  24.663  0.00  0.00    +0.085 A 
ATOM     33  C   UNL     1      -3.845   2.609  24.046  0.00  0.00    +0.012 A 
ATOM     34  C   UNL     1      -4.520   2.270  24.376  0.00  0.00    +0.008 A 
ATOM     35  C   UNL     1      -4.463   2.334  25.197  0.00  0.00    +0.036 A 
ATOM     36  S   UNL     1      -3.751   2.713  25.373  0.00  0.00    -0.082 S 
ENDBRANCH  30  32
BRANCH  17  19
ATOM     19  C   UNL     1      -3.625  -1.877  24.787  0.00  0.00    +0.184 C 
ATOM     20  O   UNL     1      -4.365  -1.632  24.520  0.00  0.00    -0.220 OA
ENDBRANCH  17  19
BRANCH  12  11
ATOM     11  C   UNL     1      -0.444  -0.077  24.428  0.00  0.00    +0.093 C 
BRANCH  11   9
ATOM      8  N   UNL     1       0.725   0.162  23.641  0.00  0.00    -0.201 NA
ATOM      9  C   UNL     1      -0.094   0.080  23.698  0.00  0.00    +0.242 C 
ATOM     10  O   UNL     1      -0.564   0.156  23.024  0.00  0.00    -0.273 OA
BRANCH   8   7
ATOM      7  C   UNL     1       1.074   0.319  22.911  0.00  0.00    +0.141 C 
BRANCH   7   6
ATOM      3  C   UNL     1       3.535   0.529  22.737  0.00  0.00    +0.139 A 
ATOM      4  C   UNL     1       3.156  -0.145  22.448  0.00  0.00    +0.037 A 
ATOM      5  C   UNL     1       2.337  -0.215  22.506  0.00  0.00    +0.001 A 
ATOM      6  C   UNL     1       1.894   0.389  22.853  0.00  0.00    -0.000 A 
ATOM     38  C   UNL     1       2.273   1.064  23.142  0.00  0.00    +0.001 A 
ATOM     39  C   UNL     1       3.093   1.133  23.084  0.00  0.00    +0.037 A 
BRANCH   3   2
ATOM      1  C   UNL     1       4.831   0.421  23.329  0.00  0.00    +0.252 C 
ATOM      2  O   UNL     1       4.355   0.599  22.678  0.00  0.00    -0.471 OA
ENDBRANCH   3   2
ENDBRANCH   7   6
ENDBRANCH   8   7
ENDBRANCH  11   9
ENDBRANCH  12  11
TORSDOF 7
ENDMDL
MODEL 3
REMARK VINA RESULT:     -11.8      1.429      3.369
REMARK  Name = 
REMARK  7 active torsions:
REMARK  status: ('A' for Active; 'I' for Inactive)
REMARK    1  A    between atoms: O_2  and  C_3
REMARK    2  A    between atoms: C_6  and  C_7
REMARK    3  A    between atoms: C_7  and  N_8
REMARK    4  A    between atoms: C_9  and  C_11
REMARK    5  A    between atoms: C_11  and  C_12
REMARK    6  A    between atoms: C_17  and  C_19
REMARK    7  A    between atoms: C_30  and  C_32
REMARK                            x       y       z     vdW  Elec       q    Type
REMARK                         _______ _______ _______ _____ _____    ______ ____
ROOT
ATOM     12  C   UNL     1      -3.885   1.860  24.590  0.00  0.00    +0.050 C 
ATOM     13  C   UNL     1      -3.063   1.790  24.558  0.00  0.00    +0.063 A 
ATOM     14  C   UNL     1      -2.586   2.376  24.889  0.00  0.00    +0.023 A 
ATOM     15  C   UNL     1      -2.932   3.032  25.252  0.00  0.00    +0.034 C 
ATOM     16  C   UNL     1      -3.752   3.102  25.284  0.00  0.00    +0.010 C 
ATOM     17  C   UNL     1      -4.097   3.757  25.646  0.00  0.00    +0.059 C 
ATOM     18  C   UNL     1      -3.299   3.937  25.754  0.00  0.00    +0.005 C 
ATOM     21  C   UNL     1      -4.918   3.827  25.679  0.00  0.00    +0.154 C 
ATOM     22  O   UNL     1      -5.264   4.483  26.042  0.00  0.00    -0.223 OA
ATOM     23  C   UNL     1      -5.395   3.241  25.348  0.00  0.00    +0.033 C 
ATOM     24  C   UNL     1      -5.051   2.585  24.984  0.00  0.00    +0.003 C 
ATOM     25  C   UNL     1      -4.229   2.516  24.953  0.00  0.00    +0.006 C 
ATOM     26  C   UNL     1      -4.706   1.929  24.622  0.00  0.00    +0.000 C 
ATOM     27  S   UNL     1      -1.798   2.159  24.774  0.00  0.00    -0.054 S 
ATOM     28  C   UNL     1      -1.789   1.439  24.373  0.00  0.00    +0.185 A 
ATOM     29  N   UNL     1      -1.116   1.020  24.145  0.00  0.00    -0.150 NA
ATOM     30  C   UNL     1      -0.366   1.318  24.317  0.00  0.00    +0.277 C 
ATOM     31  O   UNL     1       0.307   0.899  24.089  0.00  0.00    -0.267 OA
ATOM     37  N   UNL     1      -2.570   1.210  24.239  0.00  0.00    -0.227 NA
ENDROOT
BRANCH  30  32
ATOM     32  C   UNL     1      -0.290   2.035  24.718  0.00  0.00    +0.085 A 
ATOM     33  C   UNL     1      -0.284   2.785  24.373  0.00  0.00    +0.012 A 
ATOM     34  C   UNL     1      -0.198   3.342  24.975  0.00  0.00    +0.008 A 
ATOM     35  C   UNL     1      -0.150   2.937  25.692  0.00  0.00    +0.036 A 
ATOM     36  S   UNL     1      -0.207   2.130  25.533  0.00  0.00    -0.082 S 
ENDBRANCH  30  32
BRANCH  17  19
ATOM     19  C   UNL     1      -4.165   4.476  26.047  0.00  0.00    +0.184 C 
ATOM     20  O   UNL     1      -3.506   4.806  26.417  0.00  0.00    -0.220 OA
ENDBRANCH  17  19
BRANCH  12  11
ATOM     11  C   UNL     1      -4.362   1.274  24.259  0.00  0.00    +0.093 C 
BRANCH  11   9
ATOM      8  N   UNL     1      -4.361  -0.153  24.327  0.00  0.00    -0.201 NA
ATOM      9  C   UNL     1      -4.511   0.579  24.677  0.00  0.00    +0.242 C 
ATOM     10  O   UNL     1      -4.812   0.616  25.444  0.00  0.00    -0.273 OA
BRANCH   8   7
ATOM      7  C   UNL     1      -4.510  -0.848  24.745  0.00  0.00    +0.141 C 
BRANCH   7   6
ATOM      3  C   UNL     1      -3.175  -2.882  24.285  0.00  0.00    +0.139 A 
ATOM      4  C   UNL     1      -3.751  -2.635  23.748  0.00  0.00    +0.037 A 
ATOM      5  C   UNL     1      -4.195  -1.958  23.902  0.00  0.00    +0.001 A 
ATOM      6  C   UNL     1      -4.065  -1.526  24.592  0.00  0.00    -0.000 A 
ATOM     38  C   UNL     1      -3.489  -1.772  25.130  0.00  0.00    +0.001 A 
ATOM     39  C   UNL     1      -3.045  -2.450  24.977  0.00  0.00    +0.037 A 
BRANCH   3   2
ATOM      1  C   UNL     1      -1.936  -3.491  23.919  0.00  0.00    +0.252 C 
ATOM      2  O   UNL     1      -2.730  -3.559  24.132  0.00  0.00    -0.471 OA
ENDBRANCH   3   2
ENDBRANCH   7   6
ENDBRANCH   8   7
ENDBRANCH  11   9
ENDBRANCH  12  11
TORSDOF 7
ENDMDL
MODEL 4
REMARK VINA RESULT:     -11.6      1.145      4.764
REMARK  Name = 
REMARK  7 active torsions:
REMARK  status: ('A' for Active; 'I' for Inactive)
REMARK    1  A    between atoms: O_2  and  C_3
REMARK    2  A    between atoms: C_6  and  C_7
REMARK    3  A    between atoms: C_7  and  N_8
REMARK    4  A    between atoms: C_9  and  C_11
REMARK    5  A    between atoms: C_11  and  C_12
REMARK    6  A    between atoms: C_17  and  C_19
REMARK    7  A    between atoms: C_30  and  C_32
REMARK                            x       y       z     vdW  Elec       q    Type
REMARK                         _______ _______ _______ _____ _____    ______ ____
ROOT
ATOM     12  C   UNL     1      -2.430  -0.003  25.128  0.00  0.00    +0.050 C 
ATOM     13  C   UNL     1      -2.996   0.596  25.172  0.00  0.00    +0.063 A 
ATOM     14  C   UNL     1      -3.780   0.439  24.965  0.00  0.00    +0.023 A 
ATOM     15  C   UNL     1      -3.996  -0.317  24.715  0.00  0.00    +0.034 C 
ATOM     16  C   UNL     1      -3.431  -0.915  24.671  0.00  0.00    +0.010 C 
ATOM     17  C   UNL     1      -3.648  -1.670  24.421  0.00  0.00    +0.059 C 
ATOM     18  C   UNL     1      -4.377  -1.288  24.372  0.00  0.00    +0.005 C 
ATOM     21  C   UNL     1      -3.082  -2.269  24.377  0.00  0.00    +0.154 C 
ATOM     22  O   UNL     1      -3.299  -3.025  24.127  0.00  0.00    -0.223 OA
ATOM     23  C   UNL     1      -2.299  -2.112  24.584  0.00  0.00    +0.033 C 
ATOM     24  C   UNL     1      -2.081  -1.356  24.835  0.00  0.00    +0.003 C 
ATOM     25  C   UNL     1      -2.648  -0.758  24.878  0.00  0.00    +0.006 C 
ATOM     26  C   UNL     1      -1.864  -0.601  25.085  0.00  0.00    +0.000 C 
ATOM     27  S   UNL     1      -4.213   1.135  25.063  0.00  0.00    -0.054 S 
ATOM     28  C   UNL     1      -3.698   1.720  25.330  0.00  0.00    +0.185 A 
ATOM     29  N   UNL     1      -3.900   2.502  25.499  0.00  0.00    -0.150 NA
ATOM     30  C   UNL     1      -4.678   2.758  25.405  0.00  0.00    +0.277 C 
ATOM     31  O   UNL     1      -4.879   3.540  25.575  0.00  0.00    -0.267 OA
ATOM     37  N   UNL     1      -2.946   1.389  25.397  0.00  0.00    -0.227 NA
ENDROOT
BRANCH  30  32
ATOM     32  C   UNL     1      -5.255   2.231  25.142  0.00  0.00    +0.085 A 
ATOM     33  C   UNL     1      -5.419   2.046  24.354  0.00  0.00    +0.012 A 
ATOM     34  C   UNL     1      -6.034   1.497  24.344  0.00  0.00    +0.008 A 
ATOM     35  C   UNL     1      -6.252   1.342  25.125  0.00  0.00    +0.036 A 
ATOM     36  S   UNL     1      -5.770   1.795  25.617  0.00  0.00    -0.082 S 
ENDBRANCH  30  32
BRANCH  17  19
ATOM     19  C   UNL     1      -4.118  -2.293  24.154  0.00  0.00    +0.184 C 
ATOM     20  O   UNL     1      -4.798  -2.138  23.715  0.00  0.00    -0.220 OA
ENDBRANCH  17  19
BRANCH  12  11
ATOM     11  C   UNL     1      -1.648   0.154  25.335  0.00  0.00    +0.093 C 
BRANCH  11   9
ATOM      8  N   UNL     1      -0.814   1.301  25.161  0.00  0.00    -0.201 NA
ATOM      9  C   UNL     1      -1.180   0.631  24.850  0.00  0.00    +0.242 C 
ATOM     10  O   UNL     1      -1.080   0.436  24.055  0.00  0.00    -0.273 OA
BRANCH   8   7
ATOM      7  C   UNL     1      -0.347   1.777  24.676  0.00  0.00    +0.141 C 
BRANCH   7   6
ATOM      3  C   UNL     1      -0.483   4.243  24.862  0.00  0.00    +0.139 A 
ATOM      4  C   UNL     1      -0.600   3.876  24.132  0.00  0.00    +0.037 A 
ATOM      5  C   UNL     1      -0.555   3.055  24.070  0.00  0.00    +0.001 A 
ATOM      6  C   UNL     1      -0.392   2.599  24.738  0.00  0.00    -0.000 A 
ATOM     38  C   UNL     1      -0.274   2.965  25.468  0.00  0.00    +0.001 A 
ATOM     39  C   UNL     1      -0.319   3.786  25.530  0.00  0.00    +0.037 A 
BRANCH   3   2
ATOM      1  C   UNL     1      -1.263   5.432  25.000  0.00  0.00    +0.252 C 
ATOM      2  O   UNL     1      -0.528   5.064  24.923  0.00  0.00    -0.471 OA
ENDBRANCH   3   2
ENDBRANCH   7   6
ENDBRANCH   8   7
ENDBRANCH  11   9
ENDBRANCH  12  11
TORSDOF 7
ENDMDL
MODEL 5
REMARK VINA RESULT:     -11.6      2.908      4.481
REMARK  Name = 
REMARK  7 active torsions:
REMARK  status: ('A' for Active; 'I' for Inactive)
REMARK    1  A    between atoms: O_2  and  C_3
REMARK    2  A    between atoms: C_6  and  C_7
REMARK    3  A    between atoms: C_7  and  N_8
REMARK    4  A    between atoms: C_9  and  C_11
REMARK    5  A    between atoms: C_11  and  C_12
REMARK    6  A    between atoms: C_17  and  C_19
REMARK    7  A    between atoms: C_30  and  C_32
REMARK                            x       y       z     vdW  Elec       q    Type
REMARK                         _______ _______ _______ _____ _____    ______ ____
ROOT
ATOM     12  C   UNL     1      -0.501   1.447  24.750  0.00  0.00    +0.050 C 
ATOM     13  C   UNL     1      -0.943   0.750  24.746  0.00  0.00    +0.063 A 
ATOM     14  C   UNL     1      -1.760   0.778  24.853  0.00  0.00    +0.023 A 
ATOM     15  C   UNL     1      -2.136   1.504  24.964  0.00  0.00    +0.034 C 
ATOM     16  C   UNL     1      -1.696   2.201  24.968  0.00  0.00    +0.010 C 
ATOM     17  C   UNL     1      -2.072   2.926  25.080  0.00  0.00    +0.059 C 
ATOM     18  C   UNL     1      -2.722   2.420  25.119  0.00  0.00    +0.005 C 
ATOM     21  C   UNL     1      -1.631   3.624  25.084  0.00  0.00    +0.154 C 
ATOM     22  O   UNL     1      -2.007   4.350  25.195  0.00  0.00    -0.223 OA
ATOM     23  C   UNL     1      -0.814   3.595  24.977  0.00  0.00    +0.033 C 
ATOM     24  C   UNL     1      -0.437   2.869  24.865  0.00  0.00    +0.003 C 
ATOM     25  C   UNL     1      -0.878   2.172  24.861  0.00  0.00    +0.006 C 
ATOM     26  C   UNL     1      -0.061   2.144  24.754  0.00  0.00    +0.000 C 
ATOM     27  S   UNL     1      -2.048   0.005  24.823  0.00  0.00    -0.054 S 
ATOM     28  C   UNL     1      -1.409  -0.500  24.697  0.00  0.00    +0.185 A 
ATOM     29  N   UNL     1      -1.446  -1.321  24.630  0.00  0.00    -0.150 NA
ATOM     30  C   UNL     1      -2.172  -1.708  24.690  0.00  0.00    +0.277 C 
ATOM     31  O   UNL     1      -2.210  -2.530  24.623  0.00  0.00    -0.267 OA
ATOM     37  N   UNL     1      -0.725  -0.041  24.649  0.00  0.00    -0.227 NA
ENDROOT
BRANCH  30  32
ATOM     32  C   UNL     1      -2.861  -1.272  24.816  0.00  0.00    +0.085 A 
ATOM     33  C   UNL     1      -3.336  -0.937  24.230  0.00  0.00    +0.012 A 
ATOM     34  C   UNL     1      -3.965  -0.553  24.601  0.00  0.00    +0.008 A 
ATOM     35  C   UNL     1      -3.879  -0.650  25.416  0.00  0.00    +0.036 A 
ATOM     36  S   UNL     1      -3.197  -1.095  25.548  0.00  0.00    -0.082 S 
ENDBRANCH  30  32
BRANCH  17  19
ATOM     19  C   UNL     1      -2.674   3.476  25.205  0.00  0.00    +0.184 C 
ATOM     20  O   UNL     1      -3.452   3.222  25.301  0.00  0.00    -0.220 OA
ENDBRANCH  17  19
BRANCH  12  11
ATOM     11  C   UNL     1       0.315   1.419  24.643  0.00  0.00    +0.093 C 
BRANCH  11   9
ATOM      8  N   UNL     1       1.420   1.005  23.836  0.00  0.00    -0.201 NA
ATOM      9  C   UNL     1       0.629   1.229  23.904  0.00  0.00    +0.242 C 
ATOM     10  O   UNL     1       0.150   1.264  23.233  0.00  0.00    -0.273 OA
BRANCH   8   7
ATOM      7  C   UNL     1       1.732   0.815  23.097  0.00  0.00    +0.141 C 
BRANCH   7   6
ATOM      3  C   UNL     1       4.149   0.334  22.861  0.00  0.00    +0.139 A 
ATOM      4  C   UNL     1       3.877   1.111  22.817  0.00  0.00    +0.037 A 
ATOM      5  C   UNL     1       3.071   1.271  22.896  0.00  0.00    +0.001 A 
ATOM      6  C   UNL     1       2.537   0.655  23.018  0.00  0.00    -0.000 A 
ATOM     38  C   UNL     1       2.810  -0.124  23.062  0.00  0.00    +0.001 A 
ATOM     39  C   UNL     1       3.615  -0.284  22.984  0.00  0.00    +0.037 A 
BRANCH   3   2
ATOM      1  C   UNL     1       5.415   0.038  23.454  0.00  0.00    +0.252 C 
ATOM      2  O   UNL     1       4.955   0.173  22.783  0.00  0.00    -0.471 OA
ENDBRANCH   3   2
ENDBRANCH   7   6
ENDBRANCH   8   7
ENDBRANCH  11   9
ENDBRANCH  12  11
TORSDOF 7
ENDMDL
MODEL 6
REMARK VINA RESULT:     -10.9      2.416      4.401
REMARK  Name = 
REMARK  7 active torsions:
REMARK  status: ('A' for Active; 'I' for Inactive)
REMARK    1  A    between atoms: O_2  and  C_3
REMARK    2  A    between atoms: C_6  and  C_7
REMARK    3  A    between atoms: C_7  and  N_8
REMARK    4  A    between atoms: C_9  and  C_11
REMARK    5  A    between atoms: C_11  and  C_12
REMARK    6  A    between atoms: C_17  and  C_19
REMARK    7  A    between atoms: C_30  and  C_32
REMARK                            x       y       z     vdW  Elec       q    Type
REMARK                         _______ _______ _______ _____ _____    ______ ____
ROOT
ATOM     12  C   UNL     1      -2.155   1.068  23.929  0.00  0.00    +0.050 C 
ATOM     13  C   UNL     1      -2.005   1.827  24.217  0.00  0.00    +0.063 A 
ATOM     14  C   UNL     1      -2.568   2.211  24.682  0.00  0.00    +0.023 A 
ATOM     15  C   UNL     1      -3.281   1.836  24.859  0.00  0.00    +0.034 C 
ATOM     16  C   UNL     1      -3.432   1.078  24.572  0.00  0.00    +0.010 C 
ATOM     17  C   UNL     1      -4.144   0.703  24.750  0.00  0.00    +0.059 C 
ATOM     18  C   UNL     1      -4.255   1.418  25.147  0.00  0.00    +0.005 C 
ATOM     21  C   UNL     1      -4.295  -0.056  24.463  0.00  0.00    +0.154 C 
ATOM     22  O   UNL     1      -5.008  -0.431  24.640  0.00  0.00    -0.223 OA
ATOM     23  C   UNL     1      -3.732  -0.440  23.998  0.00  0.00    +0.033 C 
ATOM     24  C   UNL     1      -3.018  -0.065  23.820  0.00  0.00    +0.003 C 
ATOM     25  C   UNL     1      -2.868   0.694  24.107  0.00  0.00    +0.006 C 
ATOM     26  C   UNL     1      -2.305   0.310  23.642  0.00  0.00    +0.000 C 
ATOM     27  S   UNL     1      -2.268   2.953  24.886  0.00  0.00    -0.054 S 
ATOM     28  C   UNL     1      -1.520   3.026  24.547  0.00  0.00    +0.185 A 
ATOM     29  N   UNL     1      -1.022   3.680  24.611  0.00  0.00    -0.150 NA
ATOM     30  C   UNL     1      -1.260   4.340  25.045  0.00  0.00    +0.277 C 
ATOM     31  O   UNL     1      -0.761   4.995  25.108  0.00  0.00    -0.267 OA
ATOM     37  N   UNL     1      -1.357   2.331  24.134  0.00  0.00    -0.227 NA
ENDROOT
BRANCH  30  32
ATOM     32  C   UNL     1      -1.997   4.345  25.415  0.00  0.00    +0.085 A 
ATOM     33  C   UNL     1      -2.162   4.048  26.168  0.00  0.00    +0.012 A 
ATOM     34  C   UNL     1      -2.965   4.167  26.317  0.00  0.00    +0.008 A 
ATOM     35  C   UNL     1      -3.296   4.536  25.658  0.00  0.00    +0.036 A 
ATOM     36  S   UNL     1      -2.697   4.646  25.101  0.00  0.00    -0.082 S 
ENDBRANCH  30  32
BRANCH  17  19
ATOM     19  C   UNL     1      -4.896   0.576  25.065  0.00  0.00    +0.184 C 
ATOM     20  O   UNL     1      -5.300   1.194  25.432  0.00  0.00    -0.220 OA
ENDBRANCH  17  19
BRANCH  12  11
ATOM     11  C   UNL     1      -1.593   0.685  23.465  0.00  0.00    +0.093 C 
BRANCH  11   9
ATOM      8  N   UNL     1      -0.190   0.425  23.383  0.00  0.00    -0.201 NA
ATOM      9  C   UNL     1      -0.897   0.403  23.807  0.00  0.00    +0.242 C 
ATOM     10  O   UNL     1      -0.909   0.101  24.574  0.00  0.00    -0.273 OA
BRANCH   8   7
ATOM      7  C   UNL     1       0.505   0.144  23.725  0.00  0.00    +0.141 C 
BRANCH   7   6
ATOM      3  C   UNL     1       2.670   0.455  22.565  0.00  0.00    +0.139 A 
ATOM      4  C   UNL     1       2.172  -0.167  22.350  0.00  0.00    +0.037 A 
ATOM      5  C   UNL     1       1.451  -0.270  22.737  0.00  0.00    +0.001 A 
ATOM      6  C   UNL     1       1.227   0.247  23.339  0.00  0.00    -0.000 A 
ATOM     38  C   UNL     1       1.725   0.870  23.554  0.00  0.00    +0.001 A 
ATOM     39  C   UNL     1       2.446   0.973  23.167  0.00  0.00    +0.037 A 
BRANCH   3   2
ATOM      1  C   UNL     1       4.090   0.607  22.616  0.00  0.00    +0.252 C 
ATOM      2  O   UNL     1       3.392   0.558  22.179  0.00  0.00    -0.471 OA
ENDBRANCH   3   2
ENDBRANCH   7   6
ENDBRANCH   8   7
ENDBRANCH  11   9
ENDBRANCH  12  11
TORSDOF 7
ENDMDL
MODEL 7
REMARK VINA RESULT:     -10.9      1.496      5.099
REMARK  Name = 
REMARK  7 active torsions:
REMARK  status: ('A' for Active; 'I' for Inactive)
REMARK    1  A    between atoms: O_2  and  C_3
REMARK    2  A    between atoms: C_6  and  C_7
REMARK    3  A    between atoms: C_7  and  N_8
REMARK    4  A    between atoms: C_9  and  C_11
REMARK    5  A    between atoms: C_11  and  C_12
REMARK    6  A    between atoms: C_17  and  C_19
REMARK    7  A    between atoms: C_30  and  C_32
REMARK                            x       y       z     vdW  Elec       q    Type
REMARK                         _______ _______ _______ _____ _____    ______ ____
ROOT
ATOM     12  C   UNL     1      -2.943  -0.086  24.459  0.00  0.00    +0.050 C 
ATOM     13  C   UNL     1      -2.534   0.625  24.554  0.00  0.00    +0.063 A 
ATOM     14  C   UNL     1      -1.733   0.617  24.753  0.00  0.00    +0.023 A 
ATOM     15  C   UNL     1      -1.342  -0.102  24.857  0.00  0.00    +0.034 C 
ATOM     16  C   UNL     1      -1.750  -0.812  24.762  0.00  0.00    +0.010 C 
ATOM     17  C   UNL     1      -1.358  -1.530  24.865  0.00  0.00    +0.059 C 
ATOM     18  C   UNL     1      -0.739  -1.006  25.015  0.00  0.00    +0.005 C 
ATOM     21  C   UNL     1      -1.766  -2.241  24.770  0.00  0.00    +0.154 C 
ATOM     22  O   UNL     1      -1.374  -2.960  24.873  0.00  0.00    -0.223 OA
ATOM     23  C   UNL     1      -2.567  -2.233  24.571  0.00  0.00    +0.033 C 
ATOM     24  C   UNL     1      -2.959  -1.514  24.467  0.00  0.00    +0.003 C 
ATOM     25  C   UNL     1      -2.550  -0.804  24.562  0.00  0.00    +0.006 C 
ATOM     26  C   UNL     1      -3.351  -0.796  24.363  0.00  0.00    +0.000 C 
ATOM     27  S   UNL     1      -1.477   1.400  24.810  0.00  0.00    -0.054 S 
ATOM     28  C   UNL     1      -2.119   1.890  24.646  0.00  0.00    +0.185 A 
ATOM     29  N   UNL     1      -2.109   2.715  24.642  0.00  0.00    -0.150 NA
ATOM     30  C   UNL     1      -1.412   3.121  24.811  0.00  0.00    +0.277 C 
ATOM     31  O   UNL     1      -1.402   3.946  24.807  0.00  0.00    -0.267 OA
ATOM     37  N   UNL     1      -2.773   1.413  24.488  0.00  0.00    -0.227 NA
ENDROOT
BRANCH  30  32
ATOM     32  C   UNL     1      -0.724   2.701  24.986  0.00  0.00    +0.085 A 
ATOM     33  C   UNL     1      -0.486   2.452  25.736  0.00  0.00    +0.012 A 
ATOM     34  C   UNL     1       0.232   2.053  25.656  0.00  0.00    +0.008 A 
ATOM     35  C   UNL     1       0.439   2.056  24.857  0.00  0.00    +0.036 A 
ATOM     36  S   UNL     1      -0.153   2.457  24.444  0.00  0.00    -0.082 S 
ENDBRANCH  30  32
BRANCH  17  19
ATOM     19  C   UNL     1      -0.751  -2.067  25.021  0.00  0.00    +0.184 C 
ATOM     20  O   UNL     1      -0.068  -1.817  25.409  0.00  0.00    -0.220 OA
ENDBRANCH  17  19
BRANCH  12  11
ATOM     11  C   UNL     1      -3.743  -0.078  24.260  0.00  0.00    +0.093 C 
BRANCH  11   9
ATOM      8  N   UNL     1      -4.826   0.748  24.691  0.00  0.00    -0.201 NA
ATOM      9  C   UNL     1      -4.307   0.122  24.827  0.00  0.00    +0.242 C 
ATOM     10  O   UNL     1      -4.352  -0.306  25.531  0.00  0.00    -0.273 OA
BRANCH   8   7
ATOM      7  C   UNL     1      -5.390   0.947  25.258  0.00  0.00    +0.141 C 
BRANCH   7   6
ATOM      3  C   UNL     1      -5.960   3.323  25.657  0.00  0.00    +0.139 A 
ATOM      4  C   UNL     1      -5.958   3.022  24.889  0.00  0.00    +0.037 A 
ATOM      5  C   UNL     1      -5.768   2.231  24.756  0.00  0.00    +0.001 A 
ATOM      6  C   UNL     1      -5.580   1.739  25.391  0.00  0.00    -0.000 A 
ATOM     38  C   UNL     1      -5.582   2.039  26.160  0.00  0.00    +0.001 A 
ATOM     39  C   UNL     1      -5.772   2.831  26.293  0.00  0.00    +0.037 A 
BRANCH   3   2
ATOM      1  C   UNL     1      -5.685   4.711  25.460  0.00  0.00    +0.252 C 
ATOM      2  O   UNL     1      -6.150   4.115  25.791  0.00  0.00    -0.471 OA
ENDBRANCH   3   2
ENDBRANCH   7   6
ENDBRANCH   8   7
ENDBRANCH  11   9
ENDBRANCH  12  11
TORSDOF 7
ENDMDL
