MODEL 1
REMARK VINA RESULT:     -12.5      0.000      0.000
REMARK  Name = 
REMARK  6 active torsions:
REMARK  status: ('A' for Active; 'I' for Inactive)
REMARK    1  A    between atoms: O_2  and  C_3
REMARK    2  A    between atoms: C_6  and  C_7
REMARK    3  A    between atoms: C_7  and  N_8
REMARK    4  A    between atoms: C_12  and  C_13
REMARK    5  A    between atoms: C_15  and  C_18
REMARK    6  A    between atoms: N_21  and  S_22
REMARK                            x       y       z     vdW  Elec       q    Type
REMARK                         _______ _______ _______ _____ _____    ______ ____
ROOT
ATOM     13  C   UNL     1      -4.033   2.551  24.659  0.00  0.00    +0.251 A 
ATOM     14  N   UNL     1      -3.387   2.804  25.106  0.00  0.00    -0.190 NA
ATOM     15  C   UNL     1      -2.951   3.332  24.647  0.00  0.00    +0.203 A 
ATOM     16  N   UNL     1      -3.327   3.406  23.917  0.00  0.00    -0.056 NA
ATOM     17  O   UNL     1      -3.995   2.924  23.924  0.00  0.00    -0.336 OA
ENDROOT
BRANCH  15  18
ATOM     18  C   UNL     1      -2.260   3.720  24.878  0.00  0.00    +0.044 A 
ATOM     19  C   UNL     1      -1.566   3.289  24.994  0.00  0.00    +0.041 A 
ATOM     20  C   UNL     1      -0.875   3.676  25.226  0.00  0.00    +0.171 A 
ATOM     21  N   UNL     1      -0.180   3.246  25.343  0.00  0.00    -0.081 NA
ATOM     26  N   UNL     1      -0.878   4.493  25.340  0.00  0.00    -0.226 NA
ATOM     27  C   UNL     1      -1.571   4.923  25.223  0.00  0.00    +0.101 A 
ATOM     28  C   UNL     1      -2.263   4.536  24.992  0.00  0.00    +0.024 A 
BRANCH  21  22
ATOM     22  S   UNL     1      -0.177   2.429  25.228  0.00  0.00    +0.076 S 
ATOM     23  C   UNL     1      -0.174   1.612  25.114  0.00  0.00    +0.202 C 
ATOM     24  O   UNL     1      -0.006   2.541  24.429  0.00  0.00    -0.153 OA
ATOM     25  O   UNL     1      -0.348   2.317  26.028  0.00  0.00    -0.153 OA
ENDBRANCH  21  22
ENDBRANCH  15  18
BRANCH  13  12
ATOM      8  N   UNL     1      -4.581   1.199  24.832  0.00  0.00    -0.263 NA
ATOM      9  C   UNL     1      -5.276   0.886  25.148  0.00  0.00    +0.073 C 
ATOM     10  C   UNL     1      -5.739   1.515  25.415  0.00  0.00    +0.019 C 
ATOM     11  C   UNL     1      -5.330   2.215  25.264  0.00  0.00    +0.027 C 
ATOM     12  C   UNL     1      -4.614   2.019  24.904  0.00  0.00    +0.138 C 
BRANCH   8   7
ATOM      7  C   UNL     1      -3.961   0.766  24.502  0.00  0.00    +0.099 C 
BRANCH   7   6
ATOM      3  C   UNL     1      -3.792  -1.669  24.920  0.00  0.00    +0.139 A 
ATOM      4  C   UNL     1      -3.487  -1.134  25.469  0.00  0.00    +0.037 A 
ATOM      5  C   UNL     1      -3.543  -0.323  25.330  0.00  0.00    +0.000 A 
ATOM      6  C   UNL     1      -3.905  -0.046  24.641  0.00  0.00    -0.006 A 
ATOM     29  C   UNL     1      -4.210  -0.581  24.093  0.00  0.00    +0.000 A 
ATOM     30  C   UNL     1      -4.154  -1.392  24.232  0.00  0.00    +0.037 A 
BRANCH   3   2
ATOM      1  C   UNL     1      -3.409  -2.975  24.485  0.00  0.00    +0.252 C 
ATOM      2  O   UNL     1      -3.736  -2.479  25.059  0.00  0.00    -0.471 OA
ENDBRANCH   3   2
ENDBRANCH   7   6
ENDBRANCH   8   7
ENDBRANCH  13  12
TORSDOF 6
ENDMDL
MODEL 2
REMARK VINA RESULT:     -11.8      1.910      4.635
REMARK  Name = 
REMARK  6 active torsions:
REMARK  status: ('A' for Active; 'I' for Inactive)
REMARK    1  A    between atoms: O_2  and  C_3
REMARK    2  A    between atoms: C_6  and  C_7
REMARK    3  A    between atoms: C_7  and  N_8
REMARK    4  A    between atoms: C_12  and  C_13
REMARK    5  A    between atoms: C_15  and  C_18
REMARK    6  A    between atoms: N_21  and  S_22
REMARK                            x       y       z     vdW  Elec       q    Type
REMARK                         _______ _______ _______ _____ _____    ______ ____
ROOT
ATOM     13  C   UNL     1      -4.331   0.725  24.666  0.00  0.00    +0.251 A 
ATOM     14  N   UNL     1      -3.933   0.115  25.056  0.00  0.00    -0.190 NA
ATOM     15  C   UNL     1      -3.775  -0.479  24.506  0.00  0.00    +0.203 A 
ATOM     16  N   UNL     1      -4.076  -0.237  23.777  0.00  0.00    -0.056 NA
ATOM     17  O   UNL     1      -4.419   0.505  23.876  0.00  0.00    -0.336 OA
ENDROOT
BRANCH  15  18
ATOM     18  C   UNL     1      -3.385  -1.190  24.659  0.00  0.00    +0.044 A 
ATOM     19  C   UNL     1      -2.564  -1.202  24.731  0.00  0.00    +0.041 A 
ATOM     20  C   UNL     1      -2.174  -1.913  24.884  0.00  0.00    +0.171 A 
ATOM     21  N   UNL     1      -1.352  -1.926  24.957  0.00  0.00    -0.081 NA
ATOM     26  N   UNL     1      -2.606  -2.611  24.964  0.00  0.00    -0.226 NA
ATOM     27  C   UNL     1      -3.427  -2.599  24.891  0.00  0.00    +0.101 A 
ATOM     28  C   UNL     1      -3.817  -1.888  24.738  0.00  0.00    +0.024 A 
BRANCH  21  22
ATOM     22  S   UNL     1      -0.920  -1.228  24.877  0.00  0.00    +0.076 S 
ATOM     23  C   UNL     1      -0.488  -0.530  24.798  0.00  0.00    +0.202 C 
ATOM     24  O   UNL     1      -0.984  -1.096  25.689  0.00  0.00    -0.153 OA
ATOM     25  O   UNL     1      -0.856  -1.360  24.066  0.00  0.00    -0.153 OA
ENDBRANCH  21  22
ENDBRANCH  15  18
BRANCH  13  12
ATOM      8  N   UNL     1      -4.198   2.150  24.996  0.00  0.00    -0.263 NA
ATOM      9  C   UNL     1      -4.658   2.702  25.402  0.00  0.00    +0.073 C 
ATOM     10  C   UNL     1      -5.340   2.319  25.665  0.00  0.00    +0.019 C 
ATOM     11  C   UNL     1      -5.300   1.531  25.422  0.00  0.00    +0.027 C 
ATOM     12  C   UNL     1      -4.594   1.428  25.008  0.00  0.00    +0.138 C 
BRANCH   8   7
ATOM      7  C   UNL     1      -3.468   2.297  24.640  0.00  0.00    +0.099 C 
BRANCH   7   6
ATOM      3  C   UNL     1      -2.172   4.314  25.256  0.00  0.00    +0.139 A 
ATOM      4  C   UNL     1      -2.004   3.590  25.614  0.00  0.00    +0.037 A 
ATOM      5  C   UNL     1      -2.435   2.918  25.409  0.00  0.00    +0.000 A 
ATOM      6  C   UNL     1      -3.036   2.969  24.845  0.00  0.00    -0.006 A 
ATOM     29  C   UNL     1      -3.204   3.693  24.487  0.00  0.00    +0.000 A 
ATOM     30  C   UNL     1      -2.772   4.365  24.693  0.00  0.00    +0.037 A 
BRANCH   3   2
ATOM      1  C   UNL     1      -1.043   5.167  25.059  0.00  0.00    +0.252 C 
ATOM      2  O   UNL     1      -1.741   4.986  25.462  0.00  0.00    -0.471 OA
ENDBRANCH   3   2
ENDBRANCH   7   6
ENDBRANCH   8   7
ENDBRANCH  13  12
TORSDOF 6
ENDMDL
MODEL 3
REMARK VINA RESULT:     -11.4      1.553      3.019
REMARK  Name = 
REMARK  6 active torsions:
REMARK  status: ('A' for Active; 'I' for Inactive)
REMARK    1  A    between atoms: O_2  and  C_3
REMARK    2  A    between atoms: C_6  and  C_7
REMARK    3  A    between atoms: C_7  and  N_8
REMARK    4  A    between atoms: C_12  and  C_13
REMARK    5  A    between atoms: C_15  and  C_18
REMARK    6  A    between atoms: N_21  and  S_22
REMARK                            x       y       z     vdW  Elec       q    Type
REMARK                         _______ _______ _______ _____ _____    ______ ____
ROOT
ATOM     13  C   UNL     1      -0.729   1.253  25.180  0.00  0.00    +0.251 A 
ATOM     14  N   UNL     1      -1.045   1.940  24.848  0.00  0.00    -0.190 NA
ATOM     15  C   UNL     1      -0.998   2.540  25.411  0.00  0.00    +0.203 A 
ATOM     16  N   UNL     1      -0.653   2.226  26.091  0.00  0.00    -0.056 NA
ATOM     17  O   UNL     1      -0.487   1.431  25.948  0.00  0.00    -0.336 OA
ENDROOT
BRANCH  15  18
ATOM     18  C   UNL     1      -1.252   3.320  25.312  0.00  0.00    +0.044 A 
ATOM     19  C   UNL     1      -2.057   3.498  25.340  0.00  0.00    +0.041 A 
ATOM     20  C   UNL     1      -2.310   4.277  25.241  0.00  0.00    +0.171 A 
ATOM     21  N   UNL     1      -3.115   4.456  25.269  0.00  0.00    -0.081 NA
ATOM     26  N   UNL     1      -1.759   4.877  25.113  0.00  0.00    -0.226 NA
ATOM     27  C   UNL     1      -0.954   4.699  25.085  0.00  0.00    +0.101 A 
ATOM     28  C   UNL     1      -0.700   3.920  25.184  0.00  0.00    +0.024 A 
BRANCH  21  22
ATOM     22  S   UNL     1      -3.666   3.856  25.397  0.00  0.00    +0.076 S 
ATOM     23  C   UNL     1      -4.218   3.255  25.525  0.00  0.00    +0.202 C 
ATOM     24  O   UNL     1      -3.744   3.753  24.582  0.00  0.00    -0.153 OA
ATOM     25  O   UNL     1      -3.589   3.958  26.212  0.00  0.00    -0.153 OA
ENDBRANCH  21  22
ENDBRANCH  15  18
BRANCH  13  12
ATOM      8  N   UNL     1      -1.227  -0.084  24.832  0.00  0.00    -0.263 NA
ATOM      9  C   UNL     1      -0.940  -0.717  24.387  0.00  0.00    +0.073 C 
ATOM     10  C   UNL     1      -0.201  -0.503  24.088  0.00  0.00    +0.019 C 
ATOM     11  C   UNL     1      -0.032   0.261  24.349  0.00  0.00    +0.027 C 
ATOM     12  C   UNL     1      -0.666   0.520  24.809  0.00  0.00    +0.138 C 
BRANCH   8   7
ATOM      7  C   UNL     1      -1.948  -0.061  25.230  0.00  0.00    +0.099 C 
BRANCH   7   6
ATOM      3  C   UNL     1      -3.778  -1.593  24.570  0.00  0.00    +0.139 A 
ATOM      4  C   UNL     1      -3.245  -1.816  25.160  0.00  0.00    +0.037 A 
ATOM      5  C   UNL     1      -2.635  -1.306  25.380  0.00  0.00    +0.000 A 
ATOM      6  C   UNL     1      -2.559  -0.572  25.010  0.00  0.00    -0.006 A 
ATOM     29  C   UNL     1      -3.091  -0.348  24.421  0.00  0.00    +0.000 A 
ATOM     30  C   UNL     1      -3.701  -0.860  24.201  0.00  0.00    +0.037 A 
BRANCH   3   2
ATOM      1  C   UNL     1      -4.313  -2.564  23.670  0.00  0.00    +0.252 C 
ATOM      2  O   UNL     1      -4.387  -2.103  24.351  0.00  0.00    -0.471 OA
ENDBRANCH   3   2
ENDBRANCH   7   6
ENDBRANCH   8   7
ENDBRANCH  13  12
TORSDOF 6
ENDMDL
MODEL 4
REMARK VINA RESULT:     -10.7      1.980      4.488
REMARK  Name = 
REMARK  6 active torsions:
REMARK  status: ('A' for Active; 'I' for Inactive)
REMARK    1  A    between atoms: O_2  and  C_3
REMARK    2  A    between atoms: C_6  and  C_7
REMARK    3  A    between atoms: C_7  and  N_8
REMARK    4  A    between atoms: C_12  and  C_13
REMARK    5  A    between atoms: C_15  and  C_18
REMARK    6  A    between atoms: N_21  and  S_22
REMARK                            x       y       z     vdW  Elec       q    Type
REMARK                         _______ _______ _______ _____ _____    ______ ____
ROOT
ATOM     13  C   UNL     1      -0.470   3.072  25.077  0.00  0.00    +0.251 A 
ATOM     14  N   UNL     1      -0.533   2.472  24.513  0.00  0.00    -0.190 NA
ATOM     15  C   UNL     1      -0.026   1.860  24.735  0.00  0.00    +0.203 A 
ATOM     16  N   UNL     1       0.350   2.082  25.434  0.00  0.00    -0.056 NA
ATOM     17  O   UNL     1       0.076   2.830  25.645  0.00  0.00    -0.336 OA
ENDROOT
BRANCH  15  18
ATOM     18  C   UNL     1       0.085   1.151  24.328  0.00  0.00    +0.044 A 
ATOM     19  C   UNL     1      -0.351   0.483  24.539  0.00  0.00    +0.041 A 
ATOM     20  C   UNL     1      -0.240  -0.227  24.132  0.00  0.00    +0.171 A 
ATOM     21  N   UNL     1      -0.675  -0.896  24.342  0.00  0.00    -0.081 NA
ATOM     26  N   UNL     1       0.306  -0.267  23.515  0.00  0.00    -0.226 NA
ATOM     27  C   UNL     1       0.741   0.401  23.304  0.00  0.00    +0.101 A 
ATOM     28  C   UNL     1       0.631   1.110  23.711  0.00  0.00    +0.024 A 
BRANCH  21  22
ATOM     22  S   UNL     1      -1.221  -0.855  24.959  0.00  0.00    +0.076 S 
ATOM     23  C   UNL     1      -1.766  -0.815  25.577  0.00  0.00    +0.202 C 
ATOM     24  O   UNL     1      -0.639  -1.101  25.490  0.00  0.00    -0.153 OA
ATOM     25  O   UNL     1      -1.802  -0.609  24.429  0.00  0.00    -0.153 OA
ENDBRANCH  21  22
ENDBRANCH  15  18
BRANCH  13  12
ATOM      8  N   UNL     1      -1.663   3.899  25.305  0.00  0.00    -0.263 NA
ATOM      9  C   UNL     1      -1.848   4.697  25.209  0.00  0.00    +0.073 C 
ATOM     10  C   UNL     1      -1.178   5.079  24.915  0.00  0.00    +0.019 C 
ATOM     11  C   UNL     1      -0.580   4.517  24.830  0.00  0.00    +0.027 C 
ATOM     12  C   UNL     1      -0.880   3.787  25.071  0.00  0.00    +0.138 C 
BRANCH   8   7
ATOM      7  C   UNL     1      -2.172   3.314  25.586  0.00  0.00    +0.099 C 
BRANCH   7   6
ATOM      3  C   UNL     1      -4.623   3.636  25.447  0.00  0.00    +0.139 A 
ATOM      4  C   UNL     1      -4.220   3.266  24.829  0.00  0.00    +0.037 A 
ATOM      5  C   UNL     1      -3.404   3.158  24.875  0.00  0.00    +0.000 A 
ATOM      6  C   UNL     1      -2.990   3.421  25.540  0.00  0.00    -0.006 A 
ATOM     29  C   UNL     1      -3.393   3.792  26.157  0.00  0.00    +0.000 A 
ATOM     30  C   UNL     1      -4.210   3.899  26.110  0.00  0.00    +0.037 A 
BRANCH   3   2
ATOM      1  C   UNL     1      -5.949   3.154  25.675  0.00  0.00    +0.252 C 
ATOM      2  O   UNL     1      -5.439   3.743  25.400  0.00  0.00    -0.471 OA
ENDBRANCH   3   2
ENDBRANCH   7   6
ENDBRANCH   8   7
ENDBRANCH  13  12
TORSDOF 6
ENDMDL
MODEL 5
REMARK VINA RESULT:     -10.5      2.174      4.927
REMARK  Name = 
REMARK  6 active torsions:
REMARK  status: ('A' for Active; 'I' for Inactive)
REMARK    1  A    between atoms: O_2  and  C_3
REMARK    2  A    between atoms: C_6  and  C_7
REMARK    3  A    between atoms: C_7  and  N_8
REMARK    4  A    between atoms: C_12  and  C_13
REMARK    5  A    between atoms: C_15  and  C_18
REMARK    6  A    between atoms: N_21  and  S_22
REMARK                            x       y       z     vdW  Elec       q    Type
REMARK                         _______ _______ _______ _____ _____    ______ ____
ROOT
ATOM     13  C   UNL     1      -0.988   1.256  24.809  0.00  0.00    +0.251 A 
ATOM     14  N   UNL     1      -1.231   0.549  25.159  0.00  0.00    -0.190 NA
ATOM     15  C   UNL     1      -1.064  -0.065  24.633  0.00  0.00    +0.203 A 
ATOM     16  N   UNL     1      -0.719   0.263  23.960  0.00  0.00    -0.056 NA
ATOM     17  O   UNL     1      -0.672   1.078  24.069  0.00  0.00    -0.336 OA
ENDROOT
BRANCH  15  18
ATOM     18  C   UNL     1      -1.217  -0.866  24.760  0.00  0.00    +0.044 A 
ATOM     19  C   UNL     1      -1.988  -1.153  24.700  0.00  0.00    +0.041 A 
ATOM     20  C   UNL     1      -2.141  -1.954  24.826  0.00  0.00    +0.171 A 
ATOM     21  N   UNL     1      -2.912  -2.242  24.766  0.00  0.00    -0.081 NA
ATOM     26  N   UNL     1      -1.522  -2.468  25.012  0.00  0.00    -0.226 NA
ATOM     27  C   UNL     1      -0.751  -2.181  25.072  0.00  0.00    +0.101 A 
ATOM     28  C   UNL     1      -0.599  -1.379  24.946  0.00  0.00    +0.024 A 
BRANCH  21  22
ATOM     22  S   UNL     1      -3.530  -1.729  24.580  0.00  0.00    +0.076 S 
ATOM     23  C   UNL     1      -4.148  -1.216  24.394  0.00  0.00    +0.202 C 
ATOM     24  O   UNL     1      -3.411  -1.877  23.777  0.00  0.00    -0.153 OA
ATOM     25  O   UNL     1      -3.649  -1.581  25.383  0.00  0.00    -0.153 OA
ENDBRANCH  21  22
ENDBRANCH  15  18
BRANCH  13  12
ATOM      8  N   UNL     1      -1.668   2.540  25.025  0.00  0.00    -0.263 NA
ATOM      9  C   UNL     1      -1.507   3.221  25.462  0.00  0.00    +0.073 C 
ATOM     10  C   UNL     1      -0.787   3.109  25.850  0.00  0.00    +0.019 C 
ATOM     11  C   UNL     1      -0.505   2.359  25.653  0.00  0.00    +0.027 C 
ATOM     12  C   UNL     1      -1.050   2.008  25.143  0.00  0.00    +0.138 C 
BRANCH   8   7
ATOM      7  C   UNL     1      -2.333   2.415  24.552  0.00  0.00    +0.099 C 
BRANCH   7   6
ATOM      3  C   UNL     1      -4.471   3.535  25.100  0.00  0.00    +0.139 A 
ATOM      4  C   UNL     1      -3.915   3.917  24.625  0.00  0.00    +0.037 A 
ATOM      5  C   UNL     1      -3.203   3.544  24.442  0.00  0.00    +0.000 A 
ATOM      6  C   UNL     1      -3.046   2.788  24.735  0.00  0.00    -0.006 A 
ATOM     29  C   UNL     1      -3.602   2.407  25.211  0.00  0.00    +0.000 A 
ATOM     30  C   UNL     1      -4.314   2.781  25.393  0.00  0.00    +0.037 A 
BRANCH   3   2
ATOM      1  C   UNL     1      -5.785   3.488  25.661  0.00  0.00    +0.252 C 
ATOM      2  O   UNL     1      -5.183   3.909  25.282  0.00  0.00    -0.471 OA
ENDBRANCH   3   2
ENDBRANCH   7   6
ENDBRANCH   8   7
ENDBRANCH  13  12
TORSDOF 6
ENDMDL
MODEL 6
REMARK VINA RESULT:     -10.3      1.729      3.663
REMARK  Name = 
REMARK  6 active torsions:
REMARK  status: ('A' for Active; 'I' for Inactive)
REMARK    1  A    between atoms: O_2  and  C_3
REMARK    2  A    between atoms: C_6  and  C_7
REMARK    3  A    between atoms: C_7  and  N_8
REMARK    4  A    between atoms: C_12  and  C_13
REMARK    5  A    between atoms: C_15  and  C_18
REMARK    6  A    between atoms: N_21  and  S_22
REMARK                            x       y       z     vdW  Elec       q    Type
REMARK                         _______ _______ _______ _____ _____    ______ ____
ROOT
ATOM     13  C   UNL     1      -2.341  -0.804  24.549  0.00  0.00    +0.251 A 
ATOM     14  N   UNL     1      -1.840  -0.327  24.097  0.00  0.00    -0.190 NA
ATOM     15  C   UNL     1      -1.080  -0.388  24.411  0.00  0.00    +0.203 A 
ATOM     16  N   UNL     1      -1.111  -0.901  25.056  0.00  0.00    -0.056 NA
ATOM     17  O   UNL     1      -1.889  -1.158  25.141  0.00  0.00    -0.336 OA
ENDROOT
BRANCH  15  18
ATOM     18  C   UNL     1      -0.407  -0.003  24.129  0.00  0.00    +0.044 A 
ATOM     19  C   UNL     1      -0.258   0.779  24.347  0.00  0.00    +0.041 A 
ATOM     20  C   UNL     1       0.415   1.164  24.065  0.00  0.00    +0.171 A 
ATOM     21  N   UNL     1       0.566   1.946  24.283  0.00  0.00    -0.081 NA
ATOM     26  N   UNL     1       0.938   0.768  23.565  0.00  0.00    -0.226 NA
ATOM     27  C   UNL     1       0.789  -0.013  23.347  0.00  0.00    +0.101 A 
ATOM     28  C   UNL     1       0.116  -0.399  23.629  0.00  0.00    +0.024 A 
BRANCH  21  22
ATOM     22  S   UNL     1       0.043   2.342  24.784  0.00  0.00    +0.076 S 
ATOM     23  C   UNL     1      -0.480   2.738  25.284  0.00  0.00    +0.202 C 
ATOM     24  O   UNL     1       0.477   2.088  25.438  0.00  0.00    -0.153 OA
ATOM     25  O   UNL     1      -0.391   2.595  24.130  0.00  0.00    -0.153 OA
ENDBRANCH  21  22
ENDBRANCH  15  18
BRANCH  13  12
ATOM      8  N   UNL     1      -3.747  -0.404  24.692  0.00  0.00    -0.263 NA
ATOM      9  C   UNL     1      -4.471  -0.716  24.450  0.00  0.00    +0.073 C 
ATOM     10  C   UNL     1      -4.321  -1.415  24.037  0.00  0.00    +0.019 C 
ATOM     11  C   UNL     1      -3.505  -1.532  24.023  0.00  0.00    +0.027 C 
ATOM     12  C   UNL     1      -3.150  -0.907  24.429  0.00  0.00    +0.138 C 
BRANCH   8   7
ATOM      7  C   UNL     1      -3.640   0.292  25.123  0.00  0.00    +0.099 C 
BRANCH   7   6
ATOM      3  C   UNL     1      -5.359   2.072  25.049  0.00  0.00    +0.139 A 
ATOM      4  C   UNL     1      -4.679   2.136  24.588  0.00  0.00    +0.037 A 
ATOM      5  C   UNL     1      -4.105   1.544  24.612  0.00  0.00    +0.000 A 
ATOM      6  C   UNL     1      -4.213   0.885  25.098  0.00  0.00    -0.006 A 
ATOM     29  C   UNL     1      -4.894   0.821  25.560  0.00  0.00    +0.000 A 
ATOM     30  C   UNL     1      -5.467   1.414  25.535  0.00  0.00    +0.037 A 
BRANCH   3   2
ATOM      1  C   UNL     1      -5.825   3.360  25.458  0.00  0.00    +0.252 C 
ATOM      2  O   UNL     1      -5.932   2.664  25.025  0.00  0.00    -0.471 OA
ENDBRANCH   3   2
ENDBRANCH   7   6
ENDBRANCH   8   7
ENDBRANCH  13  12
TORSDOF 6
ENDMDL
MODEL 7
REMARK VINA RESULT:     -10.2      1.789      3.403
REMARK  Name = 
REMARK  6 active torsions:
REMARK  status: ('A' for Active; 'I' for Inactive)
REMARK    1  A    between atoms: O_2  and  C_3
REMARK    2  A    between atoms: C_6  and  C_7
REMARK    3  A    between atoms: C_7  and  N_8
REMARK    4  A    between atoms: C_12  and  C_13
REMARK    5  A    between atoms: C_15  and  C_18
REMARK    6  A    between atoms: N_21  and  S_22
REMARK                            x       y       z     vdW  Elec       q    Type
REMARK                         _______ _______ _______ _____ _____    ______ ____
ROOT
ATOM     13  C   UNL     1      -4.299   0.057  24.983  0.00  0.00    +0.251 A 
ATOM     14  N   UNL     1      -4.349   0.835  24.712  0.00  0.00    -0.190 NA
ATOM     15  C   UNL     1      -4.699   1.289  25.304  0.00  0.00    +0.203 A 
ATOM     16  N   UNL     1      -4.865   0.793  25.941  0.00  0.00    -0.056 NA
ATOM     17  O   UNL     1      -4.618   0.033  25.743  0.00  0.00    -0.336 OA
ENDROOT
BRANCH  15  18
ATOM     18  C   UNL     1      -4.856   2.099  25.266  0.00  0.00    +0.044 A 
ATOM     19  C   UNL     1      -4.234   2.641  25.292  0.00  0.00    +0.041 A 
ATOM     20  C   UNL     1      -4.391   3.450  25.254  0.00  0.00    +0.171 A 
ATOM     21  N   UNL     1      -3.770   3.993  25.280  0.00  0.00    -0.081 NA
ATOM     26  N   UNL     1      -5.169   3.717  25.190  0.00  0.00    -0.226 NA
ATOM     27  C   UNL     1      -5.791   3.175  25.164  0.00  0.00    +0.101 A 
ATOM     28  C   UNL     1      -5.634   2.366  25.202  0.00  0.00    +0.024 A 
BRANCH  21  22
ATOM     22  S   UNL     1      -2.992   3.726  25.344  0.00  0.00    +0.076 S 
ATOM     23  C   UNL     1      -2.214   3.459  25.409  0.00  0.00    +0.202 C 
ATOM     24  O   UNL     1      -3.049   3.759  26.167  0.00  0.00    -0.153 OA
ATOM     25  O   UNL     1      -2.936   3.692  24.522  0.00  0.00    -0.153 OA
ENDBRANCH  21  22
ENDBRANCH  15  18
BRANCH  13  12
ATOM      8  N   UNL     1      -3.200  -0.833  24.585  0.00  0.00    -0.263 NA
ATOM      9  C   UNL     1      -3.129  -1.488  24.090  0.00  0.00    +0.073 C 
ATOM     10  C   UNL     1      -3.872  -1.643  23.765  0.00  0.00    +0.019 C 
ATOM     11  C   UNL     1      -4.400  -1.082  24.060  0.00  0.00    +0.027 C 
ATOM     12  C   UNL     1      -3.984  -0.582  24.568  0.00  0.00    +0.138 C 
BRANCH   8   7
ATOM      7  C   UNL     1      -2.591  -0.488  25.023  0.00  0.00    +0.099 C 
BRANCH   7   6
ATOM      3  C   UNL     1      -0.257  -0.607  24.203  0.00  0.00    +0.139 A 
ATOM      4  C   UNL     1      -0.563  -1.217  24.666  0.00  0.00    +0.037 A 
ATOM      5  C   UNL     1      -1.341  -1.178  24.940  0.00  0.00    +0.000 A 
ATOM      6  C   UNL     1      -1.812  -0.528  24.749  0.00  0.00    -0.006 A 
ATOM     29  C   UNL     1      -1.507   0.082  24.286  0.00  0.00    +0.000 A 
ATOM     30  C   UNL     1      -0.729   0.042  24.013  0.00  0.00    +0.037 A 
BRANCH   3   2
ATOM      1  C   UNL     1       0.742  -0.225  23.255  0.00  0.00    +0.252 C 
ATOM      2  O   UNL     1       0.519  -0.646  23.930  0.00  0.00    -0.471 OA
ENDBRANCH   3   2
ENDBRANCH   7   6
ENDBRANCH   8   7
ENDBRANCH  13  12
TORSDOF 6
ENDMDL
MODEL 8
REMARK VINA RESULT:     -10.1      2.208      5.688
REMARK  Name = 
REMARK  6 active torsions:
REMARK  status: ('A' for Active; 'I' for Inactive)
REMARK    1  A    between atoms: O_2  and  C_3
REMARK    2  A    between atoms: C_6  and  C_7
REMARK    3  A    between atoms: C_7  and  N_8
REMARK    4  A    between atoms: C_12  and  C_13
REMARK    5  A    between atoms: C_15  and  C_18
REMARK    6  A    between atoms: N_21  and  S_22
REMARK                            x       y       z     vdW  Elec       q    Type
REMARK                         _______ _______ _______ _____ _____    ______ ____
ROOT
ATOM     13  C   UNL     1      -0.536  -0.447  24.470  0.00  0.00    +0.251 A 
ATOM     14  N   UNL     1      -1.301  -0.629  24.217  0.00  0.00    -0.190 NA
ATOM     15  C   UNL     1      -1.583  -1.247  24.684  0.00  0.00    +0.203 A 
ATOM     16  N   UNL     1      -0.995  -1.447  25.225  0.00  0.00    -0.056 NA
ATOM     17  O   UNL     1      -0.348  -0.953  25.094  0.00  0.00    -0.336 OA
ENDROOT
BRANCH  15  18
ATOM     18  C   UNL     1      -2.325  -1.603  24.620  0.00  0.00    +0.044 A 
ATOM     19  C   UNL     1      -3.008  -1.145  24.679  0.00  0.00    +0.041 A 
ATOM     20  C   UNL     1      -3.750  -1.501  24.615  0.00  0.00    +0.171 A 
ATOM     21  N   UNL     1      -4.434  -1.043  24.673  0.00  0.00    -0.081 NA
ATOM     26  N   UNL     1      -3.808  -2.314  24.492  0.00  0.00    -0.226 NA
ATOM     27  C   UNL     1      -3.125  -2.773  24.434  0.00  0.00    +0.101 A 
ATOM     28  C   UNL     1      -2.383  -2.417  24.498  0.00  0.00    +0.024 A 
BRANCH  21  22
ATOM     22  S   UNL     1      -4.376  -0.229  24.795  0.00  0.00    +0.076 S 
ATOM     23  C   UNL     1      -4.318   0.585  24.917  0.00  0.00    +0.202 C 
ATOM     24  O   UNL     1      -4.348  -0.354  25.610  0.00  0.00    -0.153 OA
ATOM     25  O   UNL     1      -4.404  -0.105  23.980  0.00  0.00    -0.153 OA
ENDBRANCH  21  22
ENDBRANCH  15  18
BRANCH  13  12
ATOM      8  N   UNL     1      -0.045   0.934  24.369  0.00  0.00    -0.263 NA
ATOM      9  C   UNL     1       0.528   1.319  23.918  0.00  0.00    +0.073 C 
ATOM     10  C   UNL     1       0.880   0.759  23.424  0.00  0.00    +0.019 C 
ATOM     11  C   UNL     1       0.524   0.030  23.571  0.00  0.00    +0.027 C 
ATOM     12  C   UNL     1      -0.048   0.138  24.155  0.00  0.00    +0.138 C 
BRANCH   8   7
ATOM      7  C   UNL     1      -0.531   1.285  24.936  0.00  0.00    +0.099 C 
BRANCH   7   6
ATOM      3  C   UNL     1      -0.779   3.748  25.001  0.00  0.00    +0.139 A 
ATOM      4  C   UNL     1      -0.264   3.371  25.524  0.00  0.00    +0.037 A 
ATOM      5  C   UNL     1      -0.181   2.550  25.503  0.00  0.00    +0.000 A 
ATOM      6  C   UNL     1      -0.614   2.107  24.958  0.00  0.00    -0.006 A 
ATOM     29  C   UNL     1      -1.129   2.483  24.434  0.00  0.00    +0.000 A 
ATOM     30  C   UNL     1      -1.211   3.304  24.457  0.00  0.00    +0.037 A 
BRANCH   3   2
ATOM      1  C   UNL     1      -1.569   4.905  25.282  0.00  0.00    +0.252 C 
ATOM      2  O   UNL     1      -0.861   4.568  25.023  0.00  0.00    -0.471 OA
ENDBRANCH   3   2
ENDBRANCH   7   6
ENDBRANCH   8   7
ENDBRANCH  13  12
TORSDOF 6
ENDMDL
MODEL 9
REMARK VINA RESULT:     -10.0      1.985      3.781
REMARK  Name = 
REMARK  6 active torsions:
REMARK  status: ('A' for Active; 'I' for Inactive)
REMARK    1  A    between atoms: O_2  and  C_3
REMARK    2  A    between atoms: C_6  and  C_7
REMARK    3  A    between atoms: C_7  and  N_8
REMARK    4  A    between atoms: C_12  and  C_13
REMARK    5  A    between atoms: C_15  and  C_18
REMARK    6  A    between atoms: N_21  and  S_22
REMARK                            x       y       z     vdW  Elec       q    Type
REMARK                         _______ _______ _______ _____ _____    ______ ____
ROOT
ATOM     13  C   UNL     1      -1.911   3.003  25.149  0.00  0.00    +0.251 A 
ATOM     14  N   UNL     1      -2.632   2.976  25.549  0.00  0.00    -0.190 NA
ATOM     15  C   UNL     1      -3.193   3.370  25.091  0.00  0.00    +0.203 A 
ATOM     16  N   UNL     1      -2.819   3.641  24.408  0.00  0.00    -0.056 NA
ATOM     17  O   UNL     1      -2.028   3.415  24.444  0.00  0.00    -0.336 OA
ENDROOT
BRANCH  15  18
ATOM     18  C   UNL     1      -3.989   3.475  25.283  0.00  0.00    +0.044 A 
ATOM     19  C   UNL     1      -4.510   2.837  25.243  0.00  0.00    +0.041 A 
ATOM     20  C   UNL     1      -5.306   2.942  25.435  0.00  0.00    +0.171 A 
ATOM     21  N   UNL     1      -5.827   2.304  25.396  0.00  0.00    -0.081 NA
ATOM     26  N   UNL     1      -5.580   3.685  25.667  0.00  0.00    -0.226 NA
ATOM     27  C   UNL     1      -5.059   4.323  25.706  0.00  0.00    +0.101 A 
ATOM     28  C   UNL     1      -4.263   4.218  25.514  0.00  0.00    +0.024 A 
BRANCH  21  22
ATOM     22  S   UNL     1      -5.553   1.561  25.165  0.00  0.00    +0.076 S 
ATOM     23  C   UNL     1      -5.279   0.818  24.933  0.00  0.00    +0.202 C 
ATOM     24  O   UNL     1      -5.428   1.361  25.955  0.00  0.00    -0.153 OA
ATOM     25  O   UNL     1      -5.679   1.761  24.374  0.00  0.00    -0.153 OA
ENDBRANCH  21  22
ENDBRANCH  15  18
BRANCH  13  12
ATOM      8  N   UNL     1      -0.927   1.916  25.245  0.00  0.00    -0.263 NA
ATOM      9  C   UNL     1      -0.195   1.822  25.612  0.00  0.00    +0.073 C 
ATOM     10  C   UNL     1      -0.014   2.526  26.004  0.00  0.00    +0.019 C 
ATOM     11  C   UNL     1      -0.635   3.054  25.878  0.00  0.00    +0.027 C 
ATOM     12  C   UNL     1      -1.200   2.677  25.408  0.00  0.00    +0.138 C 
BRANCH   8   7
ATOM      7  C   UNL     1      -1.319   1.348  24.792  0.00  0.00    +0.099 C 
BRANCH   7   6
ATOM      3  C   UNL     1      -0.786  -1.051  25.086  0.00  0.00    +0.139 A 
ATOM      4  C   UNL     1      -0.416  -0.617  24.490  0.00  0.00    +0.037 A 
ATOM      5  C   UNL     1      -0.593   0.183  24.392  0.00  0.00    +0.000 A 
ATOM      6  C   UNL     1      -1.141   0.548  24.890  0.00  0.00    -0.006 A 
ATOM     29  C   UNL     1      -1.511   0.113  25.486  0.00  0.00    +0.000 A 
ATOM     30  C   UNL     1      -1.333  -0.687  25.583  0.00  0.00    +0.037 A 
BRANCH   3   2
ATOM      1  C   UNL     1      -1.151  -2.426  24.945  0.00  0.00    +0.252 C 
ATOM      2  O   UNL     1      -0.608  -1.851  25.183  0.00  0.00    -0.471 OA
ENDBRANCH   3   2
ENDBRANCH   7   6
ENDBRANCH   8   7
ENDBRANCH  13  12
TORSDOF 6
ENDMDL
