MODEL 1
REMARK VINA RESULT:      -9.2      0.000      0.000
REMARK  Name = 
REMARK  1 active torsions:
REMARK  status: ('A' for Active; 'I' for Inactive)
REMARK    1  A    between atoms: C_2  and  C_3
REMARK                            x       y       z     vdW  Elec       q    Type
REMARK                         _______ _______ _______ _____ _____    ______ ____
ROOT
ATOM      1  O   UNL     1      -2.500   0.574  24.003  0.00  0.00    -0.275 OA
ATOM      2  C   UNL     1      -3.231   0.444  24.363  0.00  0.00    +0.225 C 
ATOM      9  N   UNL     1      -3.697   1.086  24.591  0.00  0.00    -0.276 N 
ATOM     10  C   UNL     1      -3.433   1.856  24.458  0.00  0.00    +0.115 C 
ATOM     11  C   UNL     1      -3.899   2.497  24.686  0.00  0.00    +0.117 C 
ATOM     12  N   UNL     1      -4.630   2.369  25.046  0.00  0.00    -0.259 N 
ATOM     13  C   UNL     1      -4.895   1.599  25.179  0.00  0.00    +0.118 C 
ATOM     14  C   UNL     1      -5.633   1.642  25.542  0.00  0.00    +0.138 C 
ATOM     15  N   UNL     1      -5.826   2.438  25.635  0.00  0.00    -0.187 NA
ATOM     16  C   UNL     1      -5.206   2.887  25.328  0.00  0.00    +0.323 C 
ATOM     17  O   UNL     1      -5.168   3.711  25.307  0.00  0.00    -0.251 OA
ATOM     18  C   UNL     1      -4.428   0.957  24.951  0.00  0.00    +0.115 C 
ENDROOT
BRANCH   2   3
ATOM      3  C   UNL     1      -3.495  -0.326  24.495  0.00  0.00    +0.082 C 
ATOM      4  C   UNL     1      -3.314  -0.707  25.204  0.00  0.00    +0.041 C 
ATOM      5  C   UNL     1      -3.579  -1.477  25.337  0.00  0.00    +0.143 C 
ATOM      6  O   UNL     1      -4.024  -1.866  24.760  0.00  0.00    -0.354 OA
ATOM      7  C   UNL     1      -4.204  -1.484  24.052  0.00  0.00    +0.143 C 
ATOM      8  C   UNL     1      -3.939  -0.713  23.919  0.00  0.00    +0.041 C 
ENDBRANCH   2   3
TORSDOF 1
ENDMDL
MODEL 2
REMARK VINA RESULT:      -8.8      1.647      2.614
REMARK  Name = 
REMARK  1 active torsions:
REMARK  status: ('A' for Active; 'I' for Inactive)
REMARK    1  A    between atoms: C_2  and  C_3
REMARK                            x       y       z     vdW  Elec       q    Type
REMARK                         _______ _______ _______ _____ _____    ______ ____
ROOT
ATOM      1  O   UNL     1      -4.749   0.445  25.072  0.00  0.00    -0.275 OA
ATOM      2  C   UNL     1      -4.014   0.142  24.852  0.00  0.00    +0.225 C 
ATOM      9  N   UNL     1      -3.393   0.656  24.672  0.00  0.00    -0.276 N 
ATOM     10  C   UNL     1      -3.509   1.472  24.711  0.00  0.00    +0.115 C 
ATOM     11  C   UNL     1      -2.889   1.985  24.530  0.00  0.00    +0.117 C 
ATOM     12  N   UNL     1      -2.153   1.683  24.310  0.00  0.00    -0.259 N 
ATOM     13  C   UNL     1      -2.038   0.867  24.271  0.00  0.00    +0.118 C 
ATOM     14  C   UNL     1      -1.258   0.730  24.039  0.00  0.00    +0.138 C 
ATOM     15  N   UNL     1      -0.892   1.462  23.935  0.00  0.00    -0.187 NA
ATOM     16  C   UNL     1      -1.445   2.050  24.103  0.00  0.00    +0.323 C 
ATOM     17  O   UNL     1      -1.313   2.864  24.069  0.00  0.00    -0.251 OA
ATOM     18  C   UNL     1      -2.658   0.353  24.452  0.00  0.00    +0.115 C 
ENDROOT
BRANCH   2   3
ATOM      3  C   UNL     1      -3.898  -0.674  24.813  0.00  0.00    +0.082 C 
ATOM      4  C   UNL     1      -4.087  -1.084  24.123  0.00  0.00    +0.041 C 
ATOM      5  C   UNL     1      -3.972  -1.900  24.084  0.00  0.00    +0.143 C 
ATOM      6  O   UNL     1      -3.667  -2.306  24.735  0.00  0.00    -0.354 OA
ATOM      7  C   UNL     1      -3.478  -1.895  25.425  0.00  0.00    +0.143 C 
ATOM      8  C   UNL     1      -3.594  -1.079  25.464  0.00  0.00    +0.041 C 
ENDBRANCH   2   3
TORSDOF 1
ENDMDL
MODEL 3
REMARK VINA RESULT:      -8.7      1.353      1.925
REMARK  Name = 
REMARK  1 active torsions:
REMARK  status: ('A' for Active; 'I' for Inactive)
REMARK    1  A    between atoms: C_2  and  C_3
REMARK                            x       y       z     vdW  Elec       q    Type
REMARK                         _______ _______ _______ _____ _____    ______ ____
ROOT
ATOM      1  O   UNL     1      -4.674  -0.189  25.738  0.00  0.00    -0.275 OA
ATOM      2  C   UNL     1      -4.163  -0.165  25.090  0.00  0.00    +0.225 C 
ATOM      9  N   UNL     1      -3.997   0.556  24.723  0.00  0.00    -0.276 N 
ATOM     10  C   UNL     1      -4.341   1.251  25.004  0.00  0.00    +0.115 C 
ATOM     11  C   UNL     1      -4.175   1.971  24.638  0.00  0.00    +0.117 C 
ATOM     12  N   UNL     1      -3.665   1.996  23.989  0.00  0.00    -0.259 N 
ATOM     13  C   UNL     1      -3.321   1.301  23.708  0.00  0.00    +0.118 C 
ATOM     14  C   UNL     1      -2.844   1.495  23.065  0.00  0.00    +0.138 C 
ATOM     15  N   UNL     1      -2.892   2.310  22.948  0.00  0.00    -0.187 NA
ATOM     16  C   UNL     1      -3.400   2.619  23.519  0.00  0.00    +0.323 C 
ATOM     17  O   UNL     1      -3.607   3.413  23.606  0.00  0.00    -0.251 OA
ATOM     18  C   UNL     1      -3.487   0.580  24.076  0.00  0.00    +0.115 C 
ENDROOT
BRANCH   2   3
ATOM      3  C   UNL     1      -3.819  -0.860  24.809  0.00  0.00    +0.082 C 
ATOM      4  C   UNL     1      -3.093  -1.111  25.110  0.00  0.00    +0.041 C 
ATOM      5  C   UNL     1      -2.749  -1.806  24.829  0.00  0.00    +0.143 C 
ATOM      6  O   UNL     1      -3.131  -2.250  24.247  0.00  0.00    -0.354 OA
ATOM      7  C   UNL     1      -3.857  -1.998  23.948  0.00  0.00    +0.143 C 
ATOM      8  C   UNL     1      -4.201  -1.303  24.229  0.00  0.00    +0.041 C 
ENDBRANCH   2   3
TORSDOF 1
ENDMDL
MODEL 4
REMARK VINA RESULT:      -8.6      2.168      3.529
REMARK  Name = 
REMARK  1 active torsions:
REMARK  status: ('A' for Active; 'I' for Inactive)
REMARK    1  A    between atoms: C_2  and  C_3
REMARK                            x       y       z     vdW  Elec       q    Type
REMARK                         _______ _______ _______ _____ _____    ______ ____
ROOT
ATOM      1  O   UNL     1      -2.228   4.552  25.763  0.00  0.00    -0.275 OA
ATOM      2  C   UNL     1      -2.218   3.773  25.492  0.00  0.00    +0.225 C 
ATOM      9  N   UNL     1      -2.928   3.378  25.345  0.00  0.00    -0.276 N 
ATOM     10  C   UNL     1      -3.647   3.763  25.470  0.00  0.00    +0.115 C 
ATOM     11  C   UNL     1      -4.356   3.368  25.323  0.00  0.00    +0.117 C 
ATOM     12  N   UNL     1      -4.347   2.589  25.051  0.00  0.00    -0.259 N 
ATOM     13  C   UNL     1      -3.628   2.205  24.926  0.00  0.00    +0.118 C 
ATOM     14  C   UNL     1      -3.789   1.442  24.658  0.00  0.00    +0.138 C 
ATOM     15  N   UNL     1      -4.608   1.355  24.617  0.00  0.00    -0.187 NA
ATOM     16  C   UNL     1      -4.952   2.064  24.860  0.00  0.00    +0.323 C 
ATOM     17  O   UNL     1      -5.761   2.220  24.904  0.00  0.00    -0.251 OA
ATOM     18  C   UNL     1      -2.917   2.600  25.073  0.00  0.00    +0.115 C 
ENDROOT
BRANCH   2   3
ATOM      3  C   UNL     1      -1.498   3.389  25.367  0.00  0.00    +0.082 C 
ATOM      4  C   UNL     1      -1.141   2.974  25.984  0.00  0.00    +0.041 C 
ATOM      5  C   UNL     1      -0.421   2.589  25.859  0.00  0.00    +0.143 C 
ATOM      6  O   UNL     1      -0.060   2.620  25.118  0.00  0.00    -0.354 OA
ATOM      7  C   UNL     1      -0.418   3.035  24.502  0.00  0.00    +0.143 C 
ATOM      8  C   UNL     1      -1.138   3.420  24.627  0.00  0.00    +0.041 C 
ENDBRANCH   2   3
TORSDOF 1
ENDMDL
MODEL 5
REMARK VINA RESULT:      -8.6      2.137      3.660
REMARK  Name = 
REMARK  1 active torsions:
REMARK  status: ('A' for Active; 'I' for Inactive)
REMARK    1  A    between atoms: C_2  and  C_3
REMARK                            x       y       z     vdW  Elec       q    Type
REMARK                         _______ _______ _______ _____ _____    ______ ____
ROOT
ATOM      1  O   UNL     1      -3.969   3.076  23.179  0.00  0.00    -0.275 OA
ATOM      2  C   UNL     1      -3.806   2.641  23.861  0.00  0.00    +0.225 C 
ATOM      9  N   UNL     1      -3.117   2.188  23.905  0.00  0.00    -0.276 N 
ATOM     10  C   UNL     1      -2.593   2.169  23.269  0.00  0.00    +0.115 C 
ATOM     11  C   UNL     1      -1.906   1.717  23.314  0.00  0.00    +0.117 C 
ATOM     12  N   UNL     1      -1.741   1.281  23.995  0.00  0.00    -0.259 N 
ATOM     13  C   UNL     1      -2.265   1.300  24.632  0.00  0.00    +0.118 C 
ATOM     14  C   UNL     1      -1.960   0.818  25.227  0.00  0.00    +0.138 C 
ATOM     15  N   UNL     1      -1.247   0.502  24.959  0.00  0.00    -0.187 NA
ATOM     16  C   UNL     1      -1.112   0.789  24.198  0.00  0.00    +0.323 C 
ATOM     17  O   UNL     1      -0.462   0.613  23.721  0.00  0.00    -0.251 OA
ATOM     18  C   UNL     1      -2.954   1.753  24.587  0.00  0.00    +0.115 C 
ENDROOT
BRANCH   2   3
ATOM      3  C   UNL     1      -4.330   2.659  24.498  0.00  0.00    +0.082 C 
ATOM      4  C   UNL     1      -4.253   3.241  25.078  0.00  0.00    +0.041 C 
ATOM      5  C   UNL     1      -4.777   3.259  25.715  0.00  0.00    +0.143 C 
ATOM      6  O   UNL     1      -5.378   2.696  25.771  0.00  0.00    -0.354 OA
ATOM      7  C   UNL     1      -5.454   2.115  25.190  0.00  0.00    +0.143 C 
ATOM      8  C   UNL     1      -4.930   2.097  24.554  0.00  0.00    +0.041 C 
ENDBRANCH   2   3
TORSDOF 1
ENDMDL
MODEL 6
REMARK VINA RESULT:      -8.5      1.809      2.540
REMARK  Name = 
REMARK  1 active torsions:
REMARK  status: ('A' for Active; 'I' for Inactive)
REMARK    1  A    between atoms: C_2  and  C_3
REMARK                            x       y       z     vdW  Elec       q    Type
REMARK                         _______ _______ _______ _____ _____    ______ ____
ROOT
ATOM      1  O   UNL     1      -5.002   2.216  24.245  0.00  0.00    -0.275 OA
ATOM      2  C   UNL     1      -4.258   1.958  24.491  0.00  0.00    +0.225 C 
ATOM      9  N   UNL     1      -3.681   2.509  24.703  0.00  0.00    -0.276 N 
ATOM     10  C   UNL     1      -3.848   3.316  24.668  0.00  0.00    +0.115 C 
ATOM     11  C   UNL     1      -3.271   3.866  24.880  0.00  0.00    +0.117 C 
ATOM     12  N   UNL     1      -2.526   3.609  25.126  0.00  0.00    -0.259 N 
ATOM     13  C   UNL     1      -2.359   2.802  25.161  0.00  0.00    +0.118 C 
ATOM     14  C   UNL     1      -1.583   2.713  25.423  0.00  0.00    +0.138 C 
ATOM     15  N   UNL     1      -1.269   3.465  25.551  0.00  0.00    -0.187 NA
ATOM     16  C   UNL     1      -1.852   4.019  25.367  0.00  0.00    +0.323 C 
ATOM     17  O   UNL     1      -1.775   4.839  25.415  0.00  0.00    -0.251 OA
ATOM     18  C   UNL     1      -2.937   2.251  24.949  0.00  0.00    +0.115 C 
ENDROOT
BRANCH   2   3
ATOM      3  C   UNL     1      -4.091   1.151  24.526  0.00  0.00    +0.082 C 
ATOM      4  C   UNL     1      -4.288   0.719  25.201  0.00  0.00    +0.041 C 
ATOM      5  C   UNL     1      -4.121  -0.089  25.236  0.00  0.00    +0.143 C 
ATOM      6  O   UNL     1      -3.758  -0.463  24.596  0.00  0.00    -0.354 OA
ATOM      7  C   UNL     1      -3.562  -0.030  23.922  0.00  0.00    +0.143 C 
ATOM      8  C   UNL     1      -3.729   0.777  23.887  0.00  0.00    +0.041 C 
ENDBRANCH   2   3
TORSDOF 1
ENDMDL
MODEL 7
REMARK VINA RESULT:      -8.4      1.295      3.772
REMARK  Name = 
REMARK  1 active torsions:
REMARK  status: ('A' for Active; 'I' for Inactive)
REMARK    1  A    between atoms: C_2  and  C_3
REMARK                            x       y       z     vdW  Elec       q    Type
REMARK                         _______ _______ _______ _____ _____    ______ ____
ROOT
ATOM      1  O   UNL     1      -5.470   1.497  24.707  0.00  0.00    -0.275 OA
ATOM      2  C   UNL     1      -4.654   1.618  24.730  0.00  0.00    +0.225 C 
ATOM      9  N   UNL     1      -4.144   0.977  24.831  0.00  0.00    -0.276 N 
ATOM     10  C   UNL     1      -4.450   0.215  24.908  0.00  0.00    +0.115 C 
ATOM     11  C   UNL     1      -3.941  -0.426  25.008  0.00  0.00    +0.117 C 
ATOM     12  N   UNL     1      -3.125  -0.305  25.031  0.00  0.00    -0.259 N 
ATOM     13  C   UNL     1      -2.819   0.457  24.954  0.00  0.00    +0.118 C 
ATOM     14  C   UNL     1      -1.997   0.407  24.998  0.00  0.00    +0.138 C 
ATOM     15  N   UNL     1      -1.795  -0.385  25.102  0.00  0.00    -0.187 NA
ATOM     16  C   UNL     1      -2.492  -0.825  25.123  0.00  0.00    +0.323 C 
ATOM     17  O   UNL     1      -2.547  -1.643  25.219  0.00  0.00    -0.251 OA
ATOM     18  C   UNL     1      -3.329   1.099  24.854  0.00  0.00    +0.115 C 
ENDROOT
BRANCH   2   3
ATOM      3  C   UNL     1      -4.348   2.381  24.653  0.00  0.00    +0.082 C 
ATOM      4  C   UNL     1      -4.255   2.857  25.320  0.00  0.00    +0.041 C 
ATOM      5  C   UNL     1      -3.949   3.619  25.243  0.00  0.00    +0.143 C 
ATOM      6  O   UNL     1      -3.736   3.905  24.498  0.00  0.00    -0.354 OA
ATOM      7  C   UNL     1      -3.829   3.428  23.832  0.00  0.00    +0.143 C 
ATOM      8  C   UNL     1      -4.135   2.666  23.909  0.00  0.00    +0.041 C 
ENDBRANCH   2   3
TORSDOF 1
ENDMDL
MODEL 8
REMARK VINA RESULT:      -8.4      1.762      3.693
REMARK  Name = 
REMARK  1 active torsions:
REMARK  status: ('A' for Active; 'I' for Inactive)
REMARK    1  A    between atoms: C_2  and  C_3
REMARK                            x       y       z     vdW  Elec       q    Type
REMARK                         _______ _______ _______ _____ _____    ______ ____
ROOT
ATOM      1  O   UNL     1      -1.850   1.149  25.293  0.00  0.00    -0.275 OA
ATOM      2  C   UNL     1      -2.457   0.915  24.786  0.00  0.00    +0.225 C 
ATOM      9  N   UNL     1      -2.721   0.132  24.793  0.00  0.00    -0.276 N 
ATOM     10  C   UNL     1      -2.377  -0.415  25.306  0.00  0.00    +0.115 C 
ATOM     11  C   UNL     1      -2.641  -1.196  25.313  0.00  0.00    +0.117 C 
ATOM     12  N   UNL     1      -3.248  -1.431  24.806  0.00  0.00    -0.259 N 
ATOM     13  C   UNL     1      -3.591  -0.885  24.293  0.00  0.00    +0.118 C 
ATOM     14  C   UNL     1      -4.175  -1.274  23.860  0.00  0.00    +0.138 C 
ATOM     15  N   UNL     1      -4.193  -2.061  24.105  0.00  0.00    -0.187 NA
ATOM     16  C   UNL     1      -3.620  -2.158  24.690  0.00  0.00    +0.323 C 
ATOM     17  O   UNL     1      -3.448  -2.859  25.090  0.00  0.00    -0.251 OA
ATOM     18  C   UNL     1      -3.328  -0.102  24.286  0.00  0.00    +0.115 C 
ENDROOT
BRANCH   2   3
ATOM      3  C   UNL     1      -2.801   1.461  24.272  0.00  0.00    +0.082 C 
ATOM      4  C   UNL     1      -2.491   1.565  23.514  0.00  0.00    +0.041 C 
ATOM      5  C   UNL     1      -2.835   2.111  23.000  0.00  0.00    +0.143 C 
ATOM      6  O   UNL     1      -3.487   2.554  23.244  0.00  0.00    -0.354 OA
ATOM      7  C   UNL     1      -3.795   2.450  24.002  0.00  0.00    +0.143 C 
ATOM      8  C   UNL     1      -3.452   1.903  24.516  0.00  0.00    +0.041 C 
ENDBRANCH   2   3
TORSDOF 1
ENDMDL
MODEL 9
REMARK VINA RESULT:      -8.3      1.374      2.293
REMARK  Name = 
REMARK  1 active torsions:
REMARK  status: ('A' for Active; 'I' for Inactive)
REMARK    1  A    between atoms: C_2  and  C_3
REMARK                            x       y       z     vdW  Elec       q    Type
REMARK                         _______ _______ _______ _____ _____    ______ ____
ROOT
ATOM      1  O   UNL     1      -3.772   0.102  23.919  0.00  0.00    -0.275 OA
ATOM      2  C   UNL     1      -3.587   0.897  24.040  0.00  0.00    +0.225 C 
ATOM      9  N   UNL     1      -4.077   1.368  24.509  0.00  0.00    -0.276 N 
ATOM     10  C   UNL     1      -4.751   1.043  24.856  0.00  0.00    +0.115 C 
ATOM     11  C   UNL     1      -5.241   1.513  25.324  0.00  0.00    +0.117 C 
ATOM     12  N   UNL     1      -5.057   2.308  25.446  0.00  0.00    -0.259 N 
ATOM     13  C   UNL     1      -4.383   2.633  25.099  0.00  0.00    +0.118 C 
ATOM     14  C   UNL     1      -4.342   3.427  25.315  0.00  0.00    +0.138 C 
ATOM     15  N   UNL     1      -4.990   3.594  25.796  0.00  0.00    -0.187 NA
ATOM     16  C   UNL     1      -5.432   2.902  25.877  0.00  0.00    +0.323 C 
ATOM     17  O   UNL     1      -6.128   2.819  26.313  0.00  0.00    -0.251 OA
ATOM     18  C   UNL     1      -3.892   2.162  24.629  0.00  0.00    +0.115 C 
ENDROOT
BRANCH   2   3
ATOM      3  C   UNL     1      -2.913   1.222  23.692  0.00  0.00    +0.082 C 
ATOM      4  C   UNL     1      -2.185   1.168  24.077  0.00  0.00    +0.041 C 
ATOM      5  C   UNL     1      -1.511   1.493  23.729  0.00  0.00    +0.143 C 
ATOM      6  O   UNL     1      -1.565   1.871  22.997  0.00  0.00    -0.354 OA
ATOM      7  C   UNL     1      -2.293   1.924  22.614  0.00  0.00    +0.143 C 
ATOM      8  C   UNL     1      -2.967   1.599  22.961  0.00  0.00    +0.041 C 
ENDBRANCH   2   3
TORSDOF 1
ENDMDL
