MODEL 1
REMARK VINA RESULT:     -14.3      0.000      0.000
REMARK  Name = 
REMARK  4 active torsions:
REMARK  status: ('A' for Active; 'I' for Inactive)
REMARK    1  A    between atoms: C_5  and  C_6
REMARK    2  A    between atoms: C_6  and  N_7
REMARK    3  A    between atoms: C_16  and  N_17
REMARK    4  A    between atoms: C_18  and  C_20
REMARK                            x       y       z     vdW  Elec       q    Type
REMARK                         _______ _______ _______ _____ _____    ______ ____
ROOT
ATOM      7  N   UNL     1      -2.778   2.963  25.086  0.00  0.00    -0.269 NA
ATOM      8  C   UNL     1      -2.863   3.774  25.268  0.00  0.00    +0.074 C 
ATOM      9  C   UNL     1      -3.849   3.832  25.308  0.00  0.00    +0.039 C 
ATOM     10  C   UNL     1      -4.632   4.044  25.376  0.00  0.00    +0.011 C 
ATOM     11  C   UNL     1      -4.262   3.464  25.238  0.00  0.00    +0.054 C 
ATOM     12  C   UNL     1      -3.309   3.424  25.203  0.00  0.00    +0.078 C 
ATOM     13  C   UNL     1      -4.366   2.572  25.043  0.00  0.00    +0.041 A 
ATOM     14  C   UNL     1      -4.954   2.004  24.934  0.00  0.00    +0.014 A 
ATOM     15  C   UNL     1      -4.748   1.226  24.756  0.00  0.00    +0.023 A 
ATOM     16  C   UNL     1      -3.953   1.014  24.688  0.00  0.00    +0.130 A 
ATOM     26  C   UNL     1      -3.365   1.582  24.797  0.00  0.00    +0.276 A 
ATOM     27  O   UNL     1      -2.570   1.371  24.729  0.00  0.00    -0.266 OA
ATOM     28  N   UNL     1      -3.571   2.361  24.975  0.00  0.00    -0.298 N 
ATOM     29  C   UNL     1      -3.947   2.899  25.104  0.00  0.00    +0.110 C 
ENDROOT
BRANCH  16  17
ATOM     17  N   UNL     1      -3.748   0.236  24.510  0.00  0.00    -0.171 NA
ATOM     18  C   UNL     1      -4.127  -0.388  24.894  0.00  0.00    +0.269 C 
ATOM     19  O   UNL     1      -4.712  -0.233  25.455  0.00  0.00    -0.268 OA
BRANCH  18  20
ATOM     20  C   UNL     1      -3.923  -1.167  24.717  0.00  0.00    +0.058 A 
ATOM     21  C   UNL     1      -4.214  -1.525  24.033  0.00  0.00    +0.025 A 
ATOM     22  C   UNL     1      -4.009  -2.305  23.856  0.00  0.00    +0.099 A 
ATOM     23  N   UNL     1      -3.513  -2.726  24.363  0.00  0.00    -0.242 NA
ATOM     24  C   UNL     1      -3.221  -2.369  25.047  0.00  0.00    +0.099 A 
ATOM     25  C   UNL     1      -3.427  -1.589  25.224  0.00  0.00    +0.025 A 
ENDBRANCH  18  20
ENDBRANCH  16  17
BRANCH   7   6
ATOM      6  C   UNL     1      -2.404   2.247  24.918  0.00  0.00    +0.099 C 
BRANCH   6   5
ATOM      1  F   UNL     1       0.891   2.093  24.813  0.00  0.00    -0.204 F 
ATOM      2  C   UNL     1       0.067   2.132  24.839  0.00  0.00    +0.140 A 
ATOM      3  C   UNL     1      -0.328   2.012  25.552  0.00  0.00    +0.029 A 
ATOM      4  C   UNL     1      -1.153   2.050  25.579  0.00  0.00    -0.001 A 
ATOM      5  C   UNL     1      -1.581   2.208  24.891  0.00  0.00    -0.006 A 
ATOM     30  C   UNL     1      -1.184   2.328  24.178  0.00  0.00    -0.001 A 
ATOM     31  C   UNL     1      -0.360   2.290  24.151  0.00  0.00    +0.029 A 
ENDBRANCH   6   5
ENDBRANCH   7   6
TORSDOF 4
ENDMDL
MODEL 2
REMARK VINA RESULT:     -14.2      1.568      3.922
REMARK  Name = 
REMARK  4 active torsions:
REMARK  status: ('A' for Active; 'I' for Inactive)
REMARK    1  A    between atoms: C_5  and  C_6
REMARK    2  A    between atoms: C_6  and  N_7
REMARK    3  A    between atoms: C_16  and  N_17
REMARK    4  A    between atoms: C_18  and  C_20
REMARK                            x       y       z     vdW  Elec       q    Type
REMARK                         _______ _______ _______ _____ _____    ______ ____
ROOT
ATOM      7  N   UNL     1      -4.928   0.873  24.987  0.00  0.00    -0.269 NA
ATOM      8  C   UNL     1      -5.761   0.860  25.043  0.00  0.00    +0.074 C 
ATOM      9  C   UNL     1      -5.937   1.828  25.132  0.00  0.00    +0.039 C 
ATOM     10  C   UNL     1      -6.244   2.578  25.213  0.00  0.00    +0.011 C 
ATOM     11  C   UNL     1      -5.612   2.281  25.146  0.00  0.00    +0.054 C 
ATOM     12  C   UNL     1      -5.459   1.343  25.061  0.00  0.00    +0.078 C 
ATOM     13  C   UNL     1      -4.718   2.491  25.102  0.00  0.00    +0.041 A 
ATOM     14  C   UNL     1      -4.211   3.141  25.120  0.00  0.00    +0.014 A 
ATOM     15  C   UNL     1      -3.396   3.030  25.055  0.00  0.00    +0.023 A 
ATOM     16  C   UNL     1      -3.088   2.269  24.973  0.00  0.00    +0.130 A 
ATOM     26  C   UNL     1      -3.595   1.619  24.955  0.00  0.00    +0.276 A 
ATOM     27  O   UNL     1      -3.287   0.858  24.873  0.00  0.00    -0.266 OA
ATOM     28  N   UNL     1      -4.410   1.730  25.020  0.00  0.00    -0.298 N 
ATOM     29  C   UNL     1      -5.001   2.037  25.085  0.00  0.00    +0.110 C 
ENDROOT
BRANCH  16  17
ATOM     17  N   UNL     1      -2.273   2.159  24.908  0.00  0.00    -0.171 NA
ATOM     18  C   UNL     1      -1.757   2.668  25.302  0.00  0.00    +0.269 C 
ATOM     19  O   UNL     1      -2.055   3.286  25.759  0.00  0.00    -0.268 OA
BRANCH  18  20
ATOM     20  C   UNL     1      -0.941   2.559  25.238  0.00  0.00    +0.058 A 
ATOM     21  C   UNL     1      -0.582   2.556  24.495  0.00  0.00    +0.025 A 
ATOM     22  C   UNL     1       0.233   2.447  24.431  0.00  0.00    +0.099 A 
ATOM     23  N   UNL     1       0.689   2.341  25.111  0.00  0.00    -0.242 NA
ATOM     24  C   UNL     1       0.331   2.344  25.853  0.00  0.00    +0.099 A 
ATOM     25  C   UNL     1      -0.485   2.453  25.917  0.00  0.00    +0.025 A 
ENDBRANCH  18  20
ENDBRANCH  16  17
BRANCH   7   6
ATOM      6  C   UNL     1      -4.157   0.588  24.911  0.00  0.00    +0.099 C 
BRANCH   6   5
ATOM      1  F   UNL     1      -3.617  -2.655  24.623  0.00  0.00    -0.204 F 
ATOM      2  C   UNL     1      -3.752  -1.843  24.695  0.00  0.00    +0.140 A 
ATOM      3  C   UNL     1      -3.655  -1.473  25.425  0.00  0.00    +0.029 A 
ATOM      4  C   UNL     1      -3.790  -0.662  25.497  0.00  0.00    -0.001 A 
ATOM      5  C   UNL     1      -4.022  -0.222  24.839  0.00  0.00    -0.006 A 
ATOM     30  C   UNL     1      -4.119  -0.593  24.109  0.00  0.00    -0.001 A 
ATOM     31  C   UNL     1      -3.984  -1.404  24.036  0.00  0.00    +0.029 A 
ENDBRANCH   6   5
ENDBRANCH   7   6
TORSDOF 4
ENDMDL
MODEL 3
REMARK VINA RESULT:     -14.1      1.780      2.293
REMARK  Name = 
REMARK  4 active torsions:
REMARK  status: ('A' for Active; 'I' for Inactive)
REMARK    1  A    between atoms: C_5  and  C_6
REMARK    2  A    between atoms: C_6  and  N_7
REMARK    3  A    between atoms: C_16  and  N_17
REMARK    4  A    between atoms: C_18  and  C_20
REMARK                            x       y       z     vdW  Elec       q    Type
REMARK                         _______ _______ _______ _____ _____    ______ ____
ROOT
ATOM      7  N   UNL     1      -4.249   2.797  25.135  0.00  0.00    -0.269 NA
ATOM      8  C   UNL     1      -4.978   3.206  25.137  0.00  0.00    +0.074 C 
ATOM      9  C   UNL     1      -5.598   2.441  25.059  0.00  0.00    +0.039 C 
ATOM     10  C   UNL     1      -6.230   1.931  25.000  0.00  0.00    +0.011 C 
ATOM     11  C   UNL     1      -5.530   1.889  25.023  0.00  0.00    +0.054 C 
ATOM     12  C   UNL     1      -4.943   2.639  25.098  0.00  0.00    +0.078 C 
ATOM     13  C   UNL     1      -4.843   1.279  25.005  0.00  0.00    +0.041 A 
ATOM     14  C   UNL     1      -4.709   0.466  24.952  0.00  0.00    +0.014 A 
ATOM     15  C   UNL     1      -3.938   0.174  24.960  0.00  0.00    +0.023 A 
ATOM     16  C   UNL     1      -3.300   0.695  25.021  0.00  0.00    +0.130 A 
ATOM     26  C   UNL     1      -3.434   1.507  25.073  0.00  0.00    +0.276 A 
ATOM     27  O   UNL     1      -2.796   2.027  25.134  0.00  0.00    -0.266 OA
ATOM     28  N   UNL     1      -4.205   1.799  25.065  0.00  0.00    -0.298 N 
ATOM     29  C   UNL     1      -4.874   1.811  25.042  0.00  0.00    +0.110 C 
ENDROOT
BRANCH  16  17
ATOM     17  N   UNL     1      -2.529   0.402  25.028  0.00  0.00    -0.171 NA
ATOM     18  C   UNL     1      -2.361  -0.327  24.679  0.00  0.00    +0.269 C 
ATOM     19  O   UNL     1      -2.965  -0.761  24.322  0.00  0.00    -0.268 OA
BRANCH  18  20
ATOM     20  C   UNL     1      -1.591  -0.620  24.686  0.00  0.00    +0.058 A 
ATOM     21  C   UNL     1      -1.034  -0.332  24.150  0.00  0.00    +0.025 A 
ATOM     22  C   UNL     1      -0.263  -0.625  24.157  0.00  0.00    +0.099 A 
ATOM     23  N   UNL     1      -0.049  -1.208  24.702  0.00  0.00    -0.242 NA
ATOM     24  C   UNL     1      -0.605  -1.497  25.237  0.00  0.00    +0.099 A 
ATOM     25  C   UNL     1      -1.377  -1.202  25.230  0.00  0.00    +0.025 A 
ENDBRANCH  18  20
ENDBRANCH  16  17
BRANCH   7   6
ATOM      6  C   UNL     1      -3.433   2.678  25.157  0.00  0.00    +0.099 C 
BRANCH   6   5
ATOM      1  F   UNL     1      -1.397   5.263  25.418  0.00  0.00    -0.204 F 
ATOM      2  C   UNL     1      -1.907   4.616  25.353  0.00  0.00    +0.140 A 
ATOM      3  C   UNL     1      -2.243   4.287  26.029  0.00  0.00    +0.029 A 
ATOM      4  C   UNL     1      -2.753   3.641  25.964  0.00  0.00    -0.001 A 
ATOM      5  C   UNL     1      -2.924   3.324  25.222  0.00  0.00    -0.006 A 
ATOM     30  C   UNL     1      -2.587   3.654  24.545  0.00  0.00    -0.001 A 
ATOM     31  C   UNL     1      -2.078   4.300  24.610  0.00  0.00    +0.029 A 
ENDBRANCH   6   5
ENDBRANCH   7   6
TORSDOF 4
ENDMDL
MODEL 4
REMARK VINA RESULT:     -13.7      1.974      3.372
REMARK  Name = 
REMARK  4 active torsions:
REMARK  status: ('A' for Active; 'I' for Inactive)
REMARK    1  A    between atoms: C_5  and  C_6
REMARK    2  A    between atoms: C_6  and  N_7
REMARK    3  A    between atoms: C_16  and  N_17
REMARK    4  A    between atoms: C_18  and  C_20
REMARK                            x       y       z     vdW  Elec       q    Type
REMARK                         _______ _______ _______ _____ _____    ______ ____
ROOT
ATOM      7  N   UNL     1      -2.687   3.687  25.122  0.00  0.00    -0.269 NA
ATOM      8  C   UNL     1      -2.681   4.521  25.081  0.00  0.00    +0.074 C 
ATOM      9  C   UNL     1      -1.706   4.681  25.106  0.00  0.00    +0.039 C 
ATOM     10  C   UNL     1      -0.947   4.976  25.117  0.00  0.00    +0.011 C 
ATOM     11  C   UNL     1      -1.260   4.348  25.137  0.00  0.00    +0.054 C 
ATOM     12  C   UNL     1      -2.204   4.210  25.112  0.00  0.00    +0.078 C 
ATOM     13  C   UNL     1      -1.071   3.450  25.188  0.00  0.00    +0.041 A 
ATOM     14  C   UNL     1      -0.430   2.933  25.236  0.00  0.00    +0.014 A 
ATOM     15  C   UNL     1      -0.561   2.119  25.272  0.00  0.00    +0.023 A 
ATOM     16  C   UNL     1      -1.331   1.823  25.260  0.00  0.00    +0.130 A 
ATOM     26  C   UNL     1      -1.971   2.341  25.213  0.00  0.00    +0.276 A 
ATOM     27  O   UNL     1      -2.741   2.045  25.202  0.00  0.00    -0.266 OA
ATOM     28  N   UNL     1      -1.841   3.155  25.177  0.00  0.00    -0.298 N 
ATOM     29  C   UNL     1      -1.518   3.741  25.159  0.00  0.00    +0.110 C 
ENDROOT
BRANCH  16  17
ATOM     17  N   UNL     1      -1.460   1.009  25.296  0.00  0.00    -0.171 NA
ATOM     18  C   UNL     1      -0.998   0.498  24.842  0.00  0.00    +0.269 C 
ATOM     19  O   UNL     1      -0.408   0.801  24.352  0.00  0.00    -0.268 OA
BRANCH  18  20
ATOM     20  C   UNL     1      -1.126  -0.316  24.878  0.00  0.00    +0.058 A 
ATOM     21  C   UNL     1      -0.601  -0.799  25.292  0.00  0.00    +0.025 A 
ATOM     22  C   UNL     1      -0.729  -1.613  25.327  0.00  0.00    +0.099 A 
ATOM     23  N   UNL     1      -1.384  -1.944  24.948  0.00  0.00    -0.242 NA
ATOM     24  C   UNL     1      -1.909  -1.462  24.534  0.00  0.00    +0.099 A 
ATOM     25  C   UNL     1      -1.780  -0.647  24.499  0.00  0.00    +0.025 A 
ENDBRANCH  18  20
ENDBRANCH  16  17
BRANCH   7   6
ATOM      6  C   UNL     1      -2.991   2.920  25.150  0.00  0.00    +0.099 C 
BRANCH   6   5
ATOM      1  F   UNL     1      -6.251   2.429  25.010  0.00  0.00    -0.204 F 
ATOM      2  C   UNL     1      -5.436   2.552  25.045  0.00  0.00    +0.140 A 
ATOM      3  C   UNL     1      -4.971   2.426  24.375  0.00  0.00    +0.029 A 
ATOM      4  C   UNL     1      -4.156   2.549  24.410  0.00  0.00    -0.001 A 
ATOM      5  C   UNL     1      -3.805   2.797  25.115  0.00  0.00    -0.006 A 
ATOM     30  C   UNL     1      -4.271   2.923  25.784  0.00  0.00    -0.001 A 
ATOM     31  C   UNL     1      -5.087   2.800  25.749  0.00  0.00    +0.029 A 
ENDBRANCH   6   5
ENDBRANCH   7   6
TORSDOF 4
ENDMDL
