MODEL 1
REMARK VINA RESULT:      -8.7      0.000      0.000
REMARK  Name = 
REMARK  6 active torsions:
REMARK  status: ('A' for Active; 'I' for Inactive)
REMARK    1  A    between atoms: C_2  and  C_3
REMARK    2  A    between atoms: C_3  and  C_4
REMARK    3  A    between atoms: C_6  and  C_7
REMARK    4  A    between atoms: C_7  and  C_8
REMARK    5  A    between atoms: C_8  and  N_12
REMARK    6  A    between atoms: N_12  and  C_13
REMARK                            x       y       z     vdW  Elec       q    Type
REMARK                         _______ _______ _______ _____ _____    ______ ____
ROOT
ATOM      8  C   UNL     1      -3.275   0.076  24.555  0.00  0.00    +0.119 C 
ATOM      9  C   UNL     1      -2.627  -0.275  24.926  0.00  0.00    +0.161 C 
ATOM     10  O   UNL     1      -2.122   0.247  24.533  0.00  0.00    -0.351 OA
ATOM     11  C   UNL     1      -2.770   0.597  24.163  0.00  0.00    +0.161 C 
ENDROOT
BRANCH   8   7
ATOM      7  C   UNL     1      -3.925   0.427  24.186  0.00  0.00    +0.070 C 
BRANCH   7   6
ATOM      4  C   UNL     1      -4.826   2.216  24.921  0.00  0.00    +0.157 A 
ATOM      5  C   UNL     1      -4.805   1.394  24.856  0.00  0.00    +0.054 A 
ATOM      6  C   UNL     1      -4.154   1.192  24.392  0.00  0.00    +0.102 A 
ATOM     19  N   UNL     1      -3.771   1.889  24.170  0.00  0.00    -0.082 NA
ATOM     20  O   UNL     1      -4.187   2.522  24.498  0.00  0.00    -0.358 OA
BRANCH   4   3
ATOM      3  C   UNL     1      -5.387   2.656  25.337  0.00  0.00    +0.103 C 
BRANCH   3   2
ATOM      1  O   UNL     1      -5.856   3.920  25.808  0.00  0.00    -0.220 OA
ATOM      2  C   UNL     1      -5.255   3.456  25.488  0.00  0.00    +0.190 C 
ENDBRANCH   3   2
ENDBRANCH   4   3
ENDBRANCH   7   6
ENDBRANCH   8   7
BRANCH   8  12
ATOM     12  N   UNL     1      -3.781  -0.445  24.948  0.00  0.00    -0.217 NA
BRANCH  12  13
ATOM     13  C   UNL     1      -3.783  -1.246  24.750  0.00  0.00    +0.078 C 
ATOM     14  C   UNL     1      -4.134  -1.496  24.047  0.00  0.00    +0.050 C 
ATOM     15  C   UNL     1      -4.136  -2.296  23.848  0.00  0.00    +0.144 C 
ATOM     16  O   UNL     1      -3.785  -2.847  24.353  0.00  0.00    -0.354 OA
ATOM     17  C   UNL     1      -3.434  -2.597  25.055  0.00  0.00    +0.144 C 
ATOM     18  C   UNL     1      -3.432  -1.796  25.254  0.00  0.00    +0.050 C 
ENDBRANCH  12  13
ENDBRANCH   8  12
TORSDOF 6
ENDMDL
MODEL 2
REMARK VINA RESULT:      -8.2      0.928      4.270
REMARK  Name = 
REMARK  6 active torsions:
REMARK  status: ('A' for Active; 'I' for Inactive)
REMARK    1  A    between atoms: C_2  and  C_3
REMARK    2  A    between atoms: C_3  and  C_4
REMARK    3  A    between atoms: C_6  and  C_7
REMARK    4  A    between atoms: C_7  and  C_8
REMARK    5  A    between atoms: C_8  and  N_12
REMARK    6  A    between atoms: N_12  and  C_13
REMARK                            x       y       z     vdW  Elec       q    Type
REMARK                         _______ _______ _______ _____ _____    ______ ____
ROOT
ATOM      8  C   UNL     1      -3.616   1.568  24.242  0.00  0.00    +0.119 C 
ATOM      9  C   UNL     1      -3.133   2.222  24.102  0.00  0.00    +0.161 C 
ATOM     10  O   UNL     1      -3.034   1.979  23.320  0.00  0.00    -0.351 OA
ATOM     11  C   UNL     1      -3.516   1.326  23.460  0.00  0.00    +0.161 C 
ENDROOT
BRANCH   8   7
ATOM      7  C   UNL     1      -4.100   0.914  24.383  0.00  0.00    +0.070 C 
BRANCH   7   6
ATOM      4  C   UNL     1      -3.603  -1.161  24.339  0.00  0.00    +0.157 A 
ATOM      5  C   UNL     1      -4.128  -0.543  24.190  0.00  0.00    +0.054 A 
ATOM      6  C   UNL     1      -3.769   0.160  24.431  0.00  0.00    +0.102 A 
ATOM     19  N   UNL     1      -3.022  -0.024  24.730  0.00  0.00    -0.082 NA
ATOM     20  O   UNL     1      -2.919  -0.841  24.673  0.00  0.00    -0.358 OA
BRANCH   4   3
ATOM      3  C   UNL     1      -3.737  -1.960  24.182  0.00  0.00    +0.103 C 
BRANCH   3   2
ATOM      1  O   UNL     1      -3.621  -3.332  24.563  0.00  0.00    -0.220 OA
ATOM      2  C   UNL     1      -3.499  -2.533  24.726  0.00  0.00    +0.190 C 
ENDBRANCH   3   2
ENDBRANCH   4   3
ENDBRANCH   7   6
ENDBRANCH   8   7
BRANCH   8  12
ATOM     12  N   UNL     1      -3.717   1.810  25.025  0.00  0.00    -0.217 NA
BRANCH  12  13
ATOM     13  C   UNL     1      -4.184   2.469  25.196  0.00  0.00    +0.078 C 
ATOM     14  C   UNL     1      -3.829   3.193  25.367  0.00  0.00    +0.050 C 
ATOM     15  C   UNL     1      -4.295   3.851  25.539  0.00  0.00    +0.144 C 
ATOM     16  O   UNL     1      -5.117   3.785  25.539  0.00  0.00    -0.354 OA
ATOM     17  C   UNL     1      -5.473   3.060  25.367  0.00  0.00    +0.144 C 
ATOM     18  C   UNL     1      -5.006   2.402  25.196  0.00  0.00    +0.050 C 
ENDBRANCH  12  13
ENDBRANCH   8  12
TORSDOF 6
ENDMDL
MODEL 3
REMARK VINA RESULT:      -8.2      2.004      4.457
REMARK  Name = 
REMARK  6 active torsions:
REMARK  status: ('A' for Active; 'I' for Inactive)
REMARK    1  A    between atoms: C_2  and  C_3
REMARK    2  A    between atoms: C_3  and  C_4
REMARK    3  A    between atoms: C_6  and  C_7
REMARK    4  A    between atoms: C_7  and  C_8
REMARK    5  A    between atoms: C_8  and  N_12
REMARK    6  A    between atoms: N_12  and  C_13
REMARK                            x       y       z     vdW  Elec       q    Type
REMARK                         _______ _______ _______ _____ _____    ______ ____
ROOT
ATOM      8  C   UNL     1      -3.319   2.518  24.307  0.00  0.00    +0.119 C 
ATOM      9  C   UNL     1      -3.668   3.261  24.229  0.00  0.00    +0.161 C 
ATOM     10  O   UNL     1      -3.934   3.057  23.476  0.00  0.00    -0.351 OA
ATOM     11  C   UNL     1      -3.586   2.314  23.554  0.00  0.00    +0.161 C 
ENDROOT
BRANCH   8   7
ATOM      7  C   UNL     1      -2.970   1.774  24.385  0.00  0.00    +0.070 C 
BRANCH   7   6
ATOM      4  C   UNL     1      -3.854  -0.153  24.634  0.00  0.00    +0.157 A 
ATOM      5  C   UNL     1      -3.220   0.326  24.411  0.00  0.00    +0.054 A 
ATOM      6  C   UNL     1      -3.438   1.111  24.535  0.00  0.00    +0.102 A 
ATOM     19  N   UNL     1      -4.207   1.120  24.834  0.00  0.00    -0.082 NA
ATOM     20  O   UNL     1      -4.464   0.338  24.896  0.00  0.00    -0.358 OA
BRANCH   4   3
ATOM      3  C   UNL     1      -3.875  -0.976  24.601  0.00  0.00    +0.103 C 
BRANCH   3   2
ATOM      1  O   UNL     1      -4.272  -2.179  23.939  0.00  0.00    -0.220 OA
ATOM      2  C   UNL     1      -4.266  -1.355  23.981  0.00  0.00    +0.190 C 
ENDBRANCH   3   2
ENDBRANCH   4   3
ENDBRANCH   7   6
ENDBRANCH   8   7
BRANCH   8  12
ATOM     12  N   UNL     1      -3.052   2.722  25.061  0.00  0.00    -0.217 NA
BRANCH  12  13
ATOM     13  C   UNL     1      -2.460   3.290  25.149  0.00  0.00    +0.078 C 
ATOM     14  C   UNL     1      -2.637   4.019  25.491  0.00  0.00    +0.050 C 
ATOM     15  C   UNL     1      -2.047   4.588  25.579  0.00  0.00    +0.144 C 
ATOM     16  O   UNL     1      -1.279   4.427  25.325  0.00  0.00    -0.354 OA
ATOM     17  C   UNL     1      -1.102   3.698  24.983  0.00  0.00    +0.144 C 
ATOM     18  C   UNL     1      -1.692   3.129  24.895  0.00  0.00    +0.050 C 
ENDBRANCH  12  13
ENDBRANCH   8  12
TORSDOF 6
ENDMDL
MODEL 4
REMARK VINA RESULT:      -8.1      2.010      2.654
REMARK  Name = 
REMARK  6 active torsions:
REMARK  status: ('A' for Active; 'I' for Inactive)
REMARK    1  A    between atoms: C_2  and  C_3
REMARK    2  A    between atoms: C_3  and  C_4
REMARK    3  A    between atoms: C_6  and  C_7
REMARK    4  A    between atoms: C_7  and  C_8
REMARK    5  A    between atoms: C_8  and  N_12
REMARK    6  A    between atoms: N_12  and  C_13
REMARK                            x       y       z     vdW  Elec       q    Type
REMARK                         _______ _______ _______ _____ _____    ______ ____
ROOT
ATOM      8  C   UNL     1      -4.309   1.763  24.803  0.00  0.00    +0.119 C 
ATOM      9  C   UNL     1      -4.951   1.349  25.117  0.00  0.00    +0.161 C 
ATOM     10  O   UNL     1      -5.463   1.931  24.832  0.00  0.00    -0.351 OA
ATOM     11  C   UNL     1      -4.821   2.343  24.519  0.00  0.00    +0.161 C 
ENDROOT
BRANCH   8   7
ATOM      7  C   UNL     1      -3.667   2.175  24.490  0.00  0.00    +0.070 C 
BRANCH   7   6
ATOM      4  C   UNL     1      -2.476   3.722  25.353  0.00  0.00    +0.157 A 
ATOM      5  C   UNL     1      -2.567   3.087  24.834  0.00  0.00    +0.054 A 
ATOM      6  C   UNL     1      -3.339   2.807  24.908  0.00  0.00    +0.102 A 
ATOM     19  N   UNL     1      -3.726   3.268  25.472  0.00  0.00    -0.082 NA
ATOM     20  O   UNL     1      -3.192   3.834  25.747  0.00  0.00    -0.358 OA
BRANCH   4   3
ATOM      3  C   UNL     1      -1.790   4.168  25.459  0.00  0.00    +0.103 C 
BRANCH   3   2
ATOM      1  O   UNL     1      -1.008   5.310  25.106  0.00  0.00    -0.220 OA
ATOM      2  C   UNL     1      -1.737   4.927  25.140  0.00  0.00    +0.190 C 
ENDBRANCH   3   2
ENDBRANCH   4   3
ENDBRANCH   7   6
ENDBRANCH   8   7
BRANCH   8  12
ATOM     12  N   UNL     1      -3.797   1.181  25.088  0.00  0.00    -0.217 NA
BRANCH  12  13
ATOM     13  C   UNL     1      -3.836   0.414  24.787  0.00  0.00    +0.078 C 
ATOM     14  C   UNL     1      -3.710   0.280  23.983  0.00  0.00    +0.050 C 
ATOM     15  C   UNL     1      -3.750  -0.487  23.681  0.00  0.00    +0.144 C 
ATOM     16  O   UNL     1      -3.915  -1.120  24.184  0.00  0.00    -0.354 OA
ATOM     17  C   UNL     1      -4.041  -0.985  24.988  0.00  0.00    +0.144 C 
ATOM     18  C   UNL     1      -4.002  -0.219  25.290  0.00  0.00    +0.050 C 
ENDBRANCH  12  13
ENDBRANCH   8  12
TORSDOF 6
ENDMDL
