MODEL 1
REMARK VINA RESULT:     -10.8      0.000      0.000
REMARK  Name = 
REMARK  3 active torsions:
REMARK  status: ('A' for Active; 'I' for Inactive)
REMARK    1  A    between atoms: O_2  and  C_3
REMARK    2  A    between atoms: N_8  and  C_9
REMARK    3  A    between atoms: C_9  and  C_10
REMARK                            x       y       z     vdW  Elec       q    Type
REMARK                         _______ _______ _______ _____ _____    ______ ____
ROOT
ATOM      9  C   UNL     1      -4.408   0.882  24.540  0.00  0.00    +0.101 C 
ENDROOT
BRANCH   9  10
ATOM     10  C   UNL     1      -4.150   0.121  24.725  0.00  0.00    +0.013 A 
ATOM     11  C   UNL     1      -4.277  -0.499  24.195  0.00  0.00    +0.000 A 
ATOM     12  C   UNL     1      -4.019  -1.261  24.380  0.00  0.00    +0.017 A 
ATOM     13  C   UNL     1      -3.634  -1.403  25.096  0.00  0.00    +0.081 A 
ATOM     14  C   UNL     1      -3.376  -2.164  25.281  0.00  0.00    +0.019 A 
ATOM     15  C   UNL     1      -3.502  -2.783  24.752  0.00  0.00    +0.002 A 
ATOM     16  C   UNL     1      -3.887  -2.640  24.035  0.00  0.00    +0.000 A 
ATOM     17  C   UNL     1      -4.145  -1.879  23.850  0.00  0.00    +0.001 A 
ATOM     18  N   UNL     1      -3.507  -0.784  25.627  0.00  0.00    -0.244 NA
ATOM     19  C   UNL     1      -3.765  -0.022  25.442  0.00  0.00    +0.096 A 
ENDBRANCH   9  10
BRANCH   9   8
ATOM      3  C   UNL     1      -3.277   2.730  24.875  0.00  0.00    +0.161 C 
ATOM      4  C   UNL     1      -2.744   2.947  24.284  0.00  0.00    +0.173 C 
ATOM      5  O   UNL     1      -2.576   2.558  23.576  0.00  0.00    -0.350 OA
ATOM      6  C   UNL     1      -2.899   1.858  23.284  0.00  0.00    +0.160 C 
ATOM      7  C   UNL     1      -3.470   1.373  23.628  0.00  0.00    +0.105 C 
ATOM      8  N   UNL     1      -3.860   1.468  24.349  0.00  0.00    -0.265 NA
ATOM     20  C   UNL     1      -3.774   2.072  24.904  0.00  0.00    +0.105 C 
BRANCH   3   2
ATOM      1  C   UNL     1      -2.672   3.712  25.719  0.00  0.00    +0.174 C 
ATOM      2  O   UNL     1      -3.319   3.240  25.523  0.00  0.00    -0.350 OA
ENDBRANCH   3   2
ENDBRANCH   9   8
TORSDOF 3
ENDMDL
MODEL 2
REMARK VINA RESULT:     -10.7      0.872      1.343
REMARK  Name = 
REMARK  3 active torsions:
REMARK  status: ('A' for Active; 'I' for Inactive)
REMARK    1  A    between atoms: O_2  and  C_3
REMARK    2  A    between atoms: N_8  and  C_9
REMARK    3  A    between atoms: C_9  and  C_10
REMARK                            x       y       z     vdW  Elec       q    Type
REMARK                         _______ _______ _______ _____ _____    ______ ____
ROOT
ATOM      9  C   UNL     1      -3.794   1.171  24.034  0.00  0.00    +0.101 C 
ENDROOT
BRANCH   9  10
ATOM     10  C   UNL     1      -3.623   0.418  24.322  0.00  0.00    +0.013 A 
ATOM     11  C   UNL     1      -3.984  -0.244  23.987  0.00  0.00    +0.000 A 
ATOM     12  C   UNL     1      -3.814  -0.998  24.275  0.00  0.00    +0.017 A 
ATOM     13  C   UNL     1      -3.282  -1.090  24.901  0.00  0.00    +0.081 A 
ATOM     14  C   UNL     1      -3.111  -1.844  25.189  0.00  0.00    +0.019 A 
ATOM     15  C   UNL     1      -3.472  -2.505  24.854  0.00  0.00    +0.002 A 
ATOM     16  C   UNL     1      -4.003  -2.413  24.229  0.00  0.00    +0.000 A 
ATOM     17  C   UNL     1      -4.174  -1.660  23.940  0.00  0.00    +0.001 A 
ATOM     18  N   UNL     1      -2.921  -0.428  25.236  0.00  0.00    -0.244 NA
ATOM     19  C   UNL     1      -3.091   0.326  24.947  0.00  0.00    +0.096 A 
ENDBRANCH   9  10
BRANCH   9   8
ATOM      3  C   UNL     1      -3.942   3.024  25.197  0.00  0.00    +0.161 C 
ATOM      4  C   UNL     1      -4.662   3.164  25.575  0.00  0.00    +0.173 C 
ATOM      5  O   UNL     1      -5.342   2.696  25.575  0.00  0.00    -0.350 OA
ATOM      6  C   UNL     1      -5.470   1.974  25.198  0.00  0.00    +0.160 C 
ATOM      7  C   UNL     1      -4.949   1.541  24.727  0.00  0.00    +0.105 C 
ATOM      8  N   UNL     1      -4.172   1.722  24.517  0.00  0.00    -0.265 NA
ATOM     20  C   UNL     1      -3.724   2.383  24.726  0.00  0.00    +0.105 C 
BRANCH   3   2
ATOM      1  C   UNL     1      -3.222   3.909  26.058  0.00  0.00    +0.174 C 
ATOM      2  O   UNL     1      -3.363   3.603  25.305  0.00  0.00    -0.350 OA
ENDBRANCH   3   2
ENDBRANCH   9   8
TORSDOF 3
ENDMDL
MODEL 3
REMARK VINA RESULT:      -9.9      2.163      2.426
REMARK  Name = 
REMARK  3 active torsions:
REMARK  status: ('A' for Active; 'I' for Inactive)
REMARK    1  A    between atoms: O_2  and  C_3
REMARK    2  A    between atoms: N_8  and  C_9
REMARK    3  A    between atoms: C_9  and  C_10
REMARK                            x       y       z     vdW  Elec       q    Type
REMARK                         _______ _______ _______ _____ _____    ______ ____
ROOT
ATOM      9  C   UNL     1      -1.536  -0.380  25.596  0.00  0.00    +0.101 C 
ENDROOT
BRANCH   9  10
ATOM     10  C   UNL     1      -2.223  -0.642  25.224  0.00  0.00    +0.013 A 
ATOM     11  C   UNL     1      -2.312  -1.440  25.033  0.00  0.00    +0.000 A 
ATOM     12  C   UNL     1      -3.000  -1.702  24.661  0.00  0.00    +0.017 A 
ATOM     13  C   UNL     1      -3.600  -1.166  24.478  0.00  0.00    +0.081 A 
ATOM     14  C   UNL     1      -4.288  -1.428  24.105  0.00  0.00    +0.019 A 
ATOM     15  C   UNL     1      -4.376  -2.225  23.916  0.00  0.00    +0.002 A 
ATOM     16  C   UNL     1      -3.775  -2.762  24.099  0.00  0.00    +0.000 A 
ATOM     17  C   UNL     1      -3.088  -2.500  24.471  0.00  0.00    +0.001 A 
ATOM     18  N   UNL     1      -3.512  -0.368  24.668  0.00  0.00    -0.244 NA
ATOM     19  C   UNL     1      -2.824  -0.105  25.041  0.00  0.00    +0.096 A 
ENDBRANCH   9  10
BRANCH   9   8
ATOM      3  C   UNL     1      -0.579   1.567  25.282  0.00  0.00    +0.161 C 
ATOM      4  C   UNL     1      -0.055   1.621  24.647  0.00  0.00    +0.173 C 
ATOM      5  O   UNL     1       0.161   1.035  24.108  0.00  0.00    -0.350 OA
ATOM      6  C   UNL     1      -0.094   0.252  24.070  0.00  0.00    +0.160 C 
ATOM      7  C   UNL     1      -0.627  -0.140  24.562  0.00  0.00    +0.105 C 
ATOM      8  N   UNL     1      -1.038   0.155  25.214  0.00  0.00    -0.265 NA
ATOM     20  C   UNL     1      -1.017   0.915  25.534  0.00  0.00    +0.105 C 
BRANCH   3   2
ATOM      1  C   UNL     1      -0.030   2.611  26.089  0.00  0.00    +0.174 C 
ATOM      2  O   UNL     1      -0.679   2.258  25.723  0.00  0.00    -0.350 OA
ENDBRANCH   3   2
ENDBRANCH   9   8
TORSDOF 3
ENDMDL
MODEL 4
REMARK VINA RESULT:      -9.6      1.904      3.986
REMARK  Name = 
REMARK  3 active torsions:
REMARK  status: ('A' for Active; 'I' for Inactive)
REMARK    1  A    between atoms: O_2  and  C_3
REMARK    2  A    between atoms: N_8  and  C_9
REMARK    3  A    between atoms: C_9  and  C_10
REMARK                            x       y       z     vdW  Elec       q    Type
REMARK                         _______ _______ _______ _____ _____    ______ ____
ROOT
ATOM      9  C   UNL     1      -3.485   0.597  23.863  0.00  0.00    +0.101 C 
ENDROOT
BRANCH   9  10
ATOM     10  C   UNL     1      -3.782   1.280  24.216  0.00  0.00    +0.013 A 
ATOM     11  C   UNL     1      -4.521   1.268  24.584  0.00  0.00    +0.000 A 
ATOM     12  C   UNL     1      -4.818   1.952  24.938  0.00  0.00    +0.017 A 
ATOM     13  C   UNL     1      -4.376   2.649  24.924  0.00  0.00    +0.081 A 
ATOM     14  C   UNL     1      -4.673   3.332  25.278  0.00  0.00    +0.019 A 
ATOM     15  C   UNL     1      -5.411   3.319  25.645  0.00  0.00    +0.002 A 
ATOM     16  C   UNL     1      -5.853   2.622  25.659  0.00  0.00    +0.000 A 
ATOM     17  C   UNL     1      -5.556   1.939  25.306  0.00  0.00    +0.001 A 
ATOM     18  N   UNL     1      -3.637   2.661  24.556  0.00  0.00    -0.244 NA
ATOM     19  C   UNL     1      -3.340   1.978  24.202  0.00  0.00    +0.096 A 
ENDBRANCH   9  10
BRANCH   9   8
ATOM      3  C   UNL     1      -3.071  -1.222  25.014  0.00  0.00    +0.161 C 
ATOM      4  C   UNL     1      -2.301  -1.311  25.297  0.00  0.00    +0.173 C 
ATOM      5  O   UNL     1      -1.658  -0.802  25.204  0.00  0.00    -0.350 OA
ATOM      6  C   UNL     1      -1.626  -0.081  24.807  0.00  0.00    +0.160 C 
ATOM      7  C   UNL     1      -2.229   0.312  24.403  0.00  0.00    +0.105 C 
ATOM      8  N   UNL     1      -3.014   0.079  24.297  0.00  0.00    -0.265 NA
ATOM     20  C   UNL     1      -3.388  -0.603  24.570  0.00  0.00    +0.105 C 
BRANCH   3   2
ATOM      1  C   UNL     1      -3.435  -2.603  24.951  0.00  0.00    +0.174 C 
ATOM      2  O   UNL     1      -3.594  -1.833  25.202  0.00  0.00    -0.350 OA
ENDBRANCH   3   2
ENDBRANCH   9   8
TORSDOF 3
ENDMDL
