MODEL 1
REMARK VINA RESULT:     -12.8      0.000      0.000
REMARK  Name = 
REMARK  2 active torsions:
REMARK  status: ('A' for Active; 'I' for Inactive)
REMARK    1  A    between atoms: C_7  and  N_10
REMARK    2  A    between atoms: C_13  and  C_15
REMARK                            x       y       z     vdW  Elec       q    Type
REMARK                         _______ _______ _______ _____ _____    ______ ____
ROOT
ATOM     10  N   UNL     1      -3.383   2.136  24.825  0.00  0.00    -0.273 NA
ATOM     11  C   UNL     1      -4.206   2.139  24.766  0.00  0.00    +0.073 C 
ATOM     12  C   UNL     1      -4.460   1.356  24.705  0.00  0.00    +0.026 C 
ATOM     13  C   UNL     1      -3.794   0.869  24.725  0.00  0.00    +0.076 C 
ATOM     14  C   UNL     1      -3.129   1.351  24.799  0.00  0.00    +0.080 C 
ENDROOT
BRANCH  13  15
ATOM     15  C   UNL     1      -3.794   0.046  24.680  0.00  0.00    +0.140 A 
ATOM     16  N   UNL     1      -3.505  -0.472  25.253  0.00  0.00    -0.229 NA
ATOM     17  C   UNL     1      -3.616  -1.242  24.980  0.00  0.00    +0.102 A 
ATOM     18  C   UNL     1      -3.973  -1.201  24.238  0.00  0.00    +0.100 A 
ATOM     19  N   UNL     1      -4.083  -0.405  24.052  0.00  0.00    -0.229 NA
ATOM     20  C   UNL     1      -4.152  -1.894  23.828  0.00  0.00    +0.023 A 
ATOM     21  C   UNL     1      -3.973  -2.628  24.159  0.00  0.00    +0.031 A 
ATOM     22  C   UNL     1      -3.616  -2.669  24.901  0.00  0.00    +0.142 A 
ATOM     23  F   UNL     1      -3.437  -3.402  25.234  0.00  0.00    -0.204 F 
ATOM     24  C   UNL     1      -3.437  -1.976  25.313  0.00  0.00    +0.050 A 
ENDBRANCH  13  15
BRANCH  10   7
ATOM      1  C   UNL     1      -0.671   4.771  24.829  0.00  0.00    +0.095 C 
ATOM      2  C   UNL     1      -1.447   4.794  25.110  0.00  0.00    +0.226 C 
ATOM      3  O   UNL     1      -1.739   5.480  25.461  0.00  0.00    -0.275 OA
ATOM      4  N   UNL     1      -1.931   4.129  25.038  0.00  0.00    -0.279 N 
ATOM      5  C   UNL     1      -2.707   4.151  25.318  0.00  0.00    +0.095 C 
ATOM      6  C   UNL     1      -3.190   3.487  25.247  0.00  0.00    +0.038 C 
ATOM      7  C   UNL     1      -2.899   2.800  24.896  0.00  0.00    +0.061 C 
ATOM      8  C   UNL     1      -2.123   2.778  24.616  0.00  0.00    +0.038 C 
ATOM      9  C   UNL     1      -1.639   3.443  24.687  0.00  0.00    +0.095 C 
ENDBRANCH  10   7
TORSDOF 2
ENDMDL
MODEL 2
REMARK VINA RESULT:     -12.7      2.713      5.578
REMARK  Name = 
REMARK  2 active torsions:
REMARK  status: ('A' for Active; 'I' for Inactive)
REMARK    1  A    between atoms: C_7  and  N_10
REMARK    2  A    between atoms: C_13  and  C_15
REMARK                            x       y       z     vdW  Elec       q    Type
REMARK                         _______ _______ _______ _____ _____    ______ ____
ROOT
ATOM     10  N   UNL     1      -3.689   0.763  24.775  0.00  0.00    -0.273 NA
ATOM     11  C   UNL     1      -4.351   1.256  24.769  0.00  0.00    +0.073 C 
ATOM     12  C   UNL     1      -4.087   2.037  24.814  0.00  0.00    +0.026 C 
ATOM     13  C   UNL     1      -3.262   2.026  24.847  0.00  0.00    +0.076 C 
ATOM     14  C   UNL     1      -3.017   1.239  24.824  0.00  0.00    +0.080 C 
ENDROOT
BRANCH  13  15
ATOM     15  C   UNL     1      -2.770   2.686  24.896  0.00  0.00    +0.140 A 
ATOM     16  N   UNL     1      -3.002   3.450  25.105  0.00  0.00    -0.229 NA
ATOM     17  C   UNL     1      -2.335   3.934  25.083  0.00  0.00    +0.102 A 
ATOM     18  C   UNL     1      -1.690   3.470  24.860  0.00  0.00    +0.100 A 
ATOM     19  N   UNL     1      -1.959   2.699  24.744  0.00  0.00    -0.229 NA
ATOM     20  C   UNL     1      -0.942   3.811  24.791  0.00  0.00    +0.023 A 
ATOM     21  C   UNL     1      -0.838   4.614  24.944  0.00  0.00    +0.031 A 
ATOM     22  C   UNL     1      -1.483   5.078  25.167  0.00  0.00    +0.142 A 
ATOM     23  F   UNL     1      -1.380   5.881  25.321  0.00  0.00    -0.204 F 
ATOM     24  C   UNL     1      -2.231   4.738  25.237  0.00  0.00    +0.050 A 
ENDBRANCH  13  15
BRANCH  10   7
ATOM      1  C   UNL     1      -3.951  -2.914  23.935  0.00  0.00    +0.095 C 
ATOM      2  C   UNL     1      -3.726  -2.534  24.633  0.00  0.00    +0.226 C 
ATOM      3  O   UNL     1      -3.510  -2.977  25.293  0.00  0.00    -0.275 OA
ATOM      4  N   UNL     1      -3.717  -1.709  24.668  0.00  0.00    -0.279 N 
ATOM      5  C   UNL     1      -3.491  -1.329  25.364  0.00  0.00    +0.095 C 
ATOM      6  C   UNL     1      -3.482  -0.505  25.400  0.00  0.00    +0.038 C 
ATOM      7  C   UNL     1      -3.699  -0.061  24.739  0.00  0.00    +0.061 C 
ATOM      8  C   UNL     1      -3.924  -0.441  24.043  0.00  0.00    +0.038 C 
ATOM      9  C   UNL     1      -3.933  -1.266  24.007  0.00  0.00    +0.095 C 
ENDBRANCH  10   7
TORSDOF 2
ENDMDL
MODEL 3
REMARK VINA RESULT:     -11.9      1.144      1.452
REMARK  Name = 
REMARK  2 active torsions:
REMARK  status: ('A' for Active; 'I' for Inactive)
REMARK    1  A    between atoms: C_7  and  N_10
REMARK    2  A    between atoms: C_13  and  C_15
REMARK                            x       y       z     vdW  Elec       q    Type
REMARK                         _______ _______ _______ _____ _____    ______ ____
ROOT
ATOM     10  N   UNL     1      -1.488   1.586  25.214  0.00  0.00    -0.273 NA
ATOM     11  C   UNL     1      -0.939   1.073  25.554  0.00  0.00    +0.073 C 
ATOM     12  C   UNL     1      -1.220   0.302  25.462  0.00  0.00    +0.026 C 
ATOM     13  C   UNL     1      -1.943   0.339  25.066  0.00  0.00    +0.076 C 
ATOM     14  C   UNL     1      -2.109   1.133  24.912  0.00  0.00    +0.080 C 
ENDROOT
BRANCH  13  15
ATOM     15  C   UNL     1      -2.416  -0.304  24.859  0.00  0.00    +0.140 A 
ATOM     16  N   UNL     1      -2.274  -1.093  25.053  0.00  0.00    -0.229 NA
ATOM     17  C   UNL     1      -2.885  -1.547  24.736  0.00  0.00    +0.102 A 
ATOM     18  C   UNL     1      -3.405  -1.039  24.347  0.00  0.00    +0.100 A 
ATOM     19  N   UNL     1      -3.116  -0.271  24.423  0.00  0.00    -0.229 NA
ATOM     20  C   UNL     1      -4.075  -1.343  23.974  0.00  0.00    +0.023 A 
ATOM     21  C   UNL     1      -4.225  -2.154  23.990  0.00  0.00    +0.031 A 
ATOM     22  C   UNL     1      -3.705  -2.662  24.379  0.00  0.00    +0.142 A 
ATOM     23  F   UNL     1      -3.854  -3.473  24.395  0.00  0.00    -0.204 F 
ATOM     24  C   UNL     1      -3.034  -2.359  24.752  0.00  0.00    +0.050 A 
ENDBRANCH  13  15
BRANCH  10   7
ATOM      1  C   UNL     1      -0.626   5.227  24.671  0.00  0.00    +0.095 C 
ATOM      2  C   UNL     1      -1.250   4.875  25.082  0.00  0.00    +0.226 C 
ATOM      3  O   UNL     1      -1.813   5.345  25.459  0.00  0.00    -0.275 OA
ATOM      4  N   UNL     1      -1.309   4.052  25.115  0.00  0.00    -0.279 N 
ATOM      5  C   UNL     1      -1.932   3.700  25.525  0.00  0.00    +0.095 C 
ATOM      6  C   UNL     1      -1.992   2.878  25.558  0.00  0.00    +0.038 C 
ATOM      7  C   UNL     1      -1.429   2.408  25.181  0.00  0.00    +0.061 C 
ATOM      8  C   UNL     1      -0.805   2.761  24.770  0.00  0.00    +0.038 C 
ATOM      9  C   UNL     1      -0.746   3.583  24.737  0.00  0.00    +0.095 C 
ENDBRANCH  10   7
TORSDOF 2
ENDMDL
MODEL 4
REMARK VINA RESULT:      -9.6      2.258      2.754
REMARK  Name = 
REMARK  2 active torsions:
REMARK  status: ('A' for Active; 'I' for Inactive)
REMARK    1  A    between atoms: C_7  and  N_10
REMARK    2  A    between atoms: C_13  and  C_15
REMARK                            x       y       z     vdW  Elec       q    Type
REMARK                         _______ _______ _______ _____ _____    ______ ____
ROOT
ATOM     10  N   UNL     1      -4.352   0.880  24.933  0.00  0.00    -0.273 NA
ATOM     11  C   UNL     1      -4.790   0.246  24.638  0.00  0.00    +0.073 C 
ATOM     12  C   UNL     1      -4.290  -0.409  24.589  0.00  0.00    +0.026 C 
ATOM     13  C   UNL     1      -3.543  -0.180  24.855  0.00  0.00    +0.076 C 
ATOM     14  C   UNL     1      -3.581   0.616  25.068  0.00  0.00    +0.080 C 
ENDROOT
BRANCH  13  15
ATOM     15  C   UNL     1      -2.875  -0.663  24.900  0.00  0.00    +0.140 A 
ATOM     16  N   UNL     1      -2.192  -0.506  25.334  0.00  0.00    -0.229 NA
ATOM     17  C   UNL     1      -1.669  -1.133  25.221  0.00  0.00    +0.102 A 
ATOM     18  C   UNL     1      -2.029  -1.678  24.718  0.00  0.00    +0.100 A 
ATOM     19  N   UNL     1      -2.774  -1.388  24.519  0.00  0.00    -0.229 NA
ATOM     20  C   UNL     1      -1.630  -2.368  24.505  0.00  0.00    +0.023 A 
ATOM     21  C   UNL     1      -0.872  -2.514  24.796  0.00  0.00    +0.031 A 
ATOM     22  C   UNL     1      -0.512  -1.969  25.300  0.00  0.00    +0.142 A 
ATOM     23  F   UNL     1       0.246  -2.114  25.591  0.00  0.00    -0.204 F 
ATOM     24  C   UNL     1      -0.910  -1.278  25.513  0.00  0.00    +0.050 A 
ENDBRANCH  13  15
BRANCH  10   7
ATOM      1  C   UNL     1      -5.014   4.585  25.293  0.00  0.00    +0.095 C 
ATOM      2  C   UNL     1      -5.482   3.931  25.483  0.00  0.00    +0.226 C 
ATOM      3  O   UNL     1      -6.230   4.041  25.809  0.00  0.00    -0.275 OA
ATOM      4  N   UNL     1      -5.199   3.168  25.345  0.00  0.00    -0.279 N 
ATOM      5  C   UNL     1      -5.665   2.515  25.534  0.00  0.00    +0.095 C 
ATOM      6  C   UNL     1      -5.383   1.753  25.397  0.00  0.00    +0.038 C 
ATOM      7  C   UNL     1      -4.634   1.642  25.070  0.00  0.00    +0.061 C 
ATOM      8  C   UNL     1      -4.167   2.296  24.881  0.00  0.00    +0.038 C 
ATOM      9  C   UNL     1      -4.449   3.059  25.019  0.00  0.00    +0.095 C 
ENDBRANCH  10   7
TORSDOF 2
ENDMDL
MODEL 5
REMARK VINA RESULT:      -9.6      3.153      4.169
REMARK  Name = 
REMARK  2 active torsions:
REMARK  status: ('A' for Active; 'I' for Inactive)
REMARK    1  A    between atoms: C_7  and  N_10
REMARK    2  A    between atoms: C_13  and  C_15
REMARK                            x       y       z     vdW  Elec       q    Type
REMARK                         _______ _______ _______ _____ _____    ______ ____
ROOT
ATOM     10  N   UNL     1      -1.264   0.351  24.469  0.00  0.00    -0.273 NA
ATOM     11  C   UNL     1      -1.518  -0.192  25.037  0.00  0.00    +0.073 C 
ATOM     12  C   UNL     1      -2.288   0.008  25.254  0.00  0.00    +0.026 C 
ATOM     13  C   UNL     1      -2.511   0.674  24.821  0.00  0.00    +0.076 C 
ATOM     14  C   UNL     1      -1.878   0.886  24.337  0.00  0.00    +0.080 C 
ENDROOT
BRANCH  13  15
ATOM     15  C   UNL     1      -3.238   1.061  24.866  0.00  0.00    +0.140 A 
ATOM     16  N   UNL     1      -3.980   0.704  24.823  0.00  0.00    -0.229 NA
ATOM     17  C   UNL     1      -4.551   1.294  24.892  0.00  0.00    +0.102 A 
ATOM     18  C   UNL     1      -4.162   2.017  24.977  0.00  0.00    +0.100 A 
ATOM     19  N   UNL     1      -3.351   1.873  24.961  0.00  0.00    -0.229 NA
ATOM     20  C   UNL     1      -4.599   2.713  25.057  0.00  0.00    +0.023 A 
ATOM     21  C   UNL     1      -5.423   2.686  25.054  0.00  0.00    +0.031 A 
ATOM     22  C   UNL     1      -5.812   1.964  24.969  0.00  0.00    +0.142 A 
ATOM     23  F   UNL     1      -6.636   1.936  24.965  0.00  0.00    -0.204 F 
ATOM     24  C   UNL     1      -5.377   1.268  24.888  0.00  0.00    +0.050 A 
ENDBRANCH  13  15
BRANCH  10   7
ATOM      1  C   UNL     1       1.929  -0.270  22.542  0.00  0.00    +0.095 C 
ATOM      2  C   UNL     1       1.687   0.379  22.992  0.00  0.00    +0.226 C 
ATOM      3  O   UNL     1       2.182   1.033  23.072  0.00  0.00    -0.275 OA
ATOM      4  N   UNL     1       0.949   0.371  23.361  0.00  0.00    -0.279 N 
ATOM      5  C   UNL     1       0.706   1.019  23.811  0.00  0.00    +0.095 C 
ATOM      6  C   UNL     1      -0.031   1.012  24.180  0.00  0.00    +0.038 C 
ATOM      7  C   UNL     1      -0.527   0.357  24.100  0.00  0.00    +0.061 C 
ATOM      8  C   UNL     1      -0.284  -0.291  23.650  0.00  0.00    +0.038 C 
ATOM      9  C   UNL     1       0.454  -0.284  23.281  0.00  0.00    +0.095 C 
ENDBRANCH  10   7
TORSDOF 2
ENDMDL
MODEL 6
REMARK VINA RESULT:      -9.2      2.968      5.098
REMARK  Name = 
REMARK  2 active torsions:
REMARK  status: ('A' for Active; 'I' for Inactive)
REMARK    1  A    between atoms: C_7  and  N_10
REMARK    2  A    between atoms: C_13  and  C_15
REMARK                            x       y       z     vdW  Elec       q    Type
REMARK                         _______ _______ _______ _____ _____    ______ ____
ROOT
ATOM     10  N   UNL     1      -3.495  -0.269  24.845  0.00  0.00    -0.273 NA
ATOM     11  C   UNL     1      -4.267  -0.481  24.644  0.00  0.00    +0.073 C 
ATOM     12  C   UNL     1      -4.736   0.197  24.684  0.00  0.00    +0.026 C 
ATOM     13  C   UNL     1      -4.254   0.828  24.910  0.00  0.00    +0.076 C 
ATOM     14  C   UNL     1      -3.488   0.540  25.010  0.00  0.00    +0.080 C 
ENDROOT
BRANCH  13  15
ATOM     15  C   UNL     1      -4.497   1.609  25.018  0.00  0.00    +0.140 A 
ATOM     16  N   UNL     1      -5.227   1.854  25.311  0.00  0.00    -0.229 NA
ATOM     17  C   UNL     1      -5.233   2.678  25.325  0.00  0.00    +0.102 A 
ATOM     18  C   UNL     1      -4.506   2.943  25.040  0.00  0.00    +0.100 A 
ATOM     19  N   UNL     1      -4.050   2.283  24.850  0.00  0.00    -0.229 NA
ATOM     20  C   UNL     1      -4.353   3.753  24.991  0.00  0.00    +0.023 A 
ATOM     21  C   UNL     1      -4.926   4.296  25.226  0.00  0.00    +0.031 A 
ATOM     22  C   UNL     1      -5.654   4.031  25.511  0.00  0.00    +0.142 A 
ATOM     23  F   UNL     1      -6.228   4.574  25.747  0.00  0.00    -0.204 F 
ATOM     24  C   UNL     1      -5.808   3.222  25.561  0.00  0.00    +0.050 A 
ENDBRANCH  13  15
BRANCH  10   7
ATOM      1  C   UNL     1      -0.175  -2.027  25.268  0.00  0.00    +0.095 C 
ATOM      2  C   UNL     1      -0.896  -2.298  24.971  0.00  0.00    +0.226 C 
ATOM      3  O   UNL     1      -0.966  -3.075  24.705  0.00  0.00    -0.275 OA
ATOM      4  N   UNL     1      -1.546  -1.790  24.939  0.00  0.00    -0.279 N 
ATOM      5  C   UNL     1      -2.266  -2.061  24.642  0.00  0.00    +0.095 C 
ATOM      6  C   UNL     1      -2.916  -1.554  24.611  0.00  0.00    +0.038 C 
ATOM      7  C   UNL     1      -2.845  -0.776  24.877  0.00  0.00    +0.061 C 
ATOM      8  C   UNL     1      -2.124  -0.505  25.174  0.00  0.00    +0.038 C 
ATOM      9  C   UNL     1      -1.474  -1.013  25.205  0.00  0.00    +0.095 C 
ENDBRANCH  10   7
TORSDOF 2
ENDMDL
