MODEL 1
REMARK VINA RESULT:     -11.5      0.000      0.000
REMARK  Name = 
REMARK  5 active torsions:
REMARK  status: ('A' for Active; 'I' for Inactive)
REMARK    1  A    between atoms: S_2  and  C_5
REMARK    2  A    between atoms: C_8  and  C_9
REMARK    3  A    between atoms: C_9  and  N_10
REMARK    4  A    between atoms: C_13  and  C_15
REMARK    5  A    between atoms: C_18  and  C_20
REMARK                            x       y       z     vdW  Elec       q    Type
REMARK                         _______ _______ _______ _____ _____    ______ ____
ROOT
ATOM     10  N   UNL     1      -4.683   1.043  25.003  0.00  0.00    -0.268 NA
ATOM     11  C   UNL     1      -5.026   1.488  24.398  0.00  0.00    +0.073 C 
ATOM     12  C   UNL     1      -4.692   2.242  24.417  0.00  0.00    +0.028 C 
ATOM     13  C   UNL     1      -4.144   2.263  25.033  0.00  0.00    +0.096 C 
ATOM     14  C   UNL     1      -4.139   1.522  25.396  0.00  0.00    +0.082 C 
ENDROOT
BRANCH  13  15
ATOM     15  C   UNL     1      -3.682   2.912  25.250  0.00  0.00    +0.227 A 
ATOM     16  N   UNL     1      -3.884   3.486  25.807  0.00  0.00    -0.111 NA
ATOM     17  N   UNL     1      -3.264   4.029  25.850  0.00  0.00    -0.107 NA
ATOM     18  C   UNL     1      -2.680   3.791  25.318  0.00  0.00    +0.251 A 
ATOM     19  O   UNL     1      -2.938   3.100  24.947  0.00  0.00    -0.419 OA
BRANCH  18  20
ATOM     20  C   UNL     1      -1.962   4.175  25.181  0.00  0.00    +0.074 A 
ATOM     21  C   UNL     1      -1.271   3.735  25.084  0.00  0.00    +0.104 A 
ATOM     22  N   UNL     1      -0.554   4.120  24.947  0.00  0.00    -0.242 NA
ATOM     23  C   UNL     1      -0.528   4.944  24.907  0.00  0.00    +0.099 A 
ATOM     24  C   UNL     1      -1.220   5.383  25.004  0.00  0.00    +0.021 A 
ATOM     25  C   UNL     1      -1.937   4.999  25.141  0.00  0.00    +0.008 A 
ENDBRANCH  18  20
ENDBRANCH  13  15
BRANCH  10   9
ATOM      9  C   UNL     1      -4.856   0.257  25.183  0.00  0.00    +0.099 C 
BRANCH   9   8
ATOM      5  C   UNL     1      -3.192  -1.515  24.714  0.00  0.00    +0.106 A 
ATOM      6  C   UNL     1      -3.703  -1.260  24.118  0.00  0.00    +0.018 A 
ATOM      7  C   UNL     1      -4.257  -0.669  24.274  0.00  0.00    -0.002 A 
ATOM      8  C   UNL     1      -4.301  -0.334  25.027  0.00  0.00    -0.006 A 
ATOM     26  C   UNL     1      -3.791  -0.589  25.623  0.00  0.00    -0.002 A 
ATOM     27  C   UNL     1      -3.237  -1.180  25.466  0.00  0.00    +0.018 A 
BRANCH   5   2
ATOM      1  C   UNL     1      -2.084  -2.696  24.400  0.00  0.00    +0.182 C 
ATOM      2  S   UNL     1      -2.639  -2.105  24.557  0.00  0.00    +0.010 S 
ATOM      3  O   UNL     1      -2.045  -1.535  24.503  0.00  0.00    -0.169 OA
ATOM      4  O   UNL     1      -3.231  -2.677  24.611  0.00  0.00    -0.169 OA
ENDBRANCH   5   2
ENDBRANCH   9   8
ENDBRANCH  10   9
TORSDOF 5
ENDMDL
MODEL 2
REMARK VINA RESULT:     -11.3      1.851      2.672
REMARK  Name = 
REMARK  5 active torsions:
REMARK  status: ('A' for Active; 'I' for Inactive)
REMARK    1  A    between atoms: S_2  and  C_5
REMARK    2  A    between atoms: C_8  and  C_9
REMARK    3  A    between atoms: C_9  and  N_10
REMARK    4  A    between atoms: C_13  and  C_15
REMARK    5  A    between atoms: C_18  and  C_20
REMARK                            x       y       z     vdW  Elec       q    Type
REMARK                         _______ _______ _______ _____ _____    ______ ____
ROOT
ATOM     10  N   UNL     1      -0.918  -0.344  25.294  0.00  0.00    -0.268 NA
ATOM     11  C   UNL     1      -0.474  -0.227  24.609  0.00  0.00    +0.073 C 
ATOM     12  C   UNL     1      -0.286   0.575  24.561  0.00  0.00    +0.028 C 
ATOM     13  C   UNL     1      -0.614   0.953  25.217  0.00  0.00    +0.096 C 
ATOM     14  C   UNL     1      -1.004   0.384  25.670  0.00  0.00    +0.082 C 
ENDROOT
BRANCH  13  15
ATOM     15  C   UNL     1      -0.561   1.758  25.390  0.00  0.00    +0.227 A 
ATOM     16  N   UNL     1       0.063   2.129  25.783  0.00  0.00    -0.111 NA
ATOM     17  N   UNL     1      -0.112   2.933  25.837  0.00  0.00    -0.107 NA
ATOM     18  C   UNL     1      -0.844   3.060  25.478  0.00  0.00    +0.251 A 
ATOM     19  O   UNL     1      -1.121   2.333  25.202  0.00  0.00    -0.419 OA
BRANCH  18  20
ATOM     20  C   UNL     1      -1.231   3.785  25.407  0.00  0.00    +0.074 A 
ATOM     21  C   UNL     1      -2.000   3.871  25.692  0.00  0.00    +0.104 A 
ATOM     22  N   UNL     1      -2.388   4.597  25.621  0.00  0.00    -0.242 NA
ATOM     23  C   UNL     1      -2.006   5.235  25.265  0.00  0.00    +0.099 A 
ATOM     24  C   UNL     1      -1.236   5.148  24.979  0.00  0.00    +0.021 A 
ATOM     25  C   UNL     1      -0.849   4.423  25.050  0.00  0.00    +0.008 A 
ENDBRANCH  18  20
ENDBRANCH  13  15
BRANCH  10   9
ATOM      9  C   UNL     1      -1.221  -1.064  25.557  0.00  0.00    +0.099 C 
BRANCH   9   8
ATOM      5  C   UNL     1      -3.240  -2.021  24.489  0.00  0.00    +0.106 A 
ATOM      6  C   UNL     1      -2.491  -2.282  24.263  0.00  0.00    +0.018 A 
ATOM      7  C   UNL     1      -1.817  -1.963  24.620  0.00  0.00    -0.002 A 
ATOM      8  C   UNL     1      -1.895  -1.383  25.201  0.00  0.00    -0.006 A 
ATOM     26  C   UNL     1      -2.644  -1.122  25.427  0.00  0.00    -0.002 A 
ATOM     27  C   UNL     1      -3.316  -1.441  25.072  0.00  0.00    +0.018 A 
BRANCH   5   2
ATOM      1  C   UNL     1      -4.585  -2.658  23.777  0.00  0.00    +0.182 C 
ATOM      2  S   UNL     1      -3.912  -2.340  24.134  0.00  0.00    +0.010 S 
ATOM      3  O   UNL     1      -4.076  -1.609  23.788  0.00  0.00    -0.169 OA
ATOM      4  O   UNL     1      -3.749  -3.071  24.479  0.00  0.00    -0.169 OA
ENDBRANCH   5   2
ENDBRANCH   9   8
ENDBRANCH  10   9
TORSDOF 5
ENDMDL
MODEL 3
REMARK VINA RESULT:     -11.1      1.971      5.322
REMARK  Name = 
REMARK  5 active torsions:
REMARK  status: ('A' for Active; 'I' for Inactive)
REMARK    1  A    between atoms: S_2  and  C_5
REMARK    2  A    between atoms: C_8  and  C_9
REMARK    3  A    between atoms: C_9  and  N_10
REMARK    4  A    between atoms: C_13  and  C_15
REMARK    5  A    between atoms: C_18  and  C_20
REMARK                            x       y       z     vdW  Elec       q    Type
REMARK                         _______ _______ _______ _____ _____    ______ ____
ROOT
ATOM     10  N   UNL     1      -4.669   2.662  25.353  0.00  0.00    -0.268 NA
ATOM     11  C   UNL     1      -5.425   2.332  25.352  0.00  0.00    +0.073 C 
ATOM     12  C   UNL     1      -5.367   1.566  25.048  0.00  0.00    +0.028 C 
ATOM     13  C   UNL     1      -4.576   1.425  24.862  0.00  0.00    +0.096 C 
ATOM     14  C   UNL     1      -4.145   2.103  25.050  0.00  0.00    +0.082 C 
ENDROOT
BRANCH  13  15
ATOM     15  C   UNL     1      -4.270   0.729  24.543  0.00  0.00    +0.227 A 
ATOM     16  N   UNL     1      -3.891   0.655  23.814  0.00  0.00    -0.111 NA
ATOM     17  N   UNL     1      -3.675  -0.135  23.717  0.00  0.00    -0.107 NA
ATOM     18  C   UNL     1      -3.921  -0.550  24.387  0.00  0.00    +0.251 A 
ATOM     19  O   UNL     1      -4.288  -0.016  24.897  0.00  0.00    -0.419 OA
BRANCH  18  20
ATOM     20  C   UNL     1      -3.817  -1.358  24.522  0.00  0.00    +0.074 A 
ATOM     21  C   UNL     1      -3.452  -1.616  25.215  0.00  0.00    +0.104 A 
ATOM     22  N   UNL     1      -3.348  -2.423  25.351  0.00  0.00    -0.242 NA
ATOM     23  C   UNL     1      -3.610  -2.972  24.793  0.00  0.00    +0.099 A 
ATOM     24  C   UNL     1      -3.975  -2.713  24.100  0.00  0.00    +0.021 A 
ATOM     25  C   UNL     1      -4.079  -1.907  23.965  0.00  0.00    +0.008 A 
ENDBRANCH  18  20
ENDBRANCH  13  15
BRANCH  10   9
ATOM      9  C   UNL     1      -4.472   3.420  25.612  0.00  0.00    +0.099 C 
BRANCH   9   8
ATOM      5  C   UNL     1      -2.197   4.313  25.216  0.00  0.00    +0.106 A 
ATOM      6  C   UNL     1      -2.753   4.314  24.606  0.00  0.00    +0.018 A 
ATOM      7  C   UNL     1      -3.511   4.016  24.738  0.00  0.00    -0.002 A 
ATOM      8  C   UNL     1      -3.714   3.718  25.480  0.00  0.00    -0.006 A 
ATOM     26  C   UNL     1      -3.158   3.717  26.090  0.00  0.00    -0.002 A 
ATOM     27  C   UNL     1      -2.401   4.015  25.958  0.00  0.00    +0.018 A 
BRANCH   5   2
ATOM      1  C   UNL     1      -0.681   4.908  24.953  0.00  0.00    +0.182 C 
ATOM      2  S   UNL     1      -1.440   4.610  25.085  0.00  0.00    +0.010 S 
ATOM      3  O   UNL     1      -1.688   5.356  25.337  0.00  0.00    -0.169 OA
ATOM      4  O   UNL     1      -1.191   3.866  24.832  0.00  0.00    -0.169 OA
ENDBRANCH   5   2
ENDBRANCH   9   8
ENDBRANCH  10   9
TORSDOF 5
ENDMDL
MODEL 4
REMARK VINA RESULT:     -10.7      2.645      5.922
REMARK  Name = 
REMARK  5 active torsions:
REMARK  status: ('A' for Active; 'I' for Inactive)
REMARK    1  A    between atoms: S_2  and  C_5
REMARK    2  A    between atoms: C_8  and  C_9
REMARK    3  A    between atoms: C_9  and  N_10
REMARK    4  A    between atoms: C_13  and  C_15
REMARK    5  A    between atoms: C_18  and  C_20
REMARK                            x       y       z     vdW  Elec       q    Type
REMARK                         _______ _______ _______ _____ _____    ______ ____
ROOT
ATOM     10  N   UNL     1      -0.088   1.255  24.864  0.00  0.00    -0.268 NA
ATOM     11  C   UNL     1       0.122   1.006  24.106  0.00  0.00    +0.073 C 
ATOM     12  C   UNL     1      -0.258   0.288  23.959  0.00  0.00    +0.028 C 
ATOM     13  C   UNL     1      -0.703   0.094  24.626  0.00  0.00    +0.096 C 
ATOM     14  C   UNL     1      -0.598   0.693  25.185  0.00  0.00    +0.082 C 
ENDROOT
BRANCH  13  15
ATOM     15  C   UNL     1      -1.171  -0.578  24.719  0.00  0.00    +0.227 A 
ATOM     16  N   UNL     1      -0.969  -1.254  25.147  0.00  0.00    -0.111 NA
ATOM     17  N   UNL     1      -1.596  -1.788  25.093  0.00  0.00    -0.107 NA
ATOM     18  C   UNL     1      -2.186  -1.441  24.631  0.00  0.00    +0.251 A 
ATOM     19  O   UNL     1      -1.923  -0.694  24.400  0.00  0.00    -0.419 OA
BRANCH  18  20
ATOM     20  C   UNL     1      -2.911  -1.783  24.434  0.00  0.00    +0.074 A 
ATOM     21  C   UNL     1      -3.005  -2.601  24.474  0.00  0.00    +0.104 A 
ATOM     22  N   UNL     1      -3.731  -2.943  24.277  0.00  0.00    -0.242 NA
ATOM     23  C   UNL     1      -4.361  -2.465  24.041  0.00  0.00    +0.099 A 
ATOM     24  C   UNL     1      -4.265  -1.647  24.001  0.00  0.00    +0.021 A 
ATOM     25  C   UNL     1      -3.541  -1.305  24.197  0.00  0.00    +0.008 A 
ENDBRANCH  18  20
ENDBRANCH  13  15
BRANCH  10   9
ATOM      9  C   UNL     1       0.167   1.946  25.234  0.00  0.00    +0.099 C 
BRANCH   9   8
ATOM      5  C   UNL     1      -1.290   3.948  25.260  0.00  0.00    +0.106 A 
ATOM      6  C   UNL     1      -0.827   3.783  24.598  0.00  0.00    +0.018 A 
ATOM      7  C   UNL     1      -0.341   3.116  24.589  0.00  0.00    -0.002 A 
ATOM      8  C   UNL     1      -0.319   2.614  25.243  0.00  0.00    -0.006 A 
ATOM     26  C   UNL     1      -0.782   2.778  25.906  0.00  0.00    -0.002 A 
ATOM     27  C   UNL     1      -1.267   3.445  25.914  0.00  0.00    +0.018 A 
BRANCH   5   2
ATOM      1  C   UNL     1      -2.261   5.282  25.277  0.00  0.00    +0.182 C 
ATOM      2  S   UNL     1      -1.775   4.614  25.269  0.00  0.00    +0.010 S 
ATOM      3  O   UNL     1      -1.109   5.100  25.235  0.00  0.00    -0.169 OA
ATOM      4  O   UNL     1      -2.442   4.130  25.303  0.00  0.00    -0.169 OA
ENDBRANCH   5   2
ENDBRANCH   9   8
ENDBRANCH  10   9
TORSDOF 5
ENDMDL
MODEL 5
REMARK VINA RESULT:     -10.2      2.404      5.405
REMARK  Name = 
REMARK  5 active torsions:
REMARK  status: ('A' for Active; 'I' for Inactive)
REMARK    1  A    between atoms: S_2  and  C_5
REMARK    2  A    between atoms: C_8  and  C_9
REMARK    3  A    between atoms: C_9  and  N_10
REMARK    4  A    between atoms: C_13  and  C_15
REMARK    5  A    between atoms: C_18  and  C_20
REMARK                            x       y       z     vdW  Elec       q    Type
REMARK                         _______ _______ _______ _____ _____    ______ ____
ROOT
ATOM     10  N   UNL     1      -1.425   2.347  24.926  0.00  0.00    -0.268 NA
ATOM     11  C   UNL     1      -0.733   2.285  25.371  0.00  0.00    +0.073 C 
ATOM     12  C   UNL     1      -0.567   1.483  25.472  0.00  0.00    +0.028 C 
ATOM     13  C   UNL     1      -1.156   1.050  25.090  0.00  0.00    +0.096 C 
ATOM     14  C   UNL     1      -1.687   1.585  24.752  0.00  0.00    +0.082 C 
ENDROOT
BRANCH  13  15
ATOM     15  C   UNL     1      -1.207   0.228  25.052  0.00  0.00    +0.227 A 
ATOM     16  N   UNL     1      -0.576  -0.300  25.115  0.00  0.00    -0.111 NA
ATOM     17  N   UNL     1      -0.875  -1.065  25.046  0.00  0.00    -0.107 NA
ATOM     18  C   UNL     1      -1.692  -1.011  24.940  0.00  0.00    +0.251 A 
ATOM     19  O   UNL     1      -1.897  -0.211  24.943  0.00  0.00    -0.419 OA
BRANCH  18  20
ATOM     20  C   UNL     1      -2.213  -1.645  24.846  0.00  0.00    +0.074 A 
ATOM     21  C   UNL     1      -1.985  -2.303  24.405  0.00  0.00    +0.104 A 
ATOM     22  N   UNL     1      -2.506  -2.937  24.312  0.00  0.00    -0.242 NA
ATOM     23  C   UNL     1      -3.253  -2.911  24.660  0.00  0.00    +0.099 A 
ATOM     24  C   UNL     1      -3.480  -2.252  25.101  0.00  0.00    +0.021 A 
ATOM     25  C   UNL     1      -2.960  -1.619  25.194  0.00  0.00    +0.008 A 
ENDBRANCH  18  20
ENDBRANCH  13  15
BRANCH  10   9
ATOM      9  C   UNL     1      -1.792   3.049  24.695  0.00  0.00    +0.099 C 
BRANCH   9   8
ATOM      5  C   UNL     1      -4.169   3.449  25.260  0.00  0.00    +0.106 A 
ATOM      6  C   UNL     1      -3.968   3.114  24.533  0.00  0.00    +0.018 A 
ATOM      7  C   UNL     1      -3.175   2.981  24.345  0.00  0.00    -0.002 A 
ATOM      8  C   UNL     1      -2.584   3.183  24.884  0.00  0.00    -0.006 A 
ATOM     26  C   UNL     1      -2.785   3.518  25.610  0.00  0.00    -0.002 A 
ATOM     27  C   UNL     1      -3.577   3.651  25.798  0.00  0.00    +0.018 A 
BRANCH   5   2
ATOM      1  C   UNL     1      -5.753   3.716  25.635  0.00  0.00    +0.182 C 
ATOM      2  S   UNL     1      -4.960   3.582  25.447  0.00  0.00    +0.010 S 
ATOM      3  O   UNL     1      -5.041   2.792  25.671  0.00  0.00    -0.169 OA
ATOM      4  O   UNL     1      -4.881   4.372  25.224  0.00  0.00    -0.169 OA
ENDBRANCH   5   2
ENDBRANCH   9   8
ENDBRANCH  10   9
TORSDOF 5
ENDMDL
