MODEL 1
REMARK VINA RESULT:     -10.6      0.000      0.000
REMARK  Name = 
REMARK  4 active torsions:
REMARK  status: ('A' for Active; 'I' for Inactive)
REMARK    1  A    between atoms: C_4  and  C_13
REMARK    2  A    between atoms: N_5  and  C_6
REMARK    3  A    between atoms: C_6  and  C_7
REMARK    4  A    between atoms: C_15  and  C_18
REMARK                            x       y       z     vdW  Elec       q    Type
REMARK                         _______ _______ _______ _____ _____    ______ ____
ROOT
ATOM      1  O   UNL     1      -5.817   3.258  25.652  0.00  0.00    -0.222 OA
ATOM      2  C   UNL     1      -5.158   2.842  25.382  0.00  0.00    +0.170 C 
ATOM      3  C   UNL     1      -5.164   2.081  25.063  0.00  0.00    +0.060 C 
ATOM      4  C   UNL     1      -4.387   1.882  24.868  0.00  0.00    +0.140 C 
ATOM      5  N   UNL     1      -3.902   2.519  25.066  0.00  0.00    -0.260 NA
ATOM     12  C   UNL     1      -4.380   3.113  25.384  0.00  0.00    +0.106 C 
ENDROOT
BRANCH   4  13
ATOM     13  C   UNL     1      -4.139   1.170  24.533  0.00  0.00    +0.251 A 
ATOM     14  N   UNL     1      -4.155   0.430  24.898  0.00  0.00    -0.188 NA
ATOM     15  C   UNL     1      -3.857  -0.124  24.364  0.00  0.00    +0.221 A 
ATOM     16  N   UNL     1      -3.656   0.273  23.669  0.00  0.00    -0.054 NA
ATOM     17  O   UNL     1      -3.830   1.073  23.773  0.00  0.00    -0.336 OA
BRANCH  15  18
ATOM     18  C   UNL     1      -3.774  -0.934  24.501  0.00  0.00    +0.120 A 
ATOM     19  N   UNL     1      -3.368  -1.200  25.168  0.00  0.00    -0.241 NA
ATOM     20  C   UNL     1      -3.285  -2.008  25.305  0.00  0.00    +0.099 A 
ATOM     21  C   UNL     1      -3.608  -2.552  24.775  0.00  0.00    +0.021 A 
ATOM     22  C   UNL     1      -4.014  -2.286  24.108  0.00  0.00    +0.003 A 
ATOM     23  C   UNL     1      -4.097  -1.477  23.971  0.00  0.00    +0.022 A 
ENDBRANCH  15  18
ENDBRANCH   4  13
BRANCH   5   6
ATOM      6  C   UNL     1      -3.085   2.557  24.965  0.00  0.00    +0.106 C 
BRANCH   6   7
ATOM      7  C   UNL     1      -2.671   3.232  25.196  0.00  0.00    +0.023 A 
ATOM      8  C   UNL     1      -2.368   3.381  25.949  0.00  0.00    +0.004 A 
ATOM      9  C   UNL     1      -1.997   4.118  25.934  0.00  0.00    +0.007 A 
ATOM     10  C   UNL     1      -2.071   4.425  25.171  0.00  0.00    +0.035 A 
ATOM     11  S   UNL     1      -2.487   3.877  24.716  0.00  0.00    -0.089 S 
ENDBRANCH   6   7
ENDBRANCH   5   6
TORSDOF 4
ENDMDL
MODEL 2
REMARK VINA RESULT:     -10.3      1.472      4.332
REMARK  Name = 
REMARK  4 active torsions:
REMARK  status: ('A' for Active; 'I' for Inactive)
REMARK    1  A    between atoms: C_4  and  C_13
REMARK    2  A    between atoms: N_5  and  C_6
REMARK    3  A    between atoms: C_6  and  C_7
REMARK    4  A    between atoms: C_15  and  C_18
REMARK                            x       y       z     vdW  Elec       q    Type
REMARK                         _______ _______ _______ _____ _____    ______ ____
ROOT
ATOM      1  O   UNL     1      -6.305   1.503  25.684  0.00  0.00    -0.222 OA
ATOM      2  C   UNL     1      -5.548   1.505  25.357  0.00  0.00    +0.170 C 
ATOM      3  C   UNL     1      -5.119   2.172  25.132  0.00  0.00    +0.060 C 
ATOM      4  C   UNL     1      -4.392   1.919  24.833  0.00  0.00    +0.140 C 
ATOM      5  N   UNL     1      -4.373   1.095  24.873  0.00  0.00    -0.260 NA
ATOM     12  C   UNL     1      -5.088   0.839  25.198  0.00  0.00    +0.106 C 
ENDROOT
BRANCH   4  13
ATOM     13  C   UNL     1      -3.791   2.405  24.544  0.00  0.00    +0.251 A 
ATOM     14  N   UNL     1      -3.215   2.784  24.996  0.00  0.00    -0.188 NA
ATOM     15  C   UNL     1      -2.728   3.210  24.483  0.00  0.00    +0.221 A 
ATOM     16  N   UNL     1      -3.004   3.094  23.715  0.00  0.00    -0.054 NA
ATOM     17  O   UNL     1      -3.661   2.596  23.752  0.00  0.00    -0.336 OA
BRANCH  15  18
ATOM     18  C   UNL     1      -2.080   3.672  24.701  0.00  0.00    +0.120 A 
ATOM     19  N   UNL     1      -1.317   3.365  24.643  0.00  0.00    -0.241 NA
ATOM     20  C   UNL     1      -0.669   3.826  24.861  0.00  0.00    +0.099 A 
ATOM     21  C   UNL     1      -0.784   4.595  25.138  0.00  0.00    +0.021 A 
ATOM     22  C   UNL     1      -1.547   4.902  25.196  0.00  0.00    +0.003 A 
ATOM     23  C   UNL     1      -2.196   4.440  24.978  0.00  0.00    +0.022 A 
ENDBRANCH  15  18
ENDBRANCH   4  13
BRANCH   5   6
ATOM      6  C   UNL     1      -3.750   0.612  24.633  0.00  0.00    +0.106 C 
BRANCH   6   7
ATOM      7  C   UNL     1      -3.819  -0.208  24.685  0.00  0.00    +0.023 A 
ATOM      8  C   UNL     1      -4.151  -0.704  24.117  0.00  0.00    +0.004 A 
ATOM      9  C   UNL     1      -4.106  -1.479  24.396  0.00  0.00    +0.007 A 
ATOM     10  C   UNL     1      -3.745  -1.462  25.138  0.00  0.00    +0.035 A 
ATOM     11  S   UNL     1      -3.568  -0.676  25.316  0.00  0.00    -0.089 S 
ENDBRANCH   6   7
ENDBRANCH   5   6
TORSDOF 4
ENDMDL
MODEL 3
REMARK VINA RESULT:     -10.0      1.805      4.257
REMARK  Name = 
REMARK  4 active torsions:
REMARK  status: ('A' for Active; 'I' for Inactive)
REMARK    1  A    between atoms: C_4  and  C_13
REMARK    2  A    between atoms: N_5  and  C_6
REMARK    3  A    between atoms: C_6  and  C_7
REMARK    4  A    between atoms: C_15  and  C_18
REMARK                            x       y       z     vdW  Elec       q    Type
REMARK                         _______ _______ _______ _____ _____    ______ ____
ROOT
ATOM      1  O   UNL     1      -4.006  -2.643  24.139  0.00  0.00    -0.222 OA
ATOM      2  C   UNL     1      -3.711  -1.880  24.249  0.00  0.00    +0.170 C 
ATOM      3  C   UNL     1      -4.124  -1.178  24.121  0.00  0.00    +0.060 C 
ATOM      4  C   UNL     1      -3.619  -0.550  24.298  0.00  0.00    +0.140 C 
ATOM      5  N   UNL     1      -2.894  -0.865  24.535  0.00  0.00    -0.260 NA
ATOM     12  C   UNL     1      -2.951  -1.688  24.504  0.00  0.00    +0.106 C 
ENDROOT
BRANCH   4  13
ATOM     13  C   UNL     1      -3.806   0.252  24.247  0.00  0.00    +0.251 A 
ATOM     14  N   UNL     1      -4.212   0.692  24.814  0.00  0.00    -0.188 NA
ATOM     15  C   UNL     1      -4.276   1.467  24.537  0.00  0.00    +0.221 A 
ATOM     16  N   UNL     1      -3.910   1.505  23.799  0.00  0.00    -0.054 NA
ATOM     17  O   UNL     1      -3.619   0.754  23.620  0.00  0.00    -0.336 OA
BRANCH  15  18
ATOM     18  C   UNL     1      -4.643   2.093  24.930  0.00  0.00    +0.120 A 
ATOM     19  N   UNL     1      -4.200   2.747  25.168  0.00  0.00    -0.241 NA
ATOM     20  C   UNL     1      -4.566   3.373  25.561  0.00  0.00    +0.099 A 
ATOM     21  C   UNL     1      -5.376   3.346  25.715  0.00  0.00    +0.021 A 
ATOM     22  C   UNL     1      -5.820   2.692  25.477  0.00  0.00    +0.003 A 
ATOM     23  C   UNL     1      -5.453   2.066  25.084  0.00  0.00    +0.022 A 
ENDBRANCH  15  18
ENDBRANCH   4  13
BRANCH   5   6
ATOM      6  C   UNL     1      -2.229  -0.434  24.763  0.00  0.00    +0.106 C 
BRANCH   6   7
ATOM      7  C   UNL     1      -1.516  -0.821  24.909  0.00  0.00    +0.023 A 
ATOM      8  C   UNL     1      -1.298  -1.185  25.617  0.00  0.00    +0.004 A 
ATOM      9  C   UNL     1      -0.543  -1.502  25.520  0.00  0.00    +0.007 A 
ATOM     10  C   UNL     1      -0.293  -1.334  24.751  0.00  0.00    +0.035 A 
ATOM     11  S   UNL     1      -0.895  -0.914  24.375  0.00  0.00    -0.089 S 
ENDBRANCH   6   7
ENDBRANCH   5   6
TORSDOF 4
ENDMDL
MODEL 4
REMARK VINA RESULT:     -10.0      2.088      2.835
REMARK  Name = 
REMARK  4 active torsions:
REMARK  status: ('A' for Active; 'I' for Inactive)
REMARK    1  A    between atoms: C_4  and  C_13
REMARK    2  A    between atoms: N_5  and  C_6
REMARK    3  A    between atoms: C_6  and  C_7
REMARK    4  A    between atoms: C_15  and  C_18
REMARK                            x       y       z     vdW  Elec       q    Type
REMARK                         _______ _______ _______ _____ _____    ______ ____
ROOT
ATOM      1  O   UNL     1       0.828   1.917  24.181  0.00  0.00    -0.222 OA
ATOM      2  C   UNL     1       0.086   1.708  24.475  0.00  0.00    +0.170 C 
ATOM      3  C   UNL     1      -0.192   0.939  24.586  0.00  0.00    +0.060 C 
ATOM      4  C   UNL     1      -0.958   0.987  24.889  0.00  0.00    +0.140 C 
ATOM      5  N   UNL     1      -1.153   1.785  24.965  0.00  0.00    -0.260 NA
ATOM     12  C   UNL     1      -0.507   2.230  24.709  0.00  0.00    +0.106 C 
ENDROOT
BRANCH   4  13
ATOM     13  C   UNL     1      -1.443   0.348  25.082  0.00  0.00    +0.251 A 
ATOM     14  N   UNL     1      -1.944  -0.054  24.565  0.00  0.00    -0.188 NA
ATOM     15  C   UNL     1      -2.324  -0.651  24.990  0.00  0.00    +0.221 A 
ATOM     16  N   UNL     1      -2.057  -0.618  25.770  0.00  0.00    -0.054 NA
ATOM     17  O   UNL     1      -1.513  -0.000  25.827  0.00  0.00    -0.336 OA
BRANCH  15  18
ATOM     18  C   UNL     1      -2.874  -1.187  24.688  0.00  0.00    +0.120 A 
ATOM     19  N   UNL     1      -2.694  -1.992  24.664  0.00  0.00    -0.241 NA
ATOM     20  C   UNL     1      -3.244  -2.528  24.362  0.00  0.00    +0.099 A 
ATOM     21  C   UNL     1      -3.973  -2.259  24.084  0.00  0.00    +0.021 A 
ATOM     22  C   UNL     1      -4.152  -1.454  24.108  0.00  0.00    +0.003 A 
ATOM     23  C   UNL     1      -3.602  -0.918  24.410  0.00  0.00    +0.022 A 
ENDBRANCH  15  18
ENDBRANCH   4  13
BRANCH   5   6
ATOM      6  C   UNL     1      -1.867   2.085  25.247  0.00  0.00    +0.106 C 
BRANCH   6   7
ATOM      7  C   UNL     1      -1.991   2.899  25.274  0.00  0.00    +0.023 A 
ATOM      8  C   UNL     1      -1.710   3.414  25.854  0.00  0.00    +0.004 A 
ATOM      9  C   UNL     1      -1.962   4.176  25.664  0.00  0.00    +0.007 A 
ATOM     10  C   UNL     1      -2.400   4.133  24.966  0.00  0.00    +0.035 A 
ATOM     11  S   UNL     1      -2.417   3.344  24.725  0.00  0.00    -0.089 S 
ENDBRANCH   6   7
ENDBRANCH   5   6
TORSDOF 4
ENDMDL
MODEL 5
REMARK VINA RESULT:      -9.9      2.436      4.188
REMARK  Name = 
REMARK  4 active torsions:
REMARK  status: ('A' for Active; 'I' for Inactive)
REMARK    1  A    between atoms: C_4  and  C_13
REMARK    2  A    between atoms: N_5  and  C_6
REMARK    3  A    between atoms: C_6  and  C_7
REMARK    4  A    between atoms: C_15  and  C_18
REMARK                            x       y       z     vdW  Elec       q    Type
REMARK                         _______ _______ _______ _____ _____    ______ ____
ROOT
ATOM      1  O   UNL     1       0.412   2.584  26.218  0.00  0.00    -0.222 OA
ATOM      2  C   UNL     1      -0.234   2.322  25.776  0.00  0.00    +0.170 C 
ATOM      3  C   UNL     1      -0.932   2.741  25.644  0.00  0.00    +0.060 C 
ATOM      4  C   UNL     1      -1.424   2.274  25.175  0.00  0.00    +0.140 C 
ATOM      5  N   UNL     1      -1.030   1.567  25.017  0.00  0.00    -0.260 NA
ATOM     12  C   UNL     1      -0.293   1.597  25.389  0.00  0.00    +0.106 C 
ENDROOT
BRANCH   4  13
ATOM     13  C   UNL     1      -2.178   2.478  24.910  0.00  0.00    +0.251 A 
ATOM     14  N   UNL     1      -2.885   2.358  25.318  0.00  0.00    -0.188 NA
ATOM     15  C   UNL     1      -3.501   2.644  24.850  0.00  0.00    +0.221 A 
ATOM     16  N   UNL     1      -3.176   2.942  24.153  0.00  0.00    -0.054 NA
ATOM     17  O   UNL     1      -2.357   2.840  24.190  0.00  0.00    -0.336 OA
BRANCH  15  18
ATOM     18  C   UNL     1      -4.303   2.635  25.045  0.00  0.00    +0.120 A 
ATOM     19  N   UNL     1      -4.636   3.269  25.454  0.00  0.00    -0.241 NA
ATOM     20  C   UNL     1      -5.437   3.259  25.649  0.00  0.00    +0.099 A 
ATOM     21  C   UNL     1      -5.906   2.615  25.435  0.00  0.00    +0.021 A 
ATOM     22  C   UNL     1      -5.574   1.981  25.025  0.00  0.00    +0.003 A 
ATOM     23  C   UNL     1      -4.772   1.990  24.830  0.00  0.00    +0.022 A 
ENDBRANCH  15  18
ENDBRANCH   4  13
BRANCH   5   6
ATOM      6  C   UNL     1      -1.319   0.940  24.567  0.00  0.00    +0.106 C 
BRANCH   6   7
ATOM      7  C   UNL     1      -0.969   0.196  24.621  0.00  0.00    +0.023 A 
ATOM      8  C   UNL     1      -1.118  -0.369  25.203  0.00  0.00    +0.004 A 
ATOM      9  C   UNL     1      -0.648  -1.029  25.045  0.00  0.00    +0.007 A 
ATOM     10  C   UNL     1      -0.208  -0.872  24.365  0.00  0.00    +0.035 A 
ATOM     11  S   UNL     1      -0.406  -0.115  24.104  0.00  0.00    -0.089 S 
ENDBRANCH   6   7
ENDBRANCH   5   6
TORSDOF 4
ENDMDL
MODEL 6
REMARK VINA RESULT:      -9.8      2.257      5.094
REMARK  Name = 
REMARK  4 active torsions:
REMARK  status: ('A' for Active; 'I' for Inactive)
REMARK    1  A    between atoms: C_4  and  C_13
REMARK    2  A    between atoms: N_5  and  C_6
REMARK    3  A    between atoms: C_6  and  C_7
REMARK    4  A    between atoms: C_15  and  C_18
REMARK                            x       y       z     vdW  Elec       q    Type
REMARK                         _______ _______ _______ _____ _____    ______ ____
ROOT
ATOM      1  O   UNL     1       0.108  -1.146  24.441  0.00  0.00    -0.222 OA
ATOM      2  C   UNL     1      -0.545  -0.642  24.443  0.00  0.00    +0.170 C 
ATOM      3  C   UNL     1      -0.532   0.168  24.289  0.00  0.00    +0.060 C 
ATOM      4  C   UNL     1      -1.305   0.451  24.350  0.00  0.00    +0.140 C 
ATOM      5  N   UNL     1      -1.795  -0.185  24.541  0.00  0.00    -0.260 NA
ATOM     12  C   UNL     1      -1.325  -0.861  24.598  0.00  0.00    +0.106 C 
ENDROOT
BRANCH   4  13
ATOM     13  C   UNL     1      -1.545   1.232  24.239  0.00  0.00    +0.251 A 
ATOM     14  N   UNL     1      -1.497   1.838  24.797  0.00  0.00    -0.188 NA
ATOM     15  C   UNL     1      -1.798   2.525  24.454  0.00  0.00    +0.221 A 
ATOM     16  N   UNL     1      -2.031   2.345  23.683  0.00  0.00    -0.054 NA
ATOM     17  O   UNL     1      -1.875   1.545  23.551  0.00  0.00    -0.336 OA
BRANCH  15  18
ATOM     18  C   UNL     1      -1.856   3.264  24.817  0.00  0.00    +0.120 A 
ATOM     19  N   UNL     1      -2.533   3.463  25.243  0.00  0.00    -0.241 NA
ATOM     20  C   UNL     1      -2.590   4.201  25.606  0.00  0.00    +0.099 A 
ATOM     21  C   UNL     1      -1.970   4.742  25.543  0.00  0.00    +0.021 A 
ATOM     22  C   UNL     1      -1.292   4.543  25.116  0.00  0.00    +0.003 A 
ATOM     23  C   UNL     1      -1.235   3.804  24.753  0.00  0.00    +0.022 A 
ENDBRANCH  15  18
ENDBRANCH   4  13
BRANCH   5   6
ATOM      6  C   UNL     1      -2.611  -0.151  24.655  0.00  0.00    +0.106 C 
BRANCH   6   7
ATOM      7  C   UNL     1      -3.042  -0.846  24.759  0.00  0.00    +0.023 A 
ATOM      8  C   UNL     1      -3.363  -1.312  24.159  0.00  0.00    +0.004 A 
ATOM      9  C   UNL     1      -3.748  -1.952  24.510  0.00  0.00    +0.007 A 
ATOM     10  C   UNL     1      -3.665  -1.881  25.328  0.00  0.00    +0.035 A 
ATOM     11  S   UNL     1      -3.228  -1.198  25.481  0.00  0.00    -0.089 S 
ENDBRANCH   6   7
ENDBRANCH   5   6
TORSDOF 4
ENDMDL
