MODEL 1
REMARK VINA RESULT:      -8.1      0.000      0.000
REMARK  Name = 
REMARK  2 active torsions:
REMARK  status: ('A' for Active; 'I' for Inactive)
REMARK    1  A    between atoms: O_2  and  C_3
REMARK    2  A    between atoms: C_10  and  C_12
REMARK                            x       y       z     vdW  Elec       q    Type
REMARK                         _______ _______ _______ _____ _____    ______ ____
ROOT
ATOM      3  C   UNL     1      -3.198   2.440  24.103  0.00  0.00    +0.165 C 
ATOM      4  C   UNL     1      -4.006   2.370  23.947  0.00  0.00    +0.173 C 
ATOM      5  O   UNL     1      -4.637   2.733  24.333  0.00  0.00    -0.349 OA
ATOM      6  C   UNL     1      -4.618   3.257  24.970  0.00  0.00    +0.164 C 
ATOM      7  C   UNL     1      -3.962   3.547  25.378  0.00  0.00    +0.126 C 
ATOM      8  N   UNL     1      -3.164   3.384  25.250  0.00  0.00    -0.270 N 
ATOM      9  C   UNL     1      -2.824   2.892  24.683  0.00  0.00    +0.126 C 
ATOM     10  C   UNL     1      -2.635   3.765  25.757  0.00  0.00    +0.267 C 
ATOM     11  O   UNL     1      -2.919   4.270  26.345  0.00  0.00    -0.268 OA
ENDROOT
BRANCH  10  12
ATOM     12  C   UNL     1      -1.824   3.640  25.676  0.00  0.00    +0.132 A 
ATOM     13  C   UNL     1      -1.414   2.959  25.894  0.00  0.00    +0.040 A 
ATOM     14  C   UNL     1      -0.616   3.073  25.716  0.00  0.00    +0.081 A 
ATOM     15  C   UNL     1      -0.009   2.530  25.843  0.00  0.00    +0.054 C 
ATOM     16  N   UNL     1      -0.533   3.825  25.387  0.00  0.00    -0.173 NA
ATOM     17  N   UNL     1      -1.280   4.176  25.363  0.00  0.00    -0.245 N 
ATOM     18  C   UNL     1      -1.452   4.930  25.076  0.00  0.00    +0.154 C 
ENDBRANCH  10  12
BRANCH   3   2
ATOM      1  C   UNL     1      -2.860   1.944  22.806  0.00  0.00    +0.174 C 
ATOM      2  O   UNL     1      -2.700   2.001  23.613  0.00  0.00    -0.349 OA
ENDBRANCH   3   2
TORSDOF 2
ENDMDL
MODEL 2
REMARK VINA RESULT:      -8.1      2.600      3.981
REMARK  Name = 
REMARK  2 active torsions:
REMARK  status: ('A' for Active; 'I' for Inactive)
REMARK    1  A    between atoms: O_2  and  C_3
REMARK    2  A    between atoms: C_10  and  C_12
REMARK                            x       y       z     vdW  Elec       q    Type
REMARK                         _______ _______ _______ _____ _____    ______ ____
ROOT
ATOM      3  C   UNL     1      -4.560   1.678  24.722  0.00  0.00    +0.165 C 
ATOM      4  C   UNL     1      -4.500   2.500  24.670  0.00  0.00    +0.173 C 
ATOM      5  O   UNL     1      -3.843   2.955  24.469  0.00  0.00    -0.349 OA
ATOM      6  C   UNL     1      -3.083   2.703  24.271  0.00  0.00    +0.164 C 
ATOM      7  C   UNL     1      -2.792   1.932  24.224  0.00  0.00    +0.126 C 
ATOM      8  N   UNL     1      -3.191   1.224  24.364  0.00  0.00    -0.270 N 
ATOM      9  C   UNL     1      -3.977   1.111  24.586  0.00  0.00    +0.126 C 
ATOM     10  C   UNL     1      -2.743   0.537  24.270  0.00  0.00    +0.267 C 
ATOM     11  O   UNL     1      -1.950   0.589  24.049  0.00  0.00    -0.268 OA
ENDROOT
BRANCH  10  12
ATOM     12  C   UNL     1      -3.088  -0.201  24.397  0.00  0.00    +0.132 A 
ATOM     13  C   UNL     1      -3.633  -0.574  23.902  0.00  0.00    +0.040 A 
ATOM     14  C   UNL     1      -3.831  -1.300  24.241  0.00  0.00    +0.081 A 
ATOM     15  C   UNL     1      -4.359  -1.852  23.929  0.00  0.00    +0.054 C 
ATOM     16  N   UNL     1      -3.408  -1.376  24.945  0.00  0.00    -0.173 NA
ATOM     17  N   UNL     1      -2.949  -0.698  25.042  0.00  0.00    -0.245 N 
ATOM     18  C   UNL     1      -2.441  -0.542  25.672  0.00  0.00    +0.154 C 
ENDBRANCH  10  12
BRANCH   3   2
ATOM      1  C   UNL     1      -5.862   1.892  25.269  0.00  0.00    +0.174 C 
ATOM      2  O   UNL     1      -5.301   1.386  24.938  0.00  0.00    -0.349 OA
ENDBRANCH   3   2
TORSDOF 2
ENDMDL
MODEL 3
REMARK VINA RESULT:      -8.0      2.134      3.407
REMARK  Name = 
REMARK  2 active torsions:
REMARK  status: ('A' for Active; 'I' for Inactive)
REMARK    1  A    between atoms: O_2  and  C_3
REMARK    2  A    between atoms: C_10  and  C_12
REMARK                            x       y       z     vdW  Elec       q    Type
REMARK                         _______ _______ _______ _____ _____    ______ ____
ROOT
ATOM      3  C   UNL     1      -2.802   0.848  24.616  0.00  0.00    +0.165 C 
ATOM      4  C   UNL     1      -2.117   0.674  24.190  0.00  0.00    +0.173 C 
ATOM      5  O   UNL     1      -1.762   1.110  23.587  0.00  0.00    -0.349 OA
ATOM      6  C   UNL     1      -2.004   1.828  23.260  0.00  0.00    +0.164 C 
ATOM      7  C   UNL     1      -2.661   2.287  23.456  0.00  0.00    +0.126 C 
ATOM      8  N   UNL     1      -3.238   2.141  24.027  0.00  0.00    -0.270 N 
ATOM      9  C   UNL     1      -3.301   1.502  24.543  0.00  0.00    +0.126 C 
ATOM     10  C   UNL     1      -3.831   2.712  24.091  0.00  0.00    +0.267 C 
ATOM     11  O   UNL     1      -3.820   3.374  23.599  0.00  0.00    -0.268 OA
ENDROOT
BRANCH  10  12
ATOM     12  C   UNL     1      -4.435   2.619  24.645  0.00  0.00    +0.132 A 
ATOM     13  C   UNL     1      -5.063   2.087  24.594  0.00  0.00    +0.040 A 
ATOM     14  C   UNL     1      -5.533   2.182  25.266  0.00  0.00    +0.081 A 
ATOM     15  C   UNL     1      -6.220   1.759  25.440  0.00  0.00    +0.054 C 
ATOM     16  N   UNL     1      -5.196   2.773  25.732  0.00  0.00    -0.173 NA
ATOM     17  N   UNL     1      -4.517   3.044  25.348  0.00  0.00    -0.245 N 
ATOM     18  C   UNL     1      -4.009   3.634  25.620  0.00  0.00    +0.154 C 
ENDBRANCH  10  12
BRANCH   3   2
ATOM      1  C   UNL     1      -2.582  -0.400  25.275  0.00  0.00    +0.174 C 
ATOM      2  O   UNL     1      -3.016   0.296  25.191  0.00  0.00    -0.349 OA
ENDBRANCH   3   2
TORSDOF 2
ENDMDL
MODEL 4
REMARK VINA RESULT:      -7.9      2.521      3.814
REMARK  Name = 
REMARK  2 active torsions:
REMARK  status: ('A' for Active; 'I' for Inactive)
REMARK    1  A    between atoms: O_2  and  C_3
REMARK    2  A    between atoms: C_10  and  C_12
REMARK                            x       y       z     vdW  Elec       q    Type
REMARK                         _______ _______ _______ _____ _____    ______ ____
ROOT
ATOM      3  C   UNL     1      -3.486  -0.673  24.433  0.00  0.00    +0.165 C 
ATOM      4  C   UNL     1      -2.880  -1.226  24.518  0.00  0.00    +0.173 C 
ATOM      5  O   UNL     1      -2.101  -1.103  24.756  0.00  0.00    -0.349 OA
ATOM      6  C   UNL     1      -1.734  -0.395  24.969  0.00  0.00    +0.164 C 
ATOM      7  C   UNL     1      -2.056   0.364  24.995  0.00  0.00    +0.126 C 
ATOM      8  N   UNL     1      -2.825   0.602  24.816  0.00  0.00    -0.270 N 
ATOM      9  C   UNL     1      -3.461   0.141  24.566  0.00  0.00    +0.126 C 
ATOM     10  C   UNL     1      -2.978   1.409  24.897  0.00  0.00    +0.267 C 
ATOM     11  O   UNL     1      -2.379   1.919  25.144  0.00  0.00    -0.268 OA
ENDROOT
BRANCH  10  12
ATOM     12  C   UNL     1      -3.730   1.705  24.731  0.00  0.00    +0.132 A 
ATOM     13  C   UNL     1      -4.408   1.590  25.187  0.00  0.00    +0.040 A 
ATOM     14  C   UNL     1      -5.034   1.982  24.818  0.00  0.00    +0.081 A 
ATOM     15  C   UNL     1      -5.813   2.011  25.086  0.00  0.00    +0.054 C 
ATOM     16  N   UNL     1      -4.742   2.340  24.134  0.00  0.00    -0.173 NA
ATOM     17  N   UNL     1      -3.936   2.169  24.081  0.00  0.00    -0.245 N 
ATOM     18  C   UNL     1      -3.427   2.418  23.482  0.00  0.00    +0.154 C 
ENDBRANCH  10  12
BRANCH   3   2
ATOM      1  C   UNL     1      -4.262  -1.743  23.890  0.00  0.00    +0.174 C 
ATOM      2  O   UNL     1      -4.213  -0.973  24.183  0.00  0.00    -0.349 OA
ENDBRANCH   3   2
TORSDOF 2
ENDMDL
MODEL 5
REMARK VINA RESULT:      -7.7      2.890      3.793
REMARK  Name = 
REMARK  2 active torsions:
REMARK  status: ('A' for Active; 'I' for Inactive)
REMARK    1  A    between atoms: O_2  and  C_3
REMARK    2  A    between atoms: C_10  and  C_12
REMARK                            x       y       z     vdW  Elec       q    Type
REMARK                         _______ _______ _______ _____ _____    ______ ____
ROOT
ATOM      3  C   UNL     1      -3.195   1.518  23.721  0.00  0.00    +0.165 C 
ATOM      4  C   UNL     1      -3.614   2.229  23.713  0.00  0.00    +0.173 C 
ATOM      5  O   UNL     1      -4.280   2.438  24.151  0.00  0.00    -0.349 OA
ATOM      6  C   UNL     1      -4.693   1.988  24.706  0.00  0.00    +0.164 C 
ATOM      7  C   UNL     1      -4.542   1.217  24.959  0.00  0.00    +0.126 C 
ATOM      8  N   UNL     1      -3.941   0.707  24.719  0.00  0.00    -0.270 N 
ATOM      9  C   UNL     1      -3.341   0.840  24.169  0.00  0.00    +0.126 C 
ATOM     10  C   UNL     1      -3.938  -0.036  25.079  0.00  0.00    +0.267 C 
ATOM     11  O   UNL     1      -4.514  -0.226  25.638  0.00  0.00    -0.268 OA
ENDROOT
BRANCH  10  12
ATOM     12  C   UNL     1      -3.359  -0.589  24.879  0.00  0.00    +0.132 A 
ATOM     13  C   UNL     1      -2.568  -0.571  25.114  0.00  0.00    +0.040 A 
ATOM     14  C   UNL     1      -2.190  -1.228  24.789  0.00  0.00    +0.081 A 
ATOM     15  C   UNL     1      -1.395  -1.425  24.884  0.00  0.00    +0.054 C 
ATOM     16  N   UNL     1      -2.746  -1.653  24.352  0.00  0.00    -0.173 NA
ATOM     17  N   UNL     1      -3.469  -1.258  24.408  0.00  0.00    -0.245 N 
ATOM     18  C   UNL     1      -4.177  -1.491  24.055  0.00  0.00    +0.154 C 
ENDBRANCH  10  12
BRANCH   3   2
ATOM      1  C   UNL     1      -2.492   1.995  22.573  0.00  0.00    +0.174 C 
ATOM      2  O   UNL     1      -2.546   1.478  23.213  0.00  0.00    -0.349 OA
ENDBRANCH   3   2
TORSDOF 2
ENDMDL
MODEL 6
REMARK VINA RESULT:      -7.7      1.518      3.182
REMARK  Name = 
REMARK  2 active torsions:
REMARK  status: ('A' for Active; 'I' for Inactive)
REMARK    1  A    between atoms: O_2  and  C_3
REMARK    2  A    between atoms: C_10  and  C_12
REMARK                            x       y       z     vdW  Elec       q    Type
REMARK                         _______ _______ _______ _____ _____    ______ ____
ROOT
ATOM      3  C   UNL     1      -1.512   2.645  25.480  0.00  0.00    +0.165 C 
ATOM      4  C   UNL     1      -1.198   3.353  25.764  0.00  0.00    +0.173 C 
ATOM      5  O   UNL     1      -1.482   4.120  25.661  0.00  0.00    -0.349 OA
ATOM      6  C   UNL     1      -2.152   4.369  25.249  0.00  0.00    +0.164 C 
ATOM      7  C   UNL     1      -2.703   3.913  24.837  0.00  0.00    +0.126 C 
ATOM      8  N   UNL     1      -2.719   3.095  24.737  0.00  0.00    -0.270 N 
ATOM      9  C   UNL     1      -2.190   2.530  25.022  0.00  0.00    +0.126 C 
ATOM     10  C   UNL     1      -3.349   2.801  24.291  0.00  0.00    +0.267 C 
ATOM     11  O   UNL     1      -3.910   3.319  23.980  0.00  0.00    -0.268 OA
ENDROOT
BRANCH  10  12
ATOM     12  C   UNL     1      -3.417   1.990  24.158  0.00  0.00    +0.132 A 
ATOM     13  C   UNL     1      -3.697   1.431  24.696  0.00  0.00    +0.040 A 
ATOM     14  C   UNL     1      -3.670   0.690  24.333  0.00  0.00    +0.081 A 
ATOM     15  C   UNL     1      -3.900  -0.025  24.674  0.00  0.00    +0.054 C 
ATOM     16  N   UNL     1      -3.374   0.791  23.570  0.00  0.00    -0.173 NA
ATOM     17  N   UNL     1      -3.217   1.594  23.461  0.00  0.00    -0.245 N 
ATOM     18  C   UNL     1      -2.915   1.941  22.777  0.00  0.00    +0.154 C 
ENDBRANCH  10  12
BRANCH   3   2
ATOM      1  C   UNL     1      -0.283   2.002  25.822  0.00  0.00    +0.174 C 
ATOM      2  O   UNL     1      -1.095   1.962  25.679  0.00  0.00    -0.349 OA
ENDBRANCH   3   2
TORSDOF 2
ENDMDL
MODEL 7
REMARK VINA RESULT:      -7.7      1.423      2.322
REMARK  Name = 
REMARK  2 active torsions:
REMARK  status: ('A' for Active; 'I' for Inactive)
REMARK    1  A    between atoms: O_2  and  C_3
REMARK    2  A    between atoms: C_10  and  C_12
REMARK                            x       y       z     vdW  Elec       q    Type
REMARK                         _______ _______ _______ _____ _____    ______ ____
ROOT
ATOM      3  C   UNL     1      -2.091   1.198  24.942  0.00  0.00    +0.165 C 
ATOM      4  C   UNL     1      -2.318   0.467  24.635  0.00  0.00    +0.173 C 
ATOM      5  O   UNL     1      -2.956   0.292  24.142  0.00  0.00    -0.349 OA
ATOM      6  C   UNL     1      -3.524   0.805  23.834  0.00  0.00    +0.164 C 
ATOM      7  C   UNL     1      -3.595   1.620  23.944  0.00  0.00    +0.126 C 
ATOM      8  N   UNL     1      -3.115   2.122  24.388  0.00  0.00    -0.270 N 
ATOM      9  C   UNL     1      -2.446   1.935  24.832  0.00  0.00    +0.126 C 
ATOM     10  C   UNL     1      -3.334   2.918  24.389  0.00  0.00    +0.267 C 
ATOM     11  O   UNL     1      -3.995   3.164  23.961  0.00  0.00    -0.268 OA
ENDROOT
BRANCH  10  12
ATOM     12  C   UNL     1      -2.891   3.468  24.816  0.00  0.00    +0.132 A 
ATOM     13  C   UNL     1      -2.148   3.759  24.607  0.00  0.00    +0.040 A 
ATOM     14  C   UNL     1      -1.910   4.294  25.189  0.00  0.00    +0.081 A 
ATOM     15  C   UNL     1      -1.201   4.715  25.200  0.00  0.00    +0.054 C 
ATOM     16  N   UNL     1      -2.507   4.333  25.758  0.00  0.00    -0.173 NA
ATOM     17  N   UNL     1      -3.113   3.822  25.527  0.00  0.00    -0.245 N 
ATOM     18  C   UNL     1      -3.817   3.690  25.935  0.00  0.00    +0.154 C 
ENDBRANCH  10  12
BRANCH   3   2
ATOM      1  C   UNL     1      -0.970   0.505  25.492  0.00  0.00    +0.174 C 
ATOM      2  O   UNL     1      -1.421   1.192  25.423  0.00  0.00    -0.349 OA
ENDBRANCH   3   2
TORSDOF 2
ENDMDL
MODEL 8
REMARK VINA RESULT:      -7.6      2.127      3.178
REMARK  Name = 
REMARK  2 active torsions:
REMARK  status: ('A' for Active; 'I' for Inactive)
REMARK    1  A    between atoms: O_2  and  C_3
REMARK    2  A    between atoms: C_10  and  C_12
REMARK                            x       y       z     vdW  Elec       q    Type
REMARK                         _______ _______ _______ _____ _____    ______ ____
ROOT
ATOM      3  C   UNL     1      -4.180   3.216  25.414  0.00  0.00    +0.165 C 
ATOM      4  C   UNL     1      -4.820   3.467  25.870  0.00  0.00    +0.173 C 
ATOM      5  O   UNL     1      -5.514   3.060  26.050  0.00  0.00    -0.349 OA
ATOM      6  C   UNL     1      -5.740   2.301  25.818  0.00  0.00    +0.164 C 
ATOM      7  C   UNL     1      -5.328   1.762  25.349  0.00  0.00    +0.126 C 
ATOM      8  N   UNL     1      -4.588   1.849  24.996  0.00  0.00    -0.270 N 
ATOM      9  C   UNL     1      -4.077   2.496  25.025  0.00  0.00    +0.126 C 
ATOM     10  C   UNL     1      -4.323   1.203  24.555  0.00  0.00    +0.267 C 
ATOM     11  O   UNL     1      -4.792   0.528  24.492  0.00  0.00    -0.268 OA
ENDROOT
BRANCH  10  12
ATOM     12  C   UNL     1      -3.589   1.233  24.179  0.00  0.00    +0.132 A 
ATOM     13  C   UNL     1      -3.404   1.682  23.513  0.00  0.00    +0.040 A 
ATOM     14  C   UNL     1      -2.612   1.546  23.325  0.00  0.00    +0.081 A 
ATOM     15  C   UNL     1      -2.197   1.884  22.698  0.00  0.00    +0.054 C 
ATOM     16  N   UNL     1      -2.308   1.012  23.876  0.00  0.00    -0.173 NA
ATOM     17  N   UNL     1      -2.912   0.819  24.404  0.00  0.00    -0.245 N 
ATOM     18  C   UNL     1      -2.849   0.302  25.044  0.00  0.00    +0.154 C 
ENDBRANCH  10  12
BRANCH   3   2
ATOM      1  C   UNL     1      -3.255   4.131  26.005  0.00  0.00    +0.174 C 
ATOM      2  O   UNL     1      -3.562   3.757  25.336  0.00  0.00    -0.349 OA
ENDBRANCH   3   2
TORSDOF 2
ENDMDL
MODEL 9
REMARK VINA RESULT:      -7.6      2.942      4.469
REMARK  Name = 
REMARK  2 active torsions:
REMARK  status: ('A' for Active; 'I' for Inactive)
REMARK    1  A    between atoms: O_2  and  C_3
REMARK    2  A    between atoms: C_10  and  C_12
REMARK                            x       y       z     vdW  Elec       q    Type
REMARK                         _______ _______ _______ _____ _____    ______ ____
ROOT
ATOM      3  C   UNL     1      -1.327  -0.126  24.908  0.00  0.00    +0.165 C 
ATOM      4  C   UNL     1      -0.635   0.323  24.892  0.00  0.00    +0.173 C 
ATOM      5  O   UNL     1      -0.508   1.062  24.549  0.00  0.00    -0.349 OA
ATOM      6  C   UNL     1      -1.043   1.535  24.135  0.00  0.00    +0.164 C 
ATOM      7  C   UNL     1      -1.836   1.386  23.964  0.00  0.00    +0.126 C 
ATOM      8  N   UNL     1      -2.290   0.728  24.163  0.00  0.00    -0.270 N 
ATOM      9  C   UNL     1      -2.064   0.055  24.583  0.00  0.00    +0.126 C 
ATOM     10  C   UNL     1      -3.075   0.743  23.909  0.00  0.00    +0.267 C 
ATOM     11  O   UNL     1      -3.357   1.392  23.484  0.00  0.00    -0.268 OA
ENDROOT
BRANCH  10  12
ATOM     12  C   UNL     1      -3.577   0.111  24.079  0.00  0.00    +0.132 A 
ATOM     13  C   UNL     1      -3.545  -0.639  23.738  0.00  0.00    +0.040 A 
ATOM     14  C   UNL     1      -4.148  -1.096  24.069  0.00  0.00    +0.081 A 
ATOM     15  C   UNL     1      -4.316  -1.882  23.886  0.00  0.00    +0.054 C 
ATOM     16  N   UNL     1      -4.552  -0.628  24.615  0.00  0.00    -0.173 NA
ATOM     17  N   UNL     1      -4.199   0.118  24.622  0.00  0.00    -0.245 N 
ATOM     18  C   UNL     1      -4.428   0.759  25.088  0.00  0.00    +0.154 C 
ENDBRANCH  10  12
BRANCH   3   2
ATOM      1  C   UNL     1      -0.566  -1.271  25.297  0.00  0.00    +0.174 C 
ATOM      2  O   UNL     1      -1.276  -0.850  25.300  0.00  0.00    -0.349 OA
ENDBRANCH   3   2
TORSDOF 2
ENDMDL
MODEL 10
REMARK VINA RESULT:      -7.6      1.906      3.636
REMARK  Name = 
REMARK  2 active torsions:
REMARK  status: ('A' for Active; 'I' for Inactive)
REMARK    1  A    between atoms: O_2  and  C_3
REMARK    2  A    between atoms: C_10  and  C_12
REMARK                            x       y       z     vdW  Elec       q    Type
REMARK                         _______ _______ _______ _____ _____    ______ ____
ROOT
ATOM      3  C   UNL     1      -1.285   1.535  25.388  0.00  0.00    +0.165 C 
ATOM      4  C   UNL     1      -0.772   0.921  25.589  0.00  0.00    +0.173 C 
ATOM      5  O   UNL     1      -0.825   0.122  25.393  0.00  0.00    -0.349 OA
ATOM      6  C   UNL     1      -1.404  -0.262  24.949  0.00  0.00    +0.164 C 
ATOM      7  C   UNL     1      -2.074   0.059  24.589  0.00  0.00    +0.126 C 
ATOM      8  N   UNL     1      -2.329   0.843  24.587  0.00  0.00    -0.270 N 
ATOM      9  C   UNL     1      -1.978   1.500  24.942  0.00  0.00    +0.126 C 
ATOM     10  C   UNL     1      -3.028   0.991  24.173  0.00  0.00    +0.267 C 
ATOM     11  O   UNL     1      -3.423   0.372  23.798  0.00  0.00    -0.268 OA
ENDROOT
BRANCH  10  12
ATOM     12  C   UNL     1      -3.332   1.757  24.136  0.00  0.00    +0.132 A 
ATOM     13  C   UNL     1      -3.729   2.151  24.742  0.00  0.00    +0.040 A 
ATOM     14  C   UNL     1      -3.934   2.902  24.467  0.00  0.00    +0.081 A 
ATOM     15  C   UNL     1      -4.338   3.481  24.893  0.00  0.00    +0.054 C 
ATOM     16  N   UNL     1      -3.664   2.972  23.691  0.00  0.00    -0.173 NA
ATOM     17  N   UNL     1      -3.291   2.264  23.486  0.00  0.00    -0.245 N 
ATOM     18  C   UNL     1      -2.940   2.093  22.760  0.00  0.00    +0.154 C 
ENDBRANCH  10  12
BRANCH   3   2
ATOM      1  C   UNL     1      -0.315   2.419  25.952  0.00  0.00    +0.174 C 
ATOM      2  O   UNL     1      -1.078   2.282  25.671  0.00  0.00    -0.349 OA
ENDBRANCH   3   2
TORSDOF 2
ENDMDL
