REMARK  Name = 
REMARK  9 active torsions:
REMARK  status: ('A' for Active; 'I' for Inactive)
REMARK    1  A    between atoms: C_2  and  C_3
REMARK    2  A    between atoms: C_3  and  O_4
REMARK    3  A    between atoms: O_4  and  C_5
REMARK    4  A    between atoms: N_11  and  C_12
REMARK    5  A    between atoms: C_16  and  O_20
REMARK    6  A    between atoms: O_20  and  C_21
REMARK    7  A    between atoms: N_23  and  C_24
REMARK    8  A    between atoms: C_27  and  O_28
REMARK    9  A    between atoms: O_28  and  C_29
REMARK                            x       y       z     vdW  Elec       q    Type
REMARK                         _______ _______ _______ _____ _____    ______ ____
ROOT
ATOM     12  C   UNL     1       1.270  -0.922   0.000  0.00  0.00    +0.154 C 
ATOM     13  C   UNL     1       0.785  -0.255   0.000  0.00  0.00    +0.166 C 
ATOM     14  O   UNL     1       1.270   0.412   0.000  0.00  0.00    -0.348 OA
ATOM     15  C   UNL     1       2.054   0.158   0.000  0.00  0.00    +0.186 C 
ATOM     16  C   UNL     1       2.839   0.412   0.000  0.00  0.00    +0.229 C 
ATOM     17  C   UNL     1       3.324  -0.255   0.000  0.00  0.00    +0.188 C 
ATOM     18  O   UNL     1       2.839  -0.922   0.000  0.00  0.00    -0.348 OA
ATOM     19  C   UNL     1       2.054  -0.667   0.000  0.00  0.00    +0.168 C 
ENDROOT
BRANCH  12  11
ATOM      1  O   UNL     1      -0.344  -1.265   0.000  0.00  0.00    -0.269 OA
ATOM      2  C   UNL     1       0.208  -1.879   0.000  0.00  0.00    +0.286 C 
ATOM     11  N   UNL     1       1.015  -1.707   0.000  0.00  0.00    -0.199 NA
BRANCH   2   3
ATOM      3  C   UNL     1      -0.047  -2.663   0.000  0.00  0.00    +0.291 C 
BRANCH   3   4
ATOM      4  O   UNL     1      -0.854  -2.835   0.000  0.00  0.00    -0.466 OA
BRANCH   4   5
ATOM      5  C   UNL     1      -1.109  -3.619   0.000  0.00  0.00    +0.139 A 
ATOM      6  C   UNL     1      -0.557  -4.232   0.000  0.00  0.00    +0.037 A 
ATOM      7  C   UNL     1      -0.812  -5.017   0.000  0.00  0.00    +0.003 A 
ATOM      8  C   UNL     1      -1.619  -5.189   0.000  0.00  0.00    +0.000 A 
ATOM      9  C   UNL     1      -2.171  -4.575   0.000  0.00  0.00    +0.003 A 
ATOM     10  C   UNL     1      -1.916  -3.791   0.000  0.00  0.00    +0.037 A 
ENDBRANCH   4   5
ENDBRANCH   3   4
ENDBRANCH   2   3
ENDBRANCH  12  11
BRANCH  16  20
ATOM     20  O   UNL     1       3.094   1.197   0.000  0.00  0.00    -0.432 OA
BRANCH  20  21
ATOM     21  C   UNL     1       3.901   1.369   0.000  0.00  0.00    +0.425 C 
ATOM     22  O   UNL     1       4.453   0.756   0.000  0.00  0.00    -0.224 OA
ATOM     23  N   UNL     1       4.156   2.153   0.000  0.00  0.00    -0.142 NA
BRANCH  23  24
ATOM     24  C   UNL     1       4.963   2.325   0.000  0.00  0.00    +0.077 A 
ATOM     25  C   UNL     1       5.218   3.109   0.000  0.00  0.00    +0.020 A 
ATOM     26  C   UNL     1       6.024   3.281   0.000  0.00  0.00    +0.039 A 
ATOM     27  C   UNL     1       6.577   2.668   0.000  0.00  0.00    +0.145 A 
ATOM     35  C   UNL     1       6.322   1.883   0.000  0.00  0.00    +0.039 A 
ATOM     36  C   UNL     1       5.515   1.712   0.000  0.00  0.00    +0.020 A 
BRANCH  27  28
ATOM     28  O   UNL     1       7.383   2.839   0.000  0.00  0.00    -0.453 OA
BRANCH  28  29
ATOM     29  C   UNL     1       7.638   3.624   0.000  0.00  0.00    +0.145 A 
ATOM     30  C   UNL     1       7.086   4.237   0.000  0.00  0.00    +0.037 A 
ATOM     31  C   UNL     1       7.341   5.022   0.000  0.00  0.00    +0.003 A 
ATOM     32  C   UNL     1       8.148   5.193   0.000  0.00  0.00    +0.000 A 
ATOM     33  C   UNL     1       8.700   4.580   0.000  0.00  0.00    +0.003 A 
ATOM     34  C   UNL     1       8.445   3.796   0.000  0.00  0.00    +0.037 A 
ENDBRANCH  28  29
ENDBRANCH  27  28
ENDBRANCH  23  24
ENDBRANCH  20  21
ENDBRANCH  16  20
TORSDOF 9
