MODEL 1
REMARK VINA RESULT:     -13.9      0.000      0.000
REMARK  Name = 
REMARK  5 active torsions:
REMARK  status: ('A' for Active; 'I' for Inactive)
REMARK    1  A    between atoms: C_2  and  C_3
REMARK    2  A    between atoms: C_3  and  O_4
REMARK    3  A    between atoms: O_4  and  C_5
REMARK    4  A    between atoms: C_20  and  N_21
REMARK    5  A    between atoms: C_22  and  C_24
REMARK                            x       y       z     vdW  Elec       q    Type
REMARK                         _______ _______ _______ _____ _____    ______ ____
ROOT
ATOM      1  O   UNL     1      -1.080  -0.406  25.044  0.00  0.00    -0.271 OA
ATOM      2  C   UNL     1      -1.864  -0.610  24.892  0.00  0.00    +0.270 C 
ATOM     11  N   UNL     1      -2.069  -1.401  24.769  0.00  0.00    -0.276 N 
ATOM     12  C   UNL     1      -1.974  -2.227  24.692  0.00  0.00    +0.095 C 
ATOM     13  C   UNL     1      -2.910  -2.485  24.509  0.00  0.00    +0.043 C 
ATOM     14  C   UNL     1      -3.619  -2.855  24.352  0.00  0.00    +0.011 C 
ATOM     15  C   UNL     1      -3.388  -2.201  24.463  0.00  0.00    +0.058 C 
ATOM     16  C   UNL     1      -2.479  -1.968  24.638  0.00  0.00    +0.099 C 
ATOM     17  C   UNL     1      -3.682  -1.332  24.512  0.00  0.00    +0.041 A 
ATOM     18  C   UNL     1      -4.373  -0.885  24.449  0.00  0.00    +0.014 A 
ATOM     19  C   UNL     1      -4.344  -0.066  24.546  0.00  0.00    +0.023 A 
ATOM     20  C   UNL     1      -3.624   0.305  24.706  0.00  0.00    +0.130 A 
ATOM     29  C   UNL     1      -2.934  -0.142  24.769  0.00  0.00    +0.276 A 
ATOM     30  O   UNL     1      -2.577   0.588  24.910  0.00  0.00    -0.266 OA
ATOM     31  N   UNL     1      -2.963  -0.961  24.672  0.00  0.00    -0.298 N 
ATOM     32  C   UNL     1      -3.208  -1.574  24.563  0.00  0.00    +0.110 C 
ENDROOT
BRANCH  20  21
ATOM     21  N   UNL     1      -3.596   1.124  24.803  0.00  0.00    -0.168 NA
ATOM     22  C   UNL     1      -4.292   1.566  24.779  0.00  0.00    +0.304 C 
ATOM     23  O   UNL     1      -5.016   1.190  24.658  0.00  0.00    -0.265 OA
BRANCH  22  24
ATOM     24  C   UNL     1      -4.263   2.386  24.876  0.00  0.00    +0.201 A 
ATOM     25  C   UNL     1      -4.264   2.945  24.270  0.00  0.00    +0.046 A 
ATOM     26  C   UNL     1      -4.230   3.695  24.615  0.00  0.00    +0.044 A 
ATOM     27  C   UNL     1      -4.208   3.597  25.434  0.00  0.00    +0.180 A 
ATOM     28  O   UNL     1      -4.229   2.788  25.595  0.00  0.00    -0.446 OA
ENDBRANCH  22  24
ENDBRANCH  20  21
BRANCH   2   3
ATOM      3  C   UNL     1      -2.445  -0.024  24.862  0.00  0.00    +0.290 C 
BRANCH   3   4
ATOM      4  O   UNL     1      -2.262   0.749  25.083  0.00  0.00    -0.466 OA
BRANCH   4   5
ATOM      5  C   UNL     1      -1.516   1.060  24.918  0.00  0.00    +0.139 A 
ATOM      6  C   UNL     1      -0.997   1.236  25.535  0.00  0.00    +0.037 A 
ATOM      7  C   UNL     1      -0.250   1.548  25.370  0.00  0.00    +0.003 A 
ATOM      8  C   UNL     1      -0.024   1.683  24.589  0.00  0.00    +0.000 A 
ATOM      9  C   UNL     1      -0.543   1.507  23.972  0.00  0.00    +0.003 A 
ATOM     10  C   UNL     1      -1.289   1.196  24.137  0.00  0.00    +0.037 A 
ENDBRANCH   4   5
ENDBRANCH   3   4
ENDBRANCH   2   3
TORSDOF 5
ENDMDL
MODEL 2
REMARK VINA RESULT:     -13.9      0.855      2.800
REMARK  Name = 
REMARK  5 active torsions:
REMARK  status: ('A' for Active; 'I' for Inactive)
REMARK    1  A    between atoms: C_2  and  C_3
REMARK    2  A    between atoms: C_3  and  O_4
REMARK    3  A    between atoms: O_4  and  C_5
REMARK    4  A    between atoms: C_20  and  N_21
REMARK    5  A    between atoms: C_22  and  C_24
REMARK                            x       y       z     vdW  Elec       q    Type
REMARK                         _______ _______ _______ _____ _____    ______ ____
ROOT
ATOM      1  O   UNL     1      -4.535   0.646  24.295  0.00  0.00    -0.271 OA
ATOM      2  C   UNL     1      -3.962   0.064  24.409  0.00  0.00    +0.270 C 
ATOM     11  N   UNL     1      -4.148  -0.729  24.280  0.00  0.00    -0.276 N 
ATOM     12  C   UNL     1      -4.604  -1.401  24.083  0.00  0.00    +0.095 C 
ATOM     13  C   UNL     1      -3.927  -2.107  24.216  0.00  0.00    +0.043 C 
ATOM     14  C   UNL     1      -3.494  -2.794  24.280  0.00  0.00    +0.011 C 
ATOM     15  C   UNL     1      -3.392  -2.106  24.374  0.00  0.00    +0.058 C 
ATOM     16  C   UNL     1      -4.058  -1.435  24.241  0.00  0.00    +0.099 C 
ATOM     17  C   UNL     1      -2.746  -1.500  24.620  0.00  0.00    +0.041 A 
ATOM     18  C   UNL     1      -1.957  -1.466  24.856  0.00  0.00    +0.014 A 
ATOM     19  C   UNL     1      -1.608  -0.738  25.026  0.00  0.00    +0.023 A 
ATOM     20  C   UNL     1      -2.050  -0.044  24.961  0.00  0.00    +0.130 A 
ATOM     29  C   UNL     1      -2.840  -0.078  24.726  0.00  0.00    +0.276 A 
ATOM     30  O   UNL     1      -2.811   0.741  24.811  0.00  0.00    -0.266 OA
ATOM     31  N   UNL     1      -3.188  -0.806  24.555  0.00  0.00    -0.298 N 
ATOM     32  C   UNL     1      -3.259  -1.467  24.473  0.00  0.00    +0.110 C 
ENDROOT
BRANCH  20  21
ATOM     21  N   UNL     1      -1.701   0.684  25.132  0.00  0.00    -0.168 NA
ATOM     22  C   UNL     1      -0.904   0.721  25.338  0.00  0.00    +0.304 C 
ATOM     23  O   UNL     1      -0.454   0.030  25.374  0.00  0.00    -0.265 OA
BRANCH  22  24
ATOM     24  C   UNL     1      -0.555   1.450  25.509  0.00  0.00    +0.201 A 
ATOM     25  C   UNL     1      -0.065   1.881  25.006  0.00  0.00    +0.046 A 
ATOM     26  C   UNL     1       0.158   2.573  25.399  0.00  0.00    +0.044 A 
ATOM     27  C   UNL     1      -0.196   2.567  26.144  0.00  0.00    +0.180 A 
ATOM     28  O   UNL     1      -0.637   1.873  26.212  0.00  0.00    -0.446 OA
ENDBRANCH  22  24
ENDBRANCH  20  21
BRANCH   2   3
ATOM      3  C   UNL     1      -3.202   0.276  24.652  0.00  0.00    +0.290 C 
BRANCH   3   4
ATOM      4  O   UNL     1      -3.050   1.046  24.906  0.00  0.00    -0.466 OA
BRANCH   4   5
ATOM      5  C   UNL     1      -3.442   1.681  24.555  0.00  0.00    +0.139 A 
ATOM      6  C   UNL     1      -4.014   2.098  24.981  0.00  0.00    +0.037 A 
ATOM      7  C   UNL     1      -4.407   2.734  24.631  0.00  0.00    +0.003 A 
ATOM      8  C   UNL     1      -4.227   2.953  23.856  0.00  0.00    +0.000 A 
ATOM      9  C   UNL     1      -3.655   2.537  23.431  0.00  0.00    +0.003 A 
ATOM     10  C   UNL     1      -3.263   1.901  23.781  0.00  0.00    +0.037 A 
ENDBRANCH   4   5
ENDBRANCH   3   4
ENDBRANCH   2   3
TORSDOF 5
ENDMDL
MODEL 3
REMARK VINA RESULT:     -13.9      1.259      4.118
REMARK  Name = 
REMARK  5 active torsions:
REMARK  status: ('A' for Active; 'I' for Inactive)
REMARK    1  A    between atoms: C_2  and  C_3
REMARK    2  A    between atoms: C_3  and  O_4
REMARK    3  A    between atoms: O_4  and  C_5
REMARK    4  A    between atoms: C_20  and  N_21
REMARK    5  A    between atoms: C_22  and  C_24
REMARK                            x       y       z     vdW  Elec       q    Type
REMARK                         _______ _______ _______ _____ _____    ______ ____
ROOT
ATOM      1  O   UNL     1      -4.959   0.156  24.758  0.00  0.00    -0.271 OA
ATOM      2  C   UNL     1      -4.681   0.925  24.862  0.00  0.00    +0.270 C 
ATOM     11  N   UNL     1      -5.202   1.526  25.085  0.00  0.00    -0.276 N 
ATOM     12  C   UNL     1      -5.920   1.894  25.298  0.00  0.00    +0.095 C 
ATOM     13  C   UNL     1      -5.600   2.820  25.426  0.00  0.00    +0.043 C 
ATOM     14  C   UNL     1      -5.499   3.616  25.570  0.00  0.00    +0.011 C 
ATOM     15  C   UNL     1      -5.102   3.068  25.382  0.00  0.00    +0.058 C 
ATOM     16  C   UNL     1      -5.427   2.178  25.262  0.00  0.00    +0.099 C 
ATOM     17  C   UNL     1      -4.237   2.843  25.170  0.00  0.00    +0.041 A 
ATOM     18  C   UNL     1      -3.488   3.180  25.095  0.00  0.00    +0.014 A 
ATOM     19  C   UNL     1      -2.845   2.712  24.876  0.00  0.00    +0.023 A 
ATOM     20  C   UNL     1      -2.951   1.906  24.731  0.00  0.00    +0.130 A 
ATOM     29  C   UNL     1      -3.700   1.569  24.806  0.00  0.00    +0.276 A 
ATOM     30  O   UNL     1      -3.314   0.874  24.589  0.00  0.00    -0.266 OA
ATOM     31  N   UNL     1      -4.343   2.038  25.025  0.00  0.00    -0.298 N 
ATOM     32  C   UNL     1      -4.699   2.576  25.203  0.00  0.00    +0.110 C 
ENDROOT
BRANCH  20  21
ATOM     21  N   UNL     1      -2.308   1.439  24.512  0.00  0.00    -0.168 NA
ATOM     22  C   UNL     1      -1.567   1.783  24.401  0.00  0.00    +0.304 C 
ATOM     23  O   UNL     1      -1.468   2.595  24.509  0.00  0.00    -0.265 OA
BRANCH  22  24
ATOM     24  C   UNL     1      -0.923   1.314  24.182  0.00  0.00    +0.201 A 
ATOM     25  C   UNL     1      -0.319   1.057  24.680  0.00  0.00    +0.046 A 
ATOM     26  C   UNL     1       0.206   0.605  24.232  0.00  0.00    +0.044 A 
ATOM     27  C   UNL     1      -0.074   0.583  23.457  0.00  0.00    +0.180 A 
ATOM     28  O   UNL     1      -0.772   1.021  23.425  0.00  0.00    -0.446 OA
ENDBRANCH  22  24
ENDBRANCH  20  21
BRANCH   2   3
ATOM      3  C   UNL     1      -3.882   1.095  24.743  0.00  0.00    +0.290 C 
BRANCH   3   4
ATOM      4  O   UNL     1      -3.382   0.522  24.424  0.00  0.00    -0.466 OA
BRANCH   4   5
ATOM      5  C   UNL     1      -3.515  -0.276  24.580  0.00  0.00    +0.139 A 
ATOM      6  C   UNL     1      -3.811  -0.769  23.987  0.00  0.00    +0.037 A 
ATOM      7  C   UNL     1      -3.945  -1.568  24.142  0.00  0.00    +0.003 A 
ATOM      8  C   UNL     1      -3.783  -1.875  24.891  0.00  0.00    +0.000 A 
ATOM      9  C   UNL     1      -3.487  -1.382  25.484  0.00  0.00    +0.003 A 
ATOM     10  C   UNL     1      -3.354  -0.584  25.328  0.00  0.00    +0.037 A 
ENDBRANCH   4   5
ENDBRANCH   3   4
ENDBRANCH   2   3
TORSDOF 5
ENDMDL
MODEL 4
REMARK VINA RESULT:     -13.4      1.430      3.685
REMARK  Name = 
REMARK  5 active torsions:
REMARK  status: ('A' for Active; 'I' for Inactive)
REMARK    1  A    between atoms: C_2  and  C_3
REMARK    2  A    between atoms: C_3  and  O_4
REMARK    3  A    between atoms: O_4  and  C_5
REMARK    4  A    between atoms: C_20  and  N_21
REMARK    5  A    between atoms: C_22  and  C_24
REMARK                            x       y       z     vdW  Elec       q    Type
REMARK                         _______ _______ _______ _____ _____    ______ ____
ROOT
ATOM      1  O   UNL     1      -2.864   3.351  24.853  0.00  0.00    -0.271 OA
ATOM      2  C   UNL     1      -3.376   2.706  24.892  0.00  0.00    +0.270 C 
ATOM     11  N   UNL     1      -4.190   2.828  24.949  0.00  0.00    -0.276 N 
ATOM     12  C   UNL     1      -4.914   3.242  24.998  0.00  0.00    +0.095 C 
ATOM     13  C   UNL     1      -5.539   2.478  25.046  0.00  0.00    +0.043 C 
ATOM     14  C   UNL     1      -6.173   1.969  25.093  0.00  0.00    +0.011 C 
ATOM     15  C   UNL     1      -5.474   1.924  25.044  0.00  0.00    +0.058 C 
ATOM     16  C   UNL     1      -4.884   2.673  24.999  0.00  0.00    +0.099 C 
ATOM     17  C   UNL     1      -4.793   1.309  24.999  0.00  0.00    +0.041 A 
ATOM     18  C   UNL     1      -4.664   0.494  24.994  0.00  0.00    +0.014 A 
ATOM     19  C   UNL     1      -3.896   0.198  24.941  0.00  0.00    +0.023 A 
ATOM     20  C   UNL     1      -3.256   0.717  24.894  0.00  0.00    +0.130 A 
ATOM     29  C   UNL     1      -3.384   1.532  24.899  0.00  0.00    +0.276 A 
ATOM     30  O   UNL     1      -2.563   1.574  24.841  0.00  0.00    -0.266 OA
ATOM     31  N   UNL     1      -4.153   1.828  24.951  0.00  0.00    -0.298 N 
ATOM     32  C   UNL     1      -4.820   1.843  24.998  0.00  0.00    +0.110 C 
ENDROOT
BRANCH  20  21
ATOM     21  N   UNL     1      -2.489   0.420  24.841  0.00  0.00    -0.168 NA
ATOM     22  C   UNL     1      -2.362  -0.394  24.820  0.00  0.00    +0.304 C 
ATOM     23  O   UNL     1      -3.003  -0.913  24.852  0.00  0.00    -0.265 OA
BRANCH  22  24
ATOM     24  C   UNL     1      -1.593  -0.691  24.767  0.00  0.00    +0.201 A 
ATOM     25  C   UNL     1      -1.171  -1.055  25.375  0.00  0.00    +0.046 A 
ATOM     26  C   UNL     1      -0.429  -1.265  25.081  0.00  0.00    +0.044 A 
ATOM     27  C   UNL     1      -0.393  -1.029  24.292  0.00  0.00    +0.180 A 
ATOM     28  O   UNL     1      -1.112  -0.675  24.097  0.00  0.00    -0.446 OA
ENDBRANCH  22  24
ENDBRANCH  20  21
BRANCH   2   3
ATOM      3  C   UNL     1      -3.074   1.938  24.875  0.00  0.00    +0.290 C 
BRANCH   3   4
ATOM      4  O   UNL     1      -2.275   1.813  24.714  0.00  0.00    -0.466 OA
BRANCH   4   5
ATOM      5  C   UNL     1      -1.716   2.377  24.934  0.00  0.00    +0.139 A 
ATOM      6  C   UNL     1      -1.350   2.841  24.358  0.00  0.00    +0.037 A 
ATOM      7  C   UNL     1      -0.790   3.407  24.578  0.00  0.00    +0.003 A 
ATOM      8  C   UNL     1      -0.596   3.507  25.373  0.00  0.00    +0.000 A 
ATOM      9  C   UNL     1      -0.962   3.043  25.950  0.00  0.00    +0.003 A 
ATOM     10  C   UNL     1      -1.522   2.479  25.729  0.00  0.00    +0.037 A 
ENDBRANCH   4   5
ENDBRANCH   3   4
ENDBRANCH   2   3
TORSDOF 5
ENDMDL
MODEL 5
REMARK VINA RESULT:     -13.2      1.113      3.115
REMARK  Name = 
REMARK  5 active torsions:
REMARK  status: ('A' for Active; 'I' for Inactive)
REMARK    1  A    between atoms: C_2  and  C_3
REMARK    2  A    between atoms: C_3  and  O_4
REMARK    3  A    between atoms: O_4  and  C_5
REMARK    4  A    between atoms: C_20  and  N_21
REMARK    5  A    between atoms: C_22  and  C_24
REMARK                            x       y       z     vdW  Elec       q    Type
REMARK                         _______ _______ _______ _____ _____    ______ ____
ROOT
ATOM      1  O   UNL     1      -1.971  -0.778  24.677  0.00  0.00    -0.271 OA
ATOM      2  C   UNL     1      -1.823   0.032  24.630  0.00  0.00    +0.270 C 
ATOM     11  N   UNL     1      -1.056   0.304  24.495  0.00  0.00    -0.276 N 
ATOM     12  C   UNL     1      -0.232   0.277  24.359  0.00  0.00    +0.095 C 
ATOM     13  C   UNL     1      -0.042   1.245  24.300  0.00  0.00    +0.043 C 
ATOM     14  C   UNL     1       0.275   1.991  24.226  0.00  0.00    +0.011 C 
ATOM     15  C   UNL     1      -0.355   1.704  24.338  0.00  0.00    +0.058 C 
ATOM     16  C   UNL     1      -0.523   0.766  24.393  0.00  0.00    +0.099 C 
ATOM     17  C   UNL     1      -1.236   1.929  24.478  0.00  0.00    +0.041 A 
ATOM     18  C   UNL     1      -1.725   2.590  24.540  0.00  0.00    +0.014 A 
ATOM     19  C   UNL     1      -2.533   2.493  24.677  0.00  0.00    +0.023 A 
ATOM     20  C   UNL     1      -2.851   1.735  24.751  0.00  0.00    +0.130 A 
ATOM     29  C   UNL     1      -2.361   1.074  24.689  0.00  0.00    +0.276 A 
ATOM     30  O   UNL     1      -3.058   0.653  24.816  0.00  0.00    -0.266 OA
ATOM     31  N   UNL     1      -1.553   1.172  24.552  0.00  0.00    -0.298 N 
ATOM     32  C   UNL     1      -0.964   1.470  24.446  0.00  0.00    +0.110 C 
ENDROOT
BRANCH  20  21
ATOM     21  N   UNL     1      -3.658   1.638  24.888  0.00  0.00    -0.168 NA
ATOM     22  C   UNL     1      -4.147   2.299  24.960  0.00  0.00    +0.304 C 
ATOM     23  O   UNL     1      -3.827   3.057  24.895  0.00  0.00    -0.265 OA
BRANCH  22  24
ATOM     24  C   UNL     1      -4.955   2.202  25.096  0.00  0.00    +0.201 A 
ATOM     25  C   UNL     1      -5.336   2.277  25.824  0.00  0.00    +0.046 A 
ATOM     26  C   UNL     1      -6.141   2.134  25.707  0.00  0.00    +0.044 A 
ATOM     27  C   UNL     1      -6.256   1.971  24.906  0.00  0.00    +0.180 A 
ATOM     28  O   UNL     1      -5.524   2.013  24.529  0.00  0.00    -0.446 OA
ENDBRANCH  22  24
ENDBRANCH  20  21
BRANCH   2   3
ATOM      3  C   UNL     1      -2.443   0.570  24.717  0.00  0.00    +0.290 C 
BRANCH   3   4
ATOM      4  O   UNL     1      -3.182   0.309  24.974  0.00  0.00    -0.466 OA
BRANCH   4   5
ATOM      5  C   UNL     1      -3.433  -0.457  24.801  0.00  0.00    +0.139 A 
ATOM      6  C   UNL     1      -3.418  -1.038  25.387  0.00  0.00    +0.037 A 
ATOM      7  C   UNL     1      -3.669  -1.805  25.214  0.00  0.00    +0.003 A 
ATOM      8  C   UNL     1      -3.936  -1.990  24.456  0.00  0.00    +0.000 A 
ATOM      9  C   UNL     1      -3.952  -1.409  23.870  0.00  0.00    +0.003 A 
ATOM     10  C   UNL     1      -3.700  -0.643  24.043  0.00  0.00    +0.037 A 
ENDBRANCH   4   5
ENDBRANCH   3   4
ENDBRANCH   2   3
TORSDOF 5
ENDMDL
MODEL 6
REMARK VINA RESULT:     -12.9      1.585      4.635
REMARK  Name = 
REMARK  5 active torsions:
REMARK  status: ('A' for Active; 'I' for Inactive)
REMARK    1  A    between atoms: C_2  and  C_3
REMARK    2  A    between atoms: C_3  and  O_4
REMARK    3  A    between atoms: O_4  and  C_5
REMARK    4  A    between atoms: C_20  and  N_21
REMARK    5  A    between atoms: C_22  and  C_24
REMARK                            x       y       z     vdW  Elec       q    Type
REMARK                         _______ _______ _______ _____ _____    ______ ____
ROOT
ATOM      1  O   UNL     1      -4.218   3.394  24.873  0.00  0.00    -0.271 OA
ATOM      2  C   UNL     1      -3.428   3.172  24.952  0.00  0.00    +0.270 C 
ATOM     11  N   UNL     1      -2.843   3.750  25.030  0.00  0.00    -0.276 N 
ATOM     12  C   UNL     1      -2.502   4.511  25.086  0.00  0.00    +0.095 C 
ATOM     13  C   UNL     1      -1.551   4.259  25.182  0.00  0.00    +0.043 C 
ATOM     14  C   UNL     1      -0.742   4.220  25.268  0.00  0.00    +0.011 C 
ATOM     15  C   UNL     1      -1.279   3.773  25.199  0.00  0.00    +0.058 C 
ATOM     16  C   UNL     1      -2.194   4.032  25.107  0.00  0.00    +0.099 C 
ATOM     17  C   UNL     1      -1.468   2.874  25.155  0.00  0.00    +0.041 A 
ATOM     18  C   UNL     1      -1.094   2.139  25.176  0.00  0.00    +0.014 A 
ATOM     19  C   UNL     1      -1.540   1.448  25.110  0.00  0.00    +0.023 A 
ATOM     20  C   UNL     1      -2.359   1.492  25.023  0.00  0.00    +0.130 A 
ATOM     29  C   UNL     1      -2.733   2.227  25.002  0.00  0.00    +0.276 A 
ATOM     30  O   UNL     1      -3.419   1.778  24.917  0.00  0.00    -0.266 OA
ATOM     31  N   UNL     1      -2.287   2.918  25.068  0.00  0.00    -0.298 N 
ATOM     32  C   UNL     1      -1.758   3.323  25.136  0.00  0.00    +0.110 C 
ENDROOT
BRANCH  20  21
ATOM     21  N   UNL     1      -2.804   0.801  24.957  0.00  0.00    -0.168 NA
ATOM     22  C   UNL     1      -2.430   0.066  24.981  0.00  0.00    +0.304 C 
ATOM     23  O   UNL     1      -1.611   0.022  25.071  0.00  0.00    -0.265 OA
BRANCH  22  24
ATOM     24  C   UNL     1      -2.876  -0.626  24.915  0.00  0.00    +0.201 A 
ATOM     25  C   UNL     1      -3.082  -1.130  25.534  0.00  0.00    +0.046 A 
ATOM     26  C   UNL     1      -3.527  -1.751  25.220  0.00  0.00    +0.044 A 
ATOM     27  C   UNL     1      -3.594  -1.630  24.407  0.00  0.00    +0.180 A 
ATOM     28  O   UNL     1      -3.192  -0.934  24.218  0.00  0.00    -0.446 OA
ENDBRANCH  22  24
ENDBRANCH  20  21
BRANCH   2   3
ATOM      3  C   UNL     1      -3.221   2.373  24.953  0.00  0.00    +0.290 C 
BRANCH   3   4
ATOM      4  O   UNL     1      -3.786   1.801  24.771  0.00  0.00    -0.466 OA
BRANCH   4   5
ATOM      5  C   UNL     1      -4.575   1.918  24.980  0.00  0.00    +0.139 A 
ATOM      6  C   UNL     1      -5.142   2.048  24.394  0.00  0.00    +0.037 A 
ATOM      7  C   UNL     1      -5.932   2.165  24.603  0.00  0.00    +0.003 A 
ATOM      8  C   UNL     1      -6.154   2.153  25.397  0.00  0.00    +0.000 A 
ATOM      9  C   UNL     1      -5.588   2.023  25.983  0.00  0.00    +0.003 A 
ATOM     10  C   UNL     1      -4.799   1.906  25.774  0.00  0.00    +0.037 A 
ENDBRANCH   4   5
ENDBRANCH   3   4
ENDBRANCH   2   3
TORSDOF 5
ENDMDL
