MODEL 1
REMARK VINA RESULT:     -11.0      0.000      0.000
REMARK  Name = 
REMARK  5 active torsions:
REMARK  status: ('A' for Active; 'I' for Inactive)
REMARK    1  A    between atoms: C_5  and  N_8
REMARK    2  A    between atoms: N_8  and  C_9
REMARK    3  A    between atoms: C_12  and  C_13
REMARK    4  A    between atoms: C_13  and  N_14
REMARK    5  A    between atoms: C_15  and  C_17
REMARK                            x       y       z     vdW  Elec       q    Type
REMARK                         _______ _______ _______ _____ _____    ______ ____
ROOT
ATOM      9  C   UNL     1      -4.204   0.494  24.543  0.00  0.00    +0.135 C 
ATOM     10  C   UNL     1      -3.531   0.628  24.083  0.00  0.00    +0.162 C 
ATOM     11  O   UNL     1      -3.274   1.398  24.226  0.00  0.00    -0.350 OA
ATOM     12  C   UNL     1      -3.787   1.741  24.773  0.00  0.00    +0.169 C 
ATOM     24  C   UNL     1      -4.361   1.183  24.969  0.00  0.00    +0.199 C 
ATOM     25  O   UNL     1      -4.984   1.293  25.499  0.00  0.00    -0.219 OA
ENDROOT
BRANCH   9   8
ATOM      8  N   UNL     1      -4.641  -0.205  24.571  0.00  0.00    -0.216 NA
BRANCH   8   5
ATOM      1  C   UNL     1      -3.095  -3.120  24.571  0.00  0.00    +0.090 C 
ATOM      2  N   UNL     1      -3.481  -2.392  24.571  0.00  0.00    -0.271 NA
ATOM      3  C   UNL     1      -3.881  -2.137  23.896  0.00  0.00    +0.074 C 
ATOM      4  C   UNL     1      -4.268  -1.408  23.896  0.00  0.00    +0.035 C 
ATOM      5  C   UNL     1      -4.254  -0.934  24.571  0.00  0.00    +0.076 C 
ATOM      6  C   UNL     1      -3.854  -1.189  25.246  0.00  0.00    +0.035 C 
ATOM      7  C   UNL     1      -3.467  -1.917  25.246  0.00  0.00    +0.074 C 
ENDBRANCH   8   5
ENDBRANCH   9   8
BRANCH  12  13
ATOM     13  C   UNL     1      -3.735   2.508  25.073  0.00  0.00    +0.148 C 
BRANCH  13  14
ATOM     14  N   UNL     1      -3.051   2.954  24.947  0.00  0.00    -0.199 NA
ATOM     15  C   UNL     1      -2.920   3.641  25.386  0.00  0.00    +0.265 C 
ATOM     16  O   UNL     1      -3.473   3.882  25.950  0.00  0.00    -0.268 OA
BRANCH  15  17
ATOM     17  C   UNL     1      -2.238   4.086  25.261  0.00  0.00    +0.055 A 
ATOM     18  C   UNL     1      -1.500   3.716  25.248  0.00  0.00    +0.007 A 
ATOM     19  C   UNL     1      -0.818   4.162  25.123  0.00  0.00    +0.030 A 
ATOM     20  C   UNL     1      -0.872   4.978  25.011  0.00  0.00    +0.140 A 
ATOM     21  F   UNL     1      -0.188   5.423  24.886  0.00  0.00    -0.204 F 
ATOM     22  C   UNL     1      -1.609   5.347  25.025  0.00  0.00    +0.030 A 
ATOM     23  C   UNL     1      -2.292   4.902  25.149  0.00  0.00    +0.007 A 
ENDBRANCH  15  17
ENDBRANCH  13  14
ENDBRANCH  12  13
TORSDOF 5
ENDMDL
MODEL 2
REMARK VINA RESULT:     -10.3      1.918      2.325
REMARK  Name = 
REMARK  5 active torsions:
REMARK  status: ('A' for Active; 'I' for Inactive)
REMARK    1  A    between atoms: C_5  and  N_8
REMARK    2  A    between atoms: N_8  and  C_9
REMARK    3  A    between atoms: C_12  and  C_13
REMARK    4  A    between atoms: C_13  and  N_14
REMARK    5  A    between atoms: C_15  and  C_17
REMARK                            x       y       z     vdW  Elec       q    Type
REMARK                         _______ _______ _______ _____ _____    ______ ____
ROOT
ATOM      9  C   UNL     1      -1.436  -0.644  25.167  0.00  0.00    +0.135 C 
ATOM     10  C   UNL     1      -1.463  -0.292  24.421  0.00  0.00    +0.162 C 
ATOM     11  O   UNL     1      -1.154   0.469  24.487  0.00  0.00    -0.350 OA
ATOM     12  C   UNL     1      -0.935   0.588  25.274  0.00  0.00    +0.169 C 
ATOM     24  C   UNL     1      -1.109  -0.100  25.694  0.00  0.00    +0.199 C 
ATOM     25  O   UNL     1      -0.980  -0.222  26.499  0.00  0.00    -0.219 OA
ENDROOT
BRANCH   9   8
ATOM      8  N   UNL     1      -1.690  -1.407  25.353  0.00  0.00    -0.216 NA
BRANCH   8   5
ATOM      1  C   UNL     1      -4.384  -2.647  23.906  0.00  0.00    +0.090 C 
ATOM      2  N   UNL     1      -3.711  -2.337  24.268  0.00  0.00    -0.271 NA
ATOM      3  C   UNL     1      -2.963  -2.599  24.040  0.00  0.00    +0.074 C 
ATOM      4  C   UNL     1      -2.289  -2.289  24.402  0.00  0.00    +0.035 C 
ATOM      5  C   UNL     1      -2.364  -1.717  24.991  0.00  0.00    +0.076 C 
ATOM      6  C   UNL     1      -3.113  -1.455  25.219  0.00  0.00    +0.035 C 
ATOM      7  C   UNL     1      -3.785  -1.765  24.857  0.00  0.00    +0.074 C 
ENDBRANCH   8   5
ENDBRANCH   9   8
BRANCH  12  13
ATOM     13  C   UNL     1      -0.600   1.275  25.585  0.00  0.00    +0.148 C 
BRANCH  13  14
ATOM     14  N   UNL     1      -0.922   2.012  25.397  0.00  0.00    -0.199 NA
ATOM     15  C   UNL     1      -0.583   2.699  25.703  0.00  0.00    +0.265 C 
ATOM     16  O   UNL     1       0.077   2.650  26.197  0.00  0.00    -0.268 OA
BRANCH  15  17
ATOM     17  C   UNL     1      -0.903   3.436  25.516  0.00  0.00    +0.055 A 
ATOM     18  C   UNL     1      -0.477   3.965  25.048  0.00  0.00    +0.007 A 
ATOM     19  C   UNL     1      -0.797   4.701  24.861  0.00  0.00    +0.030 A 
ATOM     20  C   UNL     1      -1.545   4.909  25.141  0.00  0.00    +0.140 A 
ATOM     21  F   UNL     1      -1.866   5.646  24.953  0.00  0.00    -0.204 F 
ATOM     22  C   UNL     1      -1.972   4.380  25.608  0.00  0.00    +0.030 A 
ATOM     23  C   UNL     1      -1.651   3.644  25.796  0.00  0.00    +0.007 A 
ENDBRANCH  15  17
ENDBRANCH  13  14
ENDBRANCH  12  13
TORSDOF 5
ENDMDL
MODEL 3
REMARK VINA RESULT:     -10.1      2.660      5.969
REMARK  Name = 
REMARK  5 active torsions:
REMARK  status: ('A' for Active; 'I' for Inactive)
REMARK    1  A    between atoms: C_5  and  N_8
REMARK    2  A    between atoms: N_8  and  C_9
REMARK    3  A    between atoms: C_12  and  C_13
REMARK    4  A    between atoms: C_13  and  N_14
REMARK    5  A    between atoms: C_15  and  C_17
REMARK                            x       y       z     vdW  Elec       q    Type
REMARK                         _______ _______ _______ _____ _____    ______ ____
ROOT
ATOM      9  C   UNL     1      -0.755   1.840  25.147  0.00  0.00    +0.135 C 
ATOM     10  C   UNL     1      -1.068   1.827  24.383  0.00  0.00    +0.162 C 
ATOM     11  O   UNL     1      -1.295   1.053  24.214  0.00  0.00    -0.350 OA
ATOM     12  C   UNL     1      -1.123   0.587  24.873  0.00  0.00    +0.169 C 
ATOM     24  C   UNL     1      -0.790   1.073  25.449  0.00  0.00    +0.199 C 
ATOM     25  O   UNL     1      -0.535   0.834  26.197  0.00  0.00    -0.219 OA
ENDROOT
BRANCH   9   8
ATOM      8  N   UNL     1      -0.460   2.503  25.540  0.00  0.00    -0.216 NA
BRANCH   8   5
ATOM      1  C   UNL     1      -1.910   5.440  25.139  0.00  0.00    +0.090 C 
ATOM      2  N   UNL     1      -1.548   4.706  25.239  0.00  0.00    -0.271 NA
ATOM      3  C   UNL     1      -1.906   4.129  25.707  0.00  0.00    +0.074 C 
ATOM      4  C   UNL     1      -1.544   3.394  25.808  0.00  0.00    +0.035 C 
ATOM      5  C   UNL     1      -0.823   3.237  25.439  0.00  0.00    +0.076 C 
ATOM      6  C   UNL     1      -0.464   3.814  24.971  0.00  0.00    +0.035 C 
ATOM      7  C   UNL     1      -0.826   4.548  24.871  0.00  0.00    +0.074 C 
ENDBRANCH   8   5
ENDBRANCH   9   8
BRANCH  12  13
ATOM     13  C   UNL     1      -1.261  -0.224  24.942  0.00  0.00    +0.148 C 
BRANCH  13  14
ATOM     14  N   UNL     1      -1.976  -0.544  24.679  0.00  0.00    -0.199 NA
ATOM     15  C   UNL     1      -2.112  -1.356  24.746  0.00  0.00    +0.265 C 
ATOM     16  O   UNL     1      -1.535  -1.846  25.075  0.00  0.00    -0.268 OA
BRANCH  15  17
ATOM     17  C   UNL     1      -2.825  -1.676  24.484  0.00  0.00    +0.055 A 
ATOM     18  C   UNL     1      -2.934  -2.494  24.481  0.00  0.00    +0.007 A 
ATOM     19  C   UNL     1      -3.647  -2.815  24.218  0.00  0.00    +0.030 A 
ATOM     20  C   UNL     1      -4.252  -2.317  23.959  0.00  0.00    +0.140 A 
ATOM     21  F   UNL     1      -4.966  -2.638  23.696  0.00  0.00    -0.204 F 
ATOM     22  C   UNL     1      -4.144  -1.500  23.962  0.00  0.00    +0.030 A 
ATOM     23  C   UNL     1      -3.431  -1.179  24.224  0.00  0.00    +0.007 A 
ENDBRANCH  15  17
ENDBRANCH  13  14
ENDBRANCH  12  13
TORSDOF 5
ENDMDL
MODEL 4
REMARK VINA RESULT:      -9.6      2.051      5.628
REMARK  Name = 
REMARK  5 active torsions:
REMARK  status: ('A' for Active; 'I' for Inactive)
REMARK    1  A    between atoms: C_5  and  N_8
REMARK    2  A    between atoms: N_8  and  C_9
REMARK    3  A    between atoms: C_12  and  C_13
REMARK    4  A    between atoms: C_13  and  N_14
REMARK    5  A    between atoms: C_15  and  C_17
REMARK                            x       y       z     vdW  Elec       q    Type
REMARK                         _______ _______ _______ _____ _____    ______ ____
ROOT
ATOM      9  C   UNL     1      -3.457   2.808  24.895  0.00  0.00    +0.135 C 
ATOM     10  C   UNL     1      -3.033   2.543  24.238  0.00  0.00    +0.162 C 
ATOM     11  O   UNL     1      -3.338   1.809  24.018  0.00  0.00    -0.350 OA
ATOM     12  C   UNL     1      -3.950   1.621  24.538  0.00  0.00    +0.169 C 
ATOM     24  C   UNL     1      -4.024   2.238  25.080  0.00  0.00    +0.199 C 
ATOM     25  O   UNL     1      -4.569   2.278  25.698  0.00  0.00    -0.219 OA
ENDROOT
BRANCH   9   8
ATOM      8  N   UNL     1      -3.335   3.519  25.296  0.00  0.00    -0.216 NA
BRANCH   8   5
ATOM      1  C   UNL     1      -0.464   5.116  24.989  0.00  0.00    +0.090 C 
ATOM      2  N   UNL     1      -1.181   4.717  25.065  0.00  0.00    -0.271 NA
ATOM      3  C   UNL     1      -1.236   4.058  25.558  0.00  0.00    +0.074 C 
ATOM      4  C   UNL     1      -1.954   3.658  25.635  0.00  0.00    +0.035 C 
ATOM      5  C   UNL     1      -2.617   3.919  25.219  0.00  0.00    +0.076 C 
ATOM      6  C   UNL     1      -2.563   4.578  24.726  0.00  0.00    +0.035 C 
ATOM      7  C   UNL     1      -1.845   4.977  24.650  0.00  0.00    +0.074 C 
ENDBRANCH   8   5
ENDBRANCH   9   8
BRANCH  12  13
ATOM     13  C   UNL     1      -4.409   0.935  24.519  0.00  0.00    +0.148 C 
BRANCH  13  14
ATOM     14  N   UNL     1      -4.045   0.195  24.558  0.00  0.00    -0.199 NA
ATOM     15  C   UNL     1      -4.495  -0.491  24.469  0.00  0.00    +0.265 C 
ATOM     16  O   UNL     1      -5.309  -0.437  24.341  0.00  0.00    -0.268 OA
BRANCH  15  17
ATOM     17  C   UNL     1      -4.132  -1.231  24.507  0.00  0.00    +0.055 A 
ATOM     18  C   UNL     1      -3.686  -1.437  25.169  0.00  0.00    +0.007 A 
ATOM     19  C   UNL     1      -3.323  -2.177  25.208  0.00  0.00    +0.030 A 
ATOM     20  C   UNL     1      -3.407  -2.711  24.584  0.00  0.00    +0.140 A 
ATOM     21  F   UNL     1      -3.043  -3.451  24.622  0.00  0.00    -0.204 F 
ATOM     22  C   UNL     1      -3.854  -2.504  23.922  0.00  0.00    +0.030 A 
ATOM     23  C   UNL     1      -4.216  -1.765  23.883  0.00  0.00    +0.007 A 
ENDBRANCH  15  17
ENDBRANCH  13  14
ENDBRANCH  12  13
TORSDOF 5
ENDMDL
MODEL 5
REMARK VINA RESULT:      -7.5     16.043     18.504
REMARK  Name = 
REMARK  5 active torsions:
REMARK  status: ('A' for Active; 'I' for Inactive)
REMARK    1  A    between atoms: C_5  and  N_8
REMARK    2  A    between atoms: N_8  and  C_9
REMARK    3  A    between atoms: C_12  and  C_13
REMARK    4  A    between atoms: C_13  and  N_14
REMARK    5  A    between atoms: C_15  and  C_17
REMARK                            x       y       z     vdW  Elec       q    Type
REMARK                         _______ _______ _______ _____ _____    ______ ____
ROOT
ATOM      9  C   UNL     1      14.111   7.412  18.807  0.00  0.00    +0.135 C 
ATOM     10  C   UNL     1      13.776   6.679  18.985  0.00  0.00    +0.162 C 
ATOM     11  O   UNL     1      12.994   6.806  19.211  0.00  0.00    -0.350 OA
ATOM     12  C   UNL     1      12.845   7.617  19.174  0.00  0.00    +0.169 C 
ATOM     24  C   UNL     1      13.536   7.991  18.924  0.00  0.00    +0.199 C 
ATOM     25  O   UNL     1      13.634   8.802  18.810  0.00  0.00    -0.219 OA
ENDROOT
BRANCH   9   8
ATOM      8  N   UNL     1      14.887   7.542  18.556  0.00  0.00    -0.216 NA
BRANCH   8   5
ATOM      1  C   UNL     1      17.405   6.194  20.209  0.00  0.00    +0.090 C 
ATOM      2  N   UNL     1      16.776   6.531  19.796  0.00  0.00    -0.271 NA
ATOM      3  C   UNL     1      16.461   7.253  20.040  0.00  0.00    +0.074 C 
ATOM      4  C   UNL     1      15.831   7.591  19.627  0.00  0.00    +0.035 C 
ATOM      5  C   UNL     1      15.517   7.205  18.969  0.00  0.00    +0.076 C 
ATOM      6  C   UNL     1      15.831   6.482  18.725  0.00  0.00    +0.035 C 
ATOM      7  C   UNL     1      16.460   6.146  19.138  0.00  0.00    +0.074 C 
ENDBRANCH   8   5
ENDBRANCH   9   8
BRANCH  12  13
ATOM     13  C   UNL     1      12.130   7.988  19.355  0.00  0.00    +0.148 C 
BRANCH  13  14
ATOM     14  N   UNL     1      11.885   8.048  20.141  0.00  0.00    -0.199 NA
ATOM     15  C   UNL     1      11.102   8.243  20.314  0.00  0.00    +0.265 C 
ATOM     16  O   UNL     1      10.565   8.377  19.701  0.00  0.00    -0.268 OA
BRANCH  15  17
ATOM     17  C   UNL     1      10.856   8.303  21.098  0.00  0.00    +0.055 A 
ATOM     18  C   UNL     1      10.874   9.033  21.482  0.00  0.00    +0.007 A 
ATOM     19  C   UNL     1      10.628   9.094  22.266  0.00  0.00    +0.030 A 
ATOM     20  C   UNL     1      10.363   8.423  22.669  0.00  0.00    +0.140 A 
ATOM     21  F   UNL     1      10.117   8.484  23.454  0.00  0.00    -0.204 F 
ATOM     22  C   UNL     1      10.345   7.693  22.286  0.00  0.00    +0.030 A 
ATOM     23  C   UNL     1      10.591   7.633  21.501  0.00  0.00    +0.007 A 
ENDBRANCH  15  17
ENDBRANCH  13  14
ENDBRANCH  12  13
TORSDOF 5
ENDMDL
MODEL 6
REMARK VINA RESULT:      -7.2     16.065     18.525
REMARK  Name = 
REMARK  5 active torsions:
REMARK  status: ('A' for Active; 'I' for Inactive)
REMARK    1  A    between atoms: C_5  and  N_8
REMARK    2  A    between atoms: N_8  and  C_9
REMARK    3  A    between atoms: C_12  and  C_13
REMARK    4  A    between atoms: C_13  and  N_14
REMARK    5  A    between atoms: C_15  and  C_17
REMARK                            x       y       z     vdW  Elec       q    Type
REMARK                         _______ _______ _______ _____ _____    ______ ____
ROOT
ATOM      9  C   UNL     1      11.606   8.258  19.565  0.00  0.00    +0.135 C 
ATOM     10  C   UNL     1      11.953   9.006  19.517  0.00  0.00    +0.162 C 
ATOM     11  O   UNL     1      12.674   8.926  19.125  0.00  0.00    -0.350 OA
ATOM     12  C   UNL     1      12.772   8.130  18.931  0.00  0.00    +0.169 C 
ATOM     24  C   UNL     1      12.112   7.718  19.203  0.00  0.00    +0.199 C 
ATOM     25  O   UNL     1      11.981   6.907  19.126  0.00  0.00    -0.219 OA
ENDROOT
BRANCH   9   8
ATOM      8  N   UNL     1      10.879   8.083  19.914  0.00  0.00    -0.216 NA
BRANCH   8   5
ATOM      1  C   UNL     1      10.444   8.566  23.150  0.00  0.00    +0.090 C 
ATOM      2  N   UNL     1      10.552   8.446  22.341  0.00  0.00    -0.271 NA
ATOM      3  C   UNL     1      10.617   7.679  22.044  0.00  0.00    +0.074 C 
ATOM      4  C   UNL     1      10.726   7.558  21.234  0.00  0.00    +0.035 C 
ATOM      5  C   UNL     1      10.770   8.204  20.724  0.00  0.00    +0.076 C 
ATOM      6  C   UNL     1      10.705   8.971  21.021  0.00  0.00    +0.035 C 
ATOM      7  C   UNL     1      10.597   9.091  21.830  0.00  0.00    +0.074 C 
ENDBRANCH   8   5
ENDBRANCH   9   8
BRANCH  12  13
ATOM     13  C   UNL     1      13.419   7.804  18.534  0.00  0.00    +0.148 C 
BRANCH  13  14
ATOM     14  N   UNL     1      14.074   7.539  18.961  0.00  0.00    -0.199 NA
ATOM     15  C   UNL     1      14.785   7.387  18.572  0.00  0.00    +0.265 C 
ATOM     16  O   UNL     1      14.842   7.500  17.756  0.00  0.00    -0.268 OA
BRANCH  15  17
ATOM     17  C   UNL     1      15.440   7.122  18.998  0.00  0.00    +0.055 A 
ATOM     18  C   UNL     1      15.754   6.374  18.849  0.00  0.00    +0.007 A 
ATOM     19  C   UNL     1      16.408   6.110  19.275  0.00  0.00    +0.030 A 
ATOM     20  C   UNL     1      16.750   6.593  19.851  0.00  0.00    +0.140 A 
ATOM     21  F   UNL     1      17.405   6.328  20.277  0.00  0.00    -0.204 F 
ATOM     22  C   UNL     1      16.436   7.341  19.999  0.00  0.00    +0.030 A 
ATOM     23  C   UNL     1      15.781   7.606  19.573  0.00  0.00    +0.007 A 
ENDBRANCH  15  17
ENDBRANCH  13  14
ENDBRANCH  12  13
TORSDOF 5
ENDMDL
