MODEL 1
REMARK VINA RESULT:     -10.4      0.000      0.000
REMARK  Name = 
REMARK  9 active torsions:
REMARK  status: ('A' for Active; 'I' for Inactive)
REMARK    1  A    between atoms: C_2  and  C_4
REMARK    2  A    between atoms: C_6  and  C_7
REMARK    3  A    between atoms: C_7  and  C_8
REMARK    4  A    between atoms: N_10  and  C_11
REMARK    5  A    between atoms: C_11  and  C_12
REMARK    6  A    between atoms: C_12  and  N_13
REMARK    7  A    between atoms: C_19  and  C_20
REMARK    8  A    between atoms: C_20  and  N_21
REMARK    9  A    between atoms: C_22  and  C_24
REMARK                            x       y       z     vdW  Elec       q    Type
REMARK                         _______ _______ _______ _____ _____    ______ ____
ROOT
ATOM      4  C   UNL     1      -3.437   1.644  23.863  0.00  0.00    +0.006 C 
ATOM      5  C   UNL     1      -3.563   2.381  24.211  0.00  0.00    +0.005 C 
ATOM      6  C   UNL     1      -4.161   2.474  24.773  0.00  0.00    +0.027 C 
ATOM     16  C   UNL     1      -4.632   1.831  24.985  0.00  0.00    -0.048 C 
ATOM     17  C   UNL     1      -5.230   1.924  25.546  0.00  0.00    +0.026 C 
ATOM     18  C   UNL     1      -4.506   1.094  24.636  0.00  0.00    -0.033 C 
ATOM     19  C   UNL     1      -3.908   1.001  24.075  0.00  0.00    +0.043 C 
ENDROOT
BRANCH   4   2
ATOM      1  C   UNL     1      -3.004   1.666  22.501  0.00  0.00    +0.000 C 
ATOM      2  C   UNL     1      -2.839   1.551  23.302  0.00  0.00    +0.000 C 
ATOM      3  C   UNL     1      -2.077   1.344  23.541  0.00  0.00    +0.000 C 
ENDBRANCH   4   2
BRANCH   6   7
ATOM      7  C   UNL     1      -4.287   3.211  25.121  0.00  0.00    +0.091 C 
BRANCH   7   8
ATOM      8  C   UNL     1      -3.787   3.843  24.942  0.00  0.00    +0.242 C 
ATOM      9  O   UNL     1      -3.961   4.340  24.306  0.00  0.00    -0.273 OA
ATOM     10  N   UNL     1      -3.113   3.977  25.398  0.00  0.00    -0.204 NA
BRANCH  10  11
ATOM     11  C   UNL     1      -2.612   4.609  25.219  0.00  0.00    +0.132 C 
BRANCH  11  12
ATOM     12  C   UNL     1      -1.874   4.665  25.582  0.00  0.00    +0.096 C 
BRANCH  12  13
ATOM     13  N   UNL     1      -1.226   4.951  25.156  0.00  0.00    -0.269 NA
ATOM     14  C   UNL     1      -0.601   4.446  24.971  0.00  0.00    +0.090 C 
ATOM     15  C   UNL     1      -1.205   5.740  24.917  0.00  0.00    +0.090 C 
ENDBRANCH  12  13
ENDBRANCH  11  12
ENDBRANCH  10  11
ENDBRANCH   7   8
ENDBRANCH   6   7
BRANCH  19  20
ATOM     20  C   UNL     1      -3.782   0.264  23.726  0.00  0.00    +0.120 C 
BRANCH  20  21
ATOM     21  N   UNL     1      -3.645  -0.398  24.200  0.00  0.00    -0.201 NA
ATOM     22  C   UNL     1      -3.797  -1.155  23.906  0.00  0.00    +0.265 C 
ATOM     23  O   UNL     1      -4.086  -1.249  23.139  0.00  0.00    -0.268 OA
BRANCH  22  24
ATOM     24  C   UNL     1      -3.660  -1.816  24.380  0.00  0.00    +0.055 A 
ATOM     25  C   UNL     1      -3.775  -2.573  24.073  0.00  0.00    +0.005 A 
ATOM     26  C   UNL     1      -3.638  -3.235  24.547  0.00  0.00    +0.000 A 
ATOM     27  C   UNL     1      -3.387  -3.139  25.327  0.00  0.00    +0.000 A 
ATOM     28  C   UNL     1      -3.273  -2.381  25.634  0.00  0.00    +0.000 A 
ATOM     29  C   UNL     1      -3.410  -1.720  25.160  0.00  0.00    +0.005 A 
ENDBRANCH  22  24
ENDBRANCH  20  21
ENDBRANCH  19  20
TORSDOF 9
ENDMDL
MODEL 2
REMARK VINA RESULT:     -10.3      2.530      4.840
REMARK  Name = 
REMARK  9 active torsions:
REMARK  status: ('A' for Active; 'I' for Inactive)
REMARK    1  A    between atoms: C_2  and  C_4
REMARK    2  A    between atoms: C_6  and  C_7
REMARK    3  A    between atoms: C_7  and  C_8
REMARK    4  A    between atoms: N_10  and  C_11
REMARK    5  A    between atoms: C_11  and  C_12
REMARK    6  A    between atoms: C_12  and  N_13
REMARK    7  A    between atoms: C_19  and  C_20
REMARK    8  A    between atoms: C_20  and  N_21
REMARK    9  A    between atoms: C_22  and  C_24
REMARK                            x       y       z     vdW  Elec       q    Type
REMARK                         _______ _______ _______ _____ _____    ______ ____
ROOT
ATOM      4  C   UNL     1      -2.862  -0.701  24.642  0.00  0.00    +0.006 C 
ATOM      5  C   UNL     1      -2.076  -0.947  24.673  0.00  0.00    +0.005 C 
ATOM      6  C   UNL     1      -1.502  -0.453  25.003  0.00  0.00    +0.027 C 
ATOM     16  C   UNL     1      -1.716   0.286  25.302  0.00  0.00    -0.048 C 
ATOM     17  C   UNL     1      -1.144   0.779  25.631  0.00  0.00    +0.026 C 
ATOM     18  C   UNL     1      -2.504   0.531  25.271  0.00  0.00    -0.033 C 
ATOM     19  C   UNL     1      -3.076   0.037  24.941  0.00  0.00    +0.043 C 
ENDROOT
BRANCH   4   2
ATOM      1  C   UNL     1      -3.766  -1.802  24.764  0.00  0.00    +0.000 C 
ATOM      2  C   UNL     1      -3.435  -1.195  24.312  0.00  0.00    +0.000 C 
ATOM      3  C   UNL     1      -3.677  -1.083  23.531  0.00  0.00    +0.000 C 
ENDBRANCH   4   2
BRANCH   6   7
ATOM      7  C   UNL     1      -0.715  -0.699  25.033  0.00  0.00    +0.091 C 
BRANCH   7   8
ATOM      8  C   UNL     1      -0.308  -0.864  24.335  0.00  0.00    +0.242 C 
ATOM      9  O   UNL     1      -0.407  -1.594  23.962  0.00  0.00    -0.273 OA
ATOM     10  N   UNL     1       0.198  -0.300  24.009  0.00  0.00    -0.204 NA
BRANCH  10  11
ATOM     11  C   UNL     1       0.606  -0.466  23.311  0.00  0.00    +0.132 C 
BRANCH  11  12
ATOM     12  C   UNL     1       1.043   0.126  22.939  0.00  0.00    +0.096 C 
BRANCH  12  13
ATOM     13  N   UNL     1       1.655  -0.076  22.422  0.00  0.00    -0.269 NA
ATOM     14  C   UNL     1       2.438   0.067  22.635  0.00  0.00    +0.090 C 
ATOM     15  C   UNL     1       1.482  -0.421  21.693  0.00  0.00    +0.090 C 
ENDBRANCH  12  13
ENDBRANCH  11  12
ENDBRANCH  10  11
ENDBRANCH   7   8
ENDBRANCH   6   7
BRANCH  19  20
ATOM     20  C   UNL     1      -3.863   0.283  24.910  0.00  0.00    +0.120 C 
BRANCH  20  21
ATOM     21  N   UNL     1      -4.052   1.078  25.029  0.00  0.00    -0.201 NA
ATOM     22  C   UNL     1      -4.842   1.314  25.061  0.00  0.00    +0.265 C 
ATOM     23  O   UNL     1      -5.444   0.756  24.974  0.00  0.00    -0.268 OA
BRANCH  22  24
ATOM     24  C   UNL     1      -5.030   2.108  25.180  0.00  0.00    +0.055 A 
ATOM     25  C   UNL     1      -4.670   2.690  24.718  0.00  0.00    +0.005 A 
ATOM     26  C   UNL     1      -4.858   3.485  24.837  0.00  0.00    +0.000 A 
ATOM     27  C   UNL     1      -5.405   3.698  25.417  0.00  0.00    +0.000 A 
ATOM     28  C   UNL     1      -5.765   3.116  25.879  0.00  0.00    +0.000 A 
ATOM     29  C   UNL     1      -5.577   2.321  25.760  0.00  0.00    +0.005 A 
ENDBRANCH  22  24
ENDBRANCH  20  21
ENDBRANCH  19  20
TORSDOF 9
ENDMDL
MODEL 3
REMARK VINA RESULT:      -9.8      2.858      4.929
REMARK  Name = 
REMARK  9 active torsions:
REMARK  status: ('A' for Active; 'I' for Inactive)
REMARK    1  A    between atoms: C_2  and  C_4
REMARK    2  A    between atoms: C_6  and  C_7
REMARK    3  A    between atoms: C_7  and  C_8
REMARK    4  A    between atoms: N_10  and  C_11
REMARK    5  A    between atoms: C_11  and  C_12
REMARK    6  A    between atoms: C_12  and  N_13
REMARK    7  A    between atoms: C_19  and  C_20
REMARK    8  A    between atoms: C_20  and  N_21
REMARK    9  A    between atoms: C_22  and  C_24
REMARK                            x       y       z     vdW  Elec       q    Type
REMARK                         _______ _______ _______ _____ _____    ______ ____
ROOT
ATOM      4  C   UNL     1      -1.010   2.031  24.669  0.00  0.00    +0.006 C 
ATOM      5  C   UNL     1      -0.465   1.439  24.490  0.00  0.00    +0.005 C 
ATOM      6  C   UNL     1      -0.725   0.667  24.350  0.00  0.00    +0.027 C 
ATOM     16  C   UNL     1      -1.529   0.490  24.388  0.00  0.00    -0.048 C 
ATOM     17  C   UNL     1      -1.789  -0.280  24.248  0.00  0.00    +0.026 C 
ATOM     18  C   UNL     1      -2.075   1.083  24.567  0.00  0.00    -0.033 C 
ATOM     19  C   UNL     1      -1.815   1.853  24.707  0.00  0.00    +0.043 C 
ENDROOT
BRANCH   4   2
ATOM      1  C   UNL     1      -0.552   3.036  25.575  0.00  0.00    +0.000 C 
ATOM      2  C   UNL     1      -0.750   2.801  24.809  0.00  0.00    +0.000 C 
ATOM      3  C   UNL     1      -0.688   3.336  24.184  0.00  0.00    +0.000 C 
ENDBRANCH   4   2
BRANCH   6   7
ATOM      7  C   UNL     1      -0.179   0.075  24.171  0.00  0.00    +0.091 C 
BRANCH   7   8
ATOM      8  C   UNL     1       0.313   0.153  23.512  0.00  0.00    +0.242 C 
ATOM      9  O   UNL     1      -0.015   0.288  22.767  0.00  0.00    -0.273 OA
ATOM     10  N   UNL     1       1.131   0.096  23.600  0.00  0.00    -0.204 NA
BRANCH  10  11
ATOM     11  C   UNL     1       1.622   0.173  22.941  0.00  0.00    +0.132 C 
BRANCH  11  12
ATOM     12  C   UNL     1       2.418  -0.039  22.993  0.00  0.00    +0.096 C 
BRANCH  12  13
ATOM     13  N   UNL     1       2.969   0.301  22.481  0.00  0.00    -0.269 NA
ATOM     14  C   UNL     1       3.496   0.870  22.762  0.00  0.00    +0.090 C 
ATOM     15  C   UNL     1       2.993   0.071  21.689  0.00  0.00    +0.090 C 
ENDBRANCH  12  13
ENDBRANCH  11  12
ENDBRANCH  10  11
ENDBRANCH   7   8
ENDBRANCH   6   7
BRANCH  19  20
ATOM     20  C   UNL     1      -2.361   2.445  24.886  0.00  0.00    +0.120 C 
BRANCH  20  21
ATOM     21  N   UNL     1      -3.147   2.248  25.040  0.00  0.00    -0.201 NA
ATOM     22  C   UNL     1      -3.732   2.831  25.014  0.00  0.00    +0.265 C 
ATOM     23  O   UNL     1      -3.529   3.610  24.835  0.00  0.00    -0.268 OA
BRANCH  22  24
ATOM     24  C   UNL     1      -4.518   2.633  25.168  0.00  0.00    +0.055 A 
ATOM     25  C   UNL     1      -4.892   2.931  25.840  0.00  0.00    +0.005 A 
ATOM     26  C   UNL     1      -5.679   2.733  25.995  0.00  0.00    +0.000 A 
ATOM     27  C   UNL     1      -6.090   2.239  25.477  0.00  0.00    +0.000 A 
ATOM     28  C   UNL     1      -5.714   1.941  24.805  0.00  0.00    +0.000 A 
ATOM     29  C   UNL     1      -4.928   2.139  24.651  0.00  0.00    +0.005 A 
ENDBRANCH  22  24
ENDBRANCH  20  21
ENDBRANCH  19  20
TORSDOF 9
ENDMDL
MODEL 4
REMARK VINA RESULT:      -9.4      0.980      5.675
REMARK  Name = 
REMARK  9 active torsions:
REMARK  status: ('A' for Active; 'I' for Inactive)
REMARK    1  A    between atoms: C_2  and  C_4
REMARK    2  A    between atoms: C_6  and  C_7
REMARK    3  A    between atoms: C_7  and  C_8
REMARK    4  A    between atoms: N_10  and  C_11
REMARK    5  A    between atoms: C_11  and  C_12
REMARK    6  A    between atoms: C_12  and  N_13
REMARK    7  A    between atoms: C_19  and  C_20
REMARK    8  A    between atoms: C_20  and  N_21
REMARK    9  A    between atoms: C_22  and  C_24
REMARK                            x       y       z     vdW  Elec       q    Type
REMARK                         _______ _______ _______ _____ _____    ______ ____
ROOT
ATOM      4  C   UNL     1      -4.560   2.179  25.036  0.00  0.00    +0.006 C 
ATOM      5  C   UNL     1      -4.752   1.458  24.684  0.00  0.00    +0.005 C 
ATOM      6  C   UNL     1      -4.196   1.068  24.214  0.00  0.00    +0.027 C 
ATOM     16  C   UNL     1      -3.449   1.398  24.098  0.00  0.00    -0.048 C 
ATOM     17  C   UNL     1      -2.893   1.009  23.630  0.00  0.00    +0.026 C 
ATOM     18  C   UNL     1      -3.257   2.119  24.452  0.00  0.00    -0.033 C 
ATOM     19  C   UNL     1      -3.812   2.509  24.921  0.00  0.00    +0.043 C 
ENDROOT
BRANCH   4   2
ATOM      1  C   UNL     1      -5.184   2.379  26.306  0.00  0.00    +0.000 C 
ATOM      2  C   UNL     1      -5.115   2.568  25.505  0.00  0.00    +0.000 C 
ATOM      3  C   UNL     1      -5.602   3.146  25.175  0.00  0.00    +0.000 C 
ENDBRANCH   4   2
BRANCH   6   7
ATOM      7  C   UNL     1      -4.388   0.348  23.861  0.00  0.00    +0.091 C 
BRANCH   7   8
ATOM      8  C   UNL     1      -4.368  -0.348  24.306  0.00  0.00    +0.242 C 
ATOM      9  O   UNL     1      -4.742  -0.379  25.041  0.00  0.00    -0.273 OA
ATOM     10  N   UNL     1      -3.974  -1.011  24.015  0.00  0.00    -0.204 NA
BRANCH  10  11
ATOM     11  C   UNL     1      -3.953  -1.707  24.460  0.00  0.00    +0.132 C 
BRANCH  11  12
ATOM     12  C   UNL     1      -3.583  -2.379  24.157  0.00  0.00    +0.096 C 
BRANCH  12  13
ATOM     13  N   UNL     1      -3.021  -2.779  24.610  0.00  0.00    -0.269 NA
ATOM     14  C   UNL     1      -2.222  -2.731  24.411  0.00  0.00    +0.090 C 
ATOM     15  C   UNL     1      -3.258  -3.226  25.262  0.00  0.00    +0.090 C 
ENDBRANCH  12  13
ENDBRANCH  11  12
ENDBRANCH  10  11
ENDBRANCH   7   8
ENDBRANCH   6   7
BRANCH  19  20
ATOM     20  C   UNL     1      -3.620   3.229  25.274  0.00  0.00    +0.120 C 
BRANCH  20  21
ATOM     21  N   UNL     1      -2.950   3.643  25.027  0.00  0.00    -0.201 NA
ATOM     22  C   UNL     1      -2.572   4.163  25.545  0.00  0.00    +0.265 C 
ATOM     23  O   UNL     1      -2.864   4.269  26.309  0.00  0.00    -0.268 OA
BRANCH  22  24
ATOM     24  C   UNL     1      -1.902   4.576  25.298  0.00  0.00    +0.055 A 
ATOM     25  C   UNL     1      -1.953   5.384  25.137  0.00  0.00    +0.005 A 
ATOM     26  C   UNL     1      -1.283   5.798  24.890  0.00  0.00    +0.000 A 
ATOM     27  C   UNL     1      -0.563   5.404  24.804  0.00  0.00    +0.000 A 
ATOM     28  C   UNL     1      -0.512   4.596  24.965  0.00  0.00    +0.000 A 
ATOM     29  C   UNL     1      -1.182   4.182  25.212  0.00  0.00    +0.005 A 
ENDBRANCH  22  24
ENDBRANCH  20  21
ENDBRANCH  19  20
TORSDOF 9
ENDMDL
MODEL 5
REMARK VINA RESULT:      -9.4      1.428      5.710
REMARK  Name = 
REMARK  9 active torsions:
REMARK  status: ('A' for Active; 'I' for Inactive)
REMARK    1  A    between atoms: C_2  and  C_4
REMARK    2  A    between atoms: C_6  and  C_7
REMARK    3  A    between atoms: C_7  and  C_8
REMARK    4  A    between atoms: N_10  and  C_11
REMARK    5  A    between atoms: C_11  and  C_12
REMARK    6  A    between atoms: C_12  and  N_13
REMARK    7  A    between atoms: C_19  and  C_20
REMARK    8  A    between atoms: C_20  and  N_21
REMARK    9  A    between atoms: C_22  and  C_24
REMARK                            x       y       z     vdW  Elec       q    Type
REMARK                         _______ _______ _______ _____ _____    ______ ____
ROOT
ATOM      4  C   UNL     1      -2.143   0.926  24.735  0.00  0.00    +0.006 C 
ATOM      5  C   UNL     1      -2.770   0.443  24.501  0.00  0.00    +0.005 C 
ATOM      6  C   UNL     1      -3.525   0.763  24.411  0.00  0.00    +0.027 C 
ATOM     16  C   UNL     1      -3.653   1.565  24.555  0.00  0.00    -0.048 C 
ATOM     17  C   UNL     1      -4.408   1.886  24.465  0.00  0.00    +0.026 C 
ATOM     18  C   UNL     1      -3.026   2.048  24.790  0.00  0.00    -0.033 C 
ATOM     19  C   UNL     1      -2.271   1.728  24.880  0.00  0.00    +0.043 C 
ENDROOT
BRANCH   4   2
ATOM      1  C   UNL     1      -0.873   0.576  24.180  0.00  0.00    +0.000 C 
ATOM      2  C   UNL     1      -1.388   0.605  24.825  0.00  0.00    +0.000 C 
ATOM      3  C   UNL     1      -1.148   0.314  25.559  0.00  0.00    +0.000 C 
ENDBRANCH   4   2
BRANCH   6   7
ATOM      7  C   UNL     1      -4.152   0.281  24.177  0.00  0.00    +0.091 C 
BRANCH   7   8
ATOM      8  C   UNL     1      -4.218  -0.485  24.480  0.00  0.00    +0.242 C 
ATOM      9  O   UNL     1      -4.466  -0.600  25.259  0.00  0.00    -0.273 OA
ATOM     10  N   UNL     1      -4.036  -1.133  24.004  0.00  0.00    -0.204 NA
BRANCH  10  11
ATOM     11  C   UNL     1      -4.103  -1.898  24.308  0.00  0.00    +0.132 C 
BRANCH  11  12
ATOM     12  C   UNL     1      -3.809  -2.538  23.878  0.00  0.00    +0.096 C 
BRANCH  12  13
ATOM     13  N   UNL     1      -3.340  -3.105  24.253  0.00  0.00    -0.269 NA
ATOM     14  C   UNL     1      -3.693  -3.696  24.708  0.00  0.00    +0.090 C 
ATOM     15  C   UNL     1      -2.519  -3.081  24.172  0.00  0.00    +0.090 C 
ENDBRANCH  12  13
ENDBRANCH  11  12
ENDBRANCH  10  11
ENDBRANCH   7   8
ENDBRANCH   6   7
BRANCH  19  20
ATOM     20  C   UNL     1      -1.645   2.211  25.114  0.00  0.00    +0.120 C 
BRANCH  20  21
ATOM     21  N   UNL     1      -1.661   3.018  24.943  0.00  0.00    -0.201 NA
ATOM     22  C   UNL     1      -1.149   3.533  25.336  0.00  0.00    +0.265 C 
ATOM     23  O   UNL     1      -0.621   3.241  25.899  0.00  0.00    -0.268 OA
BRANCH  22  24
ATOM     24  C   UNL     1      -1.165   4.340  25.165  0.00  0.00    +0.055 A 
ATOM     25  C   UNL     1      -1.814   4.796  25.392  0.00  0.00    +0.005 A 
ATOM     26  C   UNL     1      -1.831   5.603  25.221  0.00  0.00    +0.000 A 
ATOM     27  C   UNL     1      -1.199   5.954  24.824  0.00  0.00    +0.000 A 
ATOM     28  C   UNL     1      -0.549   5.498  24.597  0.00  0.00    +0.000 A 
ATOM     29  C   UNL     1      -0.533   4.691  24.768  0.00  0.00    +0.005 A 
ENDBRANCH  22  24
ENDBRANCH  20  21
ENDBRANCH  19  20
TORSDOF 9
ENDMDL
MODEL 6
REMARK VINA RESULT:      -9.4      1.343      2.128
REMARK  Name = 
REMARK  9 active torsions:
REMARK  status: ('A' for Active; 'I' for Inactive)
REMARK    1  A    between atoms: C_2  and  C_4
REMARK    2  A    between atoms: C_6  and  C_7
REMARK    3  A    between atoms: C_7  and  C_8
REMARK    4  A    between atoms: N_10  and  C_11
REMARK    5  A    between atoms: C_11  and  C_12
REMARK    6  A    between atoms: C_12  and  N_13
REMARK    7  A    between atoms: C_19  and  C_20
REMARK    8  A    between atoms: C_20  and  N_21
REMARK    9  A    between atoms: C_22  and  C_24
REMARK                            x       y       z     vdW  Elec       q    Type
REMARK                         _______ _______ _______ _____ _____    ______ ____
ROOT
ATOM      4  C   UNL     1      -2.363   1.544  23.845  0.00  0.00    +0.006 C 
ATOM      5  C   UNL     1      -1.665   1.970  23.950  0.00  0.00    +0.005 C 
ATOM      6  C   UNL     1      -1.089   1.694  24.474  0.00  0.00    +0.027 C 
ATOM     16  C   UNL     1      -1.212   0.993  24.890  0.00  0.00    -0.048 C 
ATOM     17  C   UNL     1      -0.636   0.717  25.413  0.00  0.00    +0.026 C 
ATOM     18  C   UNL     1      -1.911   0.567  24.784  0.00  0.00    -0.033 C 
ATOM     19  C   UNL     1      -2.486   0.843  24.261  0.00  0.00    +0.043 C 
ENDROOT
BRANCH   4   2
ATOM      1  C   UNL     1      -2.884   1.641  22.518  0.00  0.00    +0.000 C 
ATOM      2  C   UNL     1      -2.938   1.820  23.322  0.00  0.00    +0.000 C 
ATOM      3  C   UNL     1      -3.567   2.275  23.602  0.00  0.00    +0.000 C 
ENDBRANCH   4   2
BRANCH   6   7
ATOM      7  C   UNL     1      -0.390   2.120  24.579  0.00  0.00    +0.091 C 
BRANCH   7   8
ATOM      8  C   UNL     1      -0.374   2.931  24.423  0.00  0.00    +0.242 C 
ATOM      9  O   UNL     1      -0.101   3.205  23.695  0.00  0.00    -0.273 OA
ATOM     10  N   UNL     1      -0.632   3.466  24.996  0.00  0.00    -0.204 NA
BRANCH  10  11
ATOM     11  C   UNL     1      -0.617   4.276  24.839  0.00  0.00    +0.132 C 
BRANCH  11  12
ATOM     12  C   UNL     1      -0.911   4.809  25.396  0.00  0.00    +0.096 C 
BRANCH  12  13
ATOM     13  N   UNL     1      -1.458   5.383  25.168  0.00  0.00    -0.269 NA
ATOM     14  C   UNL     1      -2.255   5.294  25.364  0.00  0.00    +0.090 C 
ATOM     15  C   UNL     1      -1.209   6.046  24.745  0.00  0.00    +0.090 C 
ENDBRANCH  12  13
ENDBRANCH  11  12
ENDBRANCH  10  11
ENDBRANCH   7   8
ENDBRANCH   6   7
BRANCH  19  20
ATOM     20  C   UNL     1      -3.184   0.417  24.156  0.00  0.00    +0.120 C 
BRANCH  20  21
ATOM     21  N   UNL     1      -3.171  -0.408  24.180  0.00  0.00    -0.201 NA
ATOM     22  C   UNL     1      -3.861  -0.827  24.357  0.00  0.00    +0.265 C 
ATOM     23  O   UNL     1      -4.562  -0.421  24.511  0.00  0.00    -0.268 OA
BRANCH  22  24
ATOM     24  C   UNL     1      -3.847  -1.651  24.381  0.00  0.00    +0.055 A 
ATOM     25  C   UNL     1      -4.192  -2.086  23.771  0.00  0.00    +0.005 A 
ATOM     26  C   UNL     1      -4.179  -2.911  23.795  0.00  0.00    +0.000 A 
ATOM     27  C   UNL     1      -3.821  -3.301  24.428  0.00  0.00    +0.000 A 
ATOM     28  C   UNL     1      -3.476  -2.865  25.039  0.00  0.00    +0.000 A 
ATOM     29  C   UNL     1      -3.489  -2.040  25.015  0.00  0.00    +0.005 A 
ENDBRANCH  22  24
ENDBRANCH  20  21
ENDBRANCH  19  20
TORSDOF 9
ENDMDL
MODEL 7
REMARK VINA RESULT:      -9.1      2.652      3.492
REMARK  Name = 
REMARK  9 active torsions:
REMARK  status: ('A' for Active; 'I' for Inactive)
REMARK    1  A    between atoms: C_2  and  C_4
REMARK    2  A    between atoms: C_6  and  C_7
REMARK    3  A    between atoms: C_7  and  C_8
REMARK    4  A    between atoms: N_10  and  C_11
REMARK    5  A    between atoms: C_11  and  C_12
REMARK    6  A    between atoms: C_12  and  N_13
REMARK    7  A    between atoms: C_19  and  C_20
REMARK    8  A    between atoms: C_20  and  N_21
REMARK    9  A    between atoms: C_22  and  C_24
REMARK                            x       y       z     vdW  Elec       q    Type
REMARK                         _______ _______ _______ _____ _____    ______ ____
ROOT
ATOM      4  C   UNL     1      -2.055   1.662  24.018  0.00  0.00    +0.006 C 
ATOM      5  C   UNL     1      -1.315   2.008  24.130  0.00  0.00    +0.005 C 
ATOM      6  C   UNL     1      -0.827   1.748  24.744  0.00  0.00    +0.027 C 
ATOM     16  C   UNL     1      -1.080   1.142  25.243  0.00  0.00    -0.048 C 
ATOM     17  C   UNL     1      -0.593   0.882  25.856  0.00  0.00    +0.026 C 
ATOM     18  C   UNL     1      -1.821   0.796  25.131  0.00  0.00    -0.033 C 
ATOM     19  C   UNL     1      -2.308   1.056  24.518  0.00  0.00    +0.043 C 
ENDROOT
BRANCH   4   2
ATOM      1  C   UNL     1      -2.455   1.606  22.647  0.00  0.00    +0.000 C 
ATOM      2  C   UNL     1      -2.542   1.922  23.405  0.00  0.00    +0.000 C 
ATOM      3  C   UNL     1      -3.116   2.497  23.550  0.00  0.00    +0.000 C 
ENDBRANCH   4   2
BRANCH   6   7
ATOM      7  C   UNL     1      -0.087   2.095  24.856  0.00  0.00    +0.091 C 
BRANCH   7   8
ATOM      8  C   UNL     1       0.474   2.072  24.251  0.00  0.00    +0.242 C 
ATOM      9  O   UNL     1       0.540   2.705  23.725  0.00  0.00    -0.273 OA
ATOM     10  N   UNL     1       0.969   1.417  24.172  0.00  0.00    -0.204 NA
BRANCH  10  11
ATOM     11  C   UNL     1       1.531   1.395  23.567  0.00  0.00    +0.132 C 
BRANCH  11  12
ATOM     12  C   UNL     1       2.102   0.800  23.558  0.00  0.00    +0.096 C 
BRANCH  12  13
ATOM     13  N   UNL     1       2.510   0.631  22.860  0.00  0.00    -0.269 NA
ATOM     14  C   UNL     1       3.240   0.986  22.713  0.00  0.00    +0.090 C 
ATOM     15  C   UNL     1       2.187   0.108  22.309  0.00  0.00    +0.090 C 
ENDBRANCH  12  13
ENDBRANCH  11  12
ENDBRANCH  10  11
ENDBRANCH   7   8
ENDBRANCH   6   7
BRANCH  19  20
ATOM     20  C   UNL     1      -3.048   0.710  24.406  0.00  0.00    +0.120 C 
BRANCH  20  21
ATOM     21  N   UNL     1      -3.112  -0.109  24.323  0.00  0.00    -0.201 NA
ATOM     22  C   UNL     1      -3.806  -0.494  24.550  0.00  0.00    +0.265 C 
ATOM     23  O   UNL     1      -4.436  -0.060  24.858  0.00  0.00    -0.268 OA
BRANCH  22  24
ATOM     24  C   UNL     1      -3.869  -1.313  24.467  0.00  0.00    +0.055 A 
ATOM     25  C   UNL     1      -4.270  -1.631  23.821  0.00  0.00    +0.005 A 
ATOM     26  C   UNL     1      -4.333  -2.450  23.738  0.00  0.00    +0.000 A 
ATOM     27  C   UNL     1      -3.996  -2.949  24.301  0.00  0.00    +0.000 A 
ATOM     28  C   UNL     1      -3.595  -2.630  24.949  0.00  0.00    +0.000 A 
ATOM     29  C   UNL     1      -3.532  -1.812  25.031  0.00  0.00    +0.005 A 
ENDBRANCH  22  24
ENDBRANCH  20  21
ENDBRANCH  19  20
TORSDOF 9
ENDMDL
MODEL 8
REMARK VINA RESULT:      -9.0      2.221      5.899
REMARK  Name = 
REMARK  9 active torsions:
REMARK  status: ('A' for Active; 'I' for Inactive)
REMARK    1  A    between atoms: C_2  and  C_4
REMARK    2  A    between atoms: C_6  and  C_7
REMARK    3  A    between atoms: C_7  and  C_8
REMARK    4  A    between atoms: N_10  and  C_11
REMARK    5  A    between atoms: C_11  and  C_12
REMARK    6  A    between atoms: C_12  and  N_13
REMARK    7  A    between atoms: C_19  and  C_20
REMARK    8  A    between atoms: C_20  and  N_21
REMARK    9  A    between atoms: C_22  and  C_24
REMARK                            x       y       z     vdW  Elec       q    Type
REMARK                         _______ _______ _______ _____ _____    ______ ____
ROOT
ATOM      4  C   UNL     1      -0.364   0.285  24.224  0.00  0.00    +0.006 C 
ATOM      5  C   UNL     1      -0.531  -0.496  24.430  0.00  0.00    +0.005 C 
ATOM      6  C   UNL     1      -0.855  -0.666  25.170  0.00  0.00    +0.027 C 
ATOM     16  C   UNL     1      -1.011  -0.056  25.703  0.00  0.00    -0.048 C 
ATOM     17  C   UNL     1      -1.334  -0.225  26.442  0.00  0.00    +0.026 C 
ATOM     18  C   UNL     1      -0.843   0.726  25.496  0.00  0.00    -0.033 C 
ATOM     19  C   UNL     1      -0.519   0.896  24.756  0.00  0.00    +0.043 C 
ENDROOT
BRANCH   4   2
ATOM      1  C   UNL     1       0.777   0.419  23.374  0.00  0.00    +0.000 C 
ATOM      2  C   UNL     1      -0.040   0.455  23.484  0.00  0.00    +0.000 C 
ATOM      3  C   UNL     1      -0.533   0.660  22.855  0.00  0.00    +0.000 C 
ENDBRANCH   4   2
BRANCH   6   7
ATOM      7  C   UNL     1      -1.023  -1.447  25.376  0.00  0.00    +0.091 C 
BRANCH   7   8
ATOM      8  C   UNL     1      -1.489  -1.913  24.880  0.00  0.00    +0.242 C 
ATOM      9  O   UNL     1      -1.134  -2.379  24.298  0.00  0.00    -0.273 OA
ATOM     10  N   UNL     1      -2.310  -1.913  24.965  0.00  0.00    -0.204 NA
BRANCH  10  11
ATOM     11  C   UNL     1      -2.776  -2.380  24.468  0.00  0.00    +0.132 C 
BRANCH  11  12
ATOM     12  C   UNL     1      -3.582  -2.466  24.621  0.00  0.00    +0.096 C 
BRANCH  12  13
ATOM     13  N   UNL     1      -4.134  -2.297  24.031  0.00  0.00    -0.269 NA
ATOM     14  C   UNL     1      -4.399  -2.898  23.532  0.00  0.00    +0.090 C 
ATOM     15  C   UNL     1      -4.419  -1.528  23.940  0.00  0.00    +0.090 C 
ENDBRANCH  12  13
ENDBRANCH  11  12
ENDBRANCH  10  11
ENDBRANCH   7   8
ENDBRANCH   6   7
BRANCH  19  20
ATOM     20  C   UNL     1      -0.352   1.676  24.550  0.00  0.00    +0.120 C 
BRANCH  20  21
ATOM     21  N   UNL     1      -0.841   2.287  24.815  0.00  0.00    -0.201 NA
ATOM     22  C   UNL     1      -0.599   3.072  24.736  0.00  0.00    +0.265 C 
ATOM     23  O   UNL     1       0.131   3.248  24.394  0.00  0.00    -0.268 OA
BRANCH  22  24
ATOM     24  C   UNL     1      -1.088   3.682  25.001  0.00  0.00    +0.055 A 
ATOM     25  C   UNL     1      -1.798   3.504  25.382  0.00  0.00    +0.005 A 
ATOM     26  C   UNL     1      -2.288   4.113  25.647  0.00  0.00    +0.000 A 
ATOM     27  C   UNL     1      -2.068   4.900  25.530  0.00  0.00    +0.000 A 
ATOM     28  C   UNL     1      -1.357   5.078  25.148  0.00  0.00    +0.000 A 
ATOM     29  C   UNL     1      -0.868   4.468  24.884  0.00  0.00    +0.005 A 
ENDBRANCH  22  24
ENDBRANCH  20  21
ENDBRANCH  19  20
TORSDOF 9
ENDMDL
MODEL 9
REMARK VINA RESULT:      -8.8      2.048      4.718
REMARK  Name = 
REMARK  9 active torsions:
REMARK  status: ('A' for Active; 'I' for Inactive)
REMARK    1  A    between atoms: C_2  and  C_4
REMARK    2  A    between atoms: C_6  and  C_7
REMARK    3  A    between atoms: C_7  and  C_8
REMARK    4  A    between atoms: N_10  and  C_11
REMARK    5  A    between atoms: C_11  and  C_12
REMARK    6  A    between atoms: C_12  and  N_13
REMARK    7  A    between atoms: C_19  and  C_20
REMARK    8  A    between atoms: C_20  and  N_21
REMARK    9  A    between atoms: C_22  and  C_24
REMARK                            x       y       z     vdW  Elec       q    Type
REMARK                         _______ _______ _______ _____ _____    ______ ____
ROOT
ATOM      4  C   UNL     1      -1.749   2.995  24.748  0.00  0.00    +0.006 C 
ATOM      5  C   UNL     1      -1.110   2.606  24.401  0.00  0.00    +0.005 C 
ATOM      6  C   UNL     1      -1.228   2.129  23.737  0.00  0.00    +0.027 C 
ATOM     16  C   UNL     1      -1.985   2.043  23.421  0.00  0.00    -0.048 C 
ATOM     17  C   UNL     1      -2.104   1.567  22.757  0.00  0.00    +0.026 C 
ATOM     18  C   UNL     1      -2.625   2.432  23.768  0.00  0.00    -0.033 C 
ATOM     19  C   UNL     1      -2.506   2.908  24.431  0.00  0.00    +0.043 C 
ENDROOT
BRANCH   4   2
ATOM      1  C   UNL     1      -1.499   4.280  25.319  0.00  0.00    +0.000 C 
ATOM      2  C   UNL     1      -1.630   3.470  25.411  0.00  0.00    +0.000 C 
ATOM      3  C   UNL     1      -1.643   3.137  26.166  0.00  0.00    +0.000 C 
ENDBRANCH   4   2
BRANCH   6   7
ATOM      7  C   UNL     1      -0.589   1.740  23.390  0.00  0.00    +0.091 C 
BRANCH   7   8
ATOM      8  C   UNL     1      -0.180   1.162  23.814  0.00  0.00    +0.242 C 
ATOM      9  O   UNL     1       0.520   1.355  24.205  0.00  0.00    -0.273 OA
ATOM     10  N   UNL     1      -0.471   0.391  23.845  0.00  0.00    -0.204 NA
BRANCH  10  11
ATOM     11  C   UNL     1      -0.062  -0.188  24.268  0.00  0.00    +0.132 C 
BRANCH  11  12
ATOM     12  C   UNL     1      -0.218  -0.986  24.131  0.00  0.00    +0.096 C 
BRANCH  12  13
ATOM     13  N   UNL     1      -0.582  -1.441  24.716  0.00  0.00    -0.269 NA
ATOM     14  C   UNL     1      -1.368  -1.673  24.627  0.00  0.00    +0.090 C 
ATOM     15  C   UNL     1      -0.159  -1.664  25.389  0.00  0.00    +0.090 C 
ENDBRANCH  12  13
ENDBRANCH  11  12
ENDBRANCH  10  11
ENDBRANCH   7   8
ENDBRANCH   6   7
BRANCH  19  20
ATOM     20  C   UNL     1      -3.146   3.297  24.778  0.00  0.00    +0.120 C 
BRANCH  20  21
ATOM     21  N   UNL     1      -3.808   2.867  25.019  0.00  0.00    -0.201 NA
ATOM     22  C   UNL     1      -4.547   3.234  25.054  0.00  0.00    +0.265 C 
ATOM     23  O   UNL     1      -4.623   4.030  24.849  0.00  0.00    -0.268 OA
BRANCH  22  24
ATOM     24  C   UNL     1      -5.209   2.805  25.295  0.00  0.00    +0.055 A 
ATOM     25  C   UNL     1      -5.596   2.311  24.759  0.00  0.00    +0.005 A 
ATOM     26  C   UNL     1      -6.258   1.880  24.999  0.00  0.00    +0.000 A 
ATOM     27  C   UNL     1      -6.533   1.944  25.774  0.00  0.00    +0.000 A 
ATOM     28  C   UNL     1      -6.146   2.439  26.310  0.00  0.00    +0.000 A 
ATOM     29  C   UNL     1      -5.484   2.869  26.070  0.00  0.00    +0.005 A 
ENDBRANCH  22  24
ENDBRANCH  20  21
ENDBRANCH  19  20
TORSDOF 9
ENDMDL
