MODEL 1
REMARK VINA RESULT:      -9.7      0.000      0.000
REMARK  Name = 
REMARK  5 active torsions:
REMARK  status: ('A' for Active; 'I' for Inactive)
REMARK    1  A    between atoms: C_2  and  N_4
REMARK    2  A    between atoms: N_4  and  C_5
REMARK    3  A    between atoms: C_8  and  C_9
REMARK    4  A    between atoms: C_9  and  N_10
REMARK    5  A    between atoms: N_13  and  C_14
REMARK                            x       y       z     vdW  Elec       q    Type
REMARK                         _______ _______ _______ _____ _____    ______ ____
ROOT
ATOM      9  C   UNL     1      -2.051   1.145  24.885  0.00  0.00    +0.149 C 
ENDROOT
BRANCH   9   8
ATOM      5  C   UNL     1      -1.586   3.207  25.192  0.00  0.00    +0.135 C 
ATOM      6  C   UNL     1      -2.258   3.264  24.718  0.00  0.00    +0.162 C 
ATOM      7  O   UNL     1      -2.514   2.498  24.546  0.00  0.00    -0.350 OA
ATOM      8  C   UNL     1      -2.000   1.968  24.913  0.00  0.00    +0.169 C 
ATOM     20  C   UNL     1      -1.426   2.406  25.313  0.00  0.00    +0.199 C 
ATOM     21  O   UNL     1      -0.802   2.096  25.755  0.00  0.00    -0.219 OA
BRANCH   5   4
ATOM      4  N   UNL     1      -1.149   3.838  25.494  0.00  0.00    -0.216 NA
BRANCH   4   2
ATOM      1  C   UNL     1      -0.679   4.886  24.643  0.00  0.00    +0.019 C 
ATOM      2  C   UNL     1      -1.240   4.593  25.172  0.00  0.00    +0.073 C 
ATOM      3  C   UNL     1      -1.891   5.053  25.380  0.00  0.00    +0.019 C 
ENDBRANCH   4   2
ENDBRANCH   5   4
ENDBRANCH   9   8
BRANCH   9  10
ATOM     10  N   UNL     1      -2.780   0.773  24.987  0.00  0.00    -0.184 NA
ATOM     11  C   UNL     1      -2.867  -0.023  24.792  0.00  0.00    +0.344 C 
ATOM     12  O   UNL     1      -2.226  -0.448  24.495  0.00  0.00    -0.249 OA
ATOM     13  N   UNL     1      -3.597  -0.395  24.895  0.00  0.00    -0.161 NA
BRANCH  13  14
ATOM     14  C   UNL     1      -3.684  -1.192  24.699  0.00  0.00    +0.075 A 
ATOM     15  C   UNL     1      -4.071  -1.406  24.002  0.00  0.00    +0.017 A 
ATOM     16  C   UNL     1      -4.158  -2.203  23.807  0.00  0.00    +0.001 A 
ATOM     17  C   UNL     1      -3.859  -2.785  24.307  0.00  0.00    +0.000 A 
ATOM     18  C   UNL     1      -3.471  -2.572  25.004  0.00  0.00    +0.001 A 
ATOM     19  C   UNL     1      -3.384  -1.774  25.200  0.00  0.00    +0.017 A 
ENDBRANCH  13  14
ENDBRANCH   9  10
TORSDOF 5
ENDMDL
MODEL 2
REMARK VINA RESULT:      -9.4      0.882      5.463
REMARK  Name = 
REMARK  5 active torsions:
REMARK  status: ('A' for Active; 'I' for Inactive)
REMARK    1  A    between atoms: C_2  and  N_4
REMARK    2  A    between atoms: N_4  and  C_5
REMARK    3  A    between atoms: C_8  and  C_9
REMARK    4  A    between atoms: C_9  and  N_10
REMARK    5  A    between atoms: N_13  and  C_14
REMARK                            x       y       z     vdW  Elec       q    Type
REMARK                         _______ _______ _______ _____ _____    ______ ____
ROOT
ATOM      9  C   UNL     1      -2.960   1.314  24.505  0.00  0.00    +0.149 C 
ENDROOT
BRANCH   9   8
ATOM      5  C   UNL     1      -3.558  -0.734  24.608  0.00  0.00    +0.135 C 
ATOM      6  C   UNL     1      -2.737  -0.808  24.587  0.00  0.00    +0.162 C 
ATOM      7  O   UNL     1      -2.413  -0.051  24.546  0.00  0.00    -0.350 OA
ATOM      8  C   UNL     1      -3.034   0.492  24.542  0.00  0.00    +0.169 C 
ATOM     20  C   UNL     1      -3.742   0.070  24.580  0.00  0.00    +0.199 C 
ATOM     21  O   UNL     1      -4.500   0.395  24.589  0.00  0.00    -0.219 OA
BRANCH   5   4
ATOM      4  N   UNL     1      -4.101  -1.354  24.650  0.00  0.00    -0.216 NA
BRANCH   4   2
ATOM      1  C   UNL     1      -3.452  -2.566  25.042  0.00  0.00    +0.019 C 
ATOM      2  C   UNL     1      -3.860  -2.124  24.477  0.00  0.00    +0.073 C 
ATOM      3  C   UNL     1      -4.028  -2.453  23.740  0.00  0.00    +0.019 C 
ENDBRANCH   4   2
ENDBRANCH   5   4
ENDBRANCH   9   8
BRANCH   9  10
ATOM     10  N   UNL     1      -2.428   1.702  25.002  0.00  0.00    -0.184 NA
ATOM     11  C   UNL     1      -2.266   2.502  24.886  0.00  0.00    +0.344 C 
ATOM     12  O   UNL     1      -2.636   2.914  24.275  0.00  0.00    -0.249 OA
ATOM     13  N   UNL     1      -1.733   2.891  25.382  0.00  0.00    -0.161 NA
BRANCH  13  14
ATOM     14  C   UNL     1      -1.572   3.692  25.267  0.00  0.00    +0.075 A 
ATOM     15  C   UNL     1      -0.875   3.921  24.888  0.00  0.00    +0.017 A 
ATOM     16  C   UNL     1      -0.713   4.721  24.772  0.00  0.00    +0.001 A 
ATOM     17  C   UNL     1      -1.246   5.292  25.034  0.00  0.00    +0.000 A 
ATOM     18  C   UNL     1      -1.943   5.064  25.413  0.00  0.00    +0.001 A 
ATOM     19  C   UNL     1      -2.105   4.262  25.529  0.00  0.00    +0.017 A 
ENDBRANCH  13  14
ENDBRANCH   9  10
TORSDOF 5
ENDMDL
MODEL 3
REMARK VINA RESULT:      -6.9     17.179     19.211
REMARK  Name = 
REMARK  5 active torsions:
REMARK  status: ('A' for Active; 'I' for Inactive)
REMARK    1  A    between atoms: C_2  and  N_4
REMARK    2  A    between atoms: N_4  and  C_5
REMARK    3  A    between atoms: C_8  and  C_9
REMARK    4  A    between atoms: C_9  and  N_10
REMARK    5  A    between atoms: N_13  and  C_14
REMARK                            x       y       z     vdW  Elec       q    Type
REMARK                         _______ _______ _______ _____ _____    ______ ____
ROOT
ATOM      9  C   UNL     1      13.668   7.468  18.771  0.00  0.00    +0.149 C 
ENDROOT
BRANCH   9   8
ATOM      5  C   UNL     1      12.083   8.078  17.476  0.00  0.00    +0.135 C 
ATOM      6  C   UNL     1      12.503   8.783  17.558  0.00  0.00    +0.162 C 
ATOM      7  O   UNL     1      13.147   8.640  18.053  0.00  0.00    -0.350 OA
ATOM      8  C   UNL     1      13.126   7.847  18.277  0.00  0.00    +0.169 C 
ATOM     20  C   UNL     1      12.468   7.499  17.921  0.00  0.00    +0.199 C 
ATOM     21  O   UNL     1      12.237   6.710  17.996  0.00  0.00    -0.219 OA
BRANCH   5   4
ATOM      4  N   UNL     1      11.399   7.969  17.029  0.00  0.00    -0.216 NA
BRANCH   4   2
ATOM      1  C   UNL     1      10.356   8.921  17.254  0.00  0.00    +0.019 C 
ATOM      2  C   UNL     1      10.962   8.623  16.779  0.00  0.00    +0.073 C 
ATOM      3  C   UNL     1      11.130   8.980  16.055  0.00  0.00    +0.019 C 
ENDBRANCH   4   2
ENDBRANCH   5   4
ENDBRANCH   9   8
BRANCH   9  10
ATOM     10  N   UNL     1      14.433   7.765  18.848  0.00  0.00    -0.184 NA
ATOM     11  C   UNL     1      14.982   7.371  19.322  0.00  0.00    +0.344 C 
ATOM     12  O   UNL     1      14.766   6.681  19.717  0.00  0.00    -0.249 OA
ATOM     13  N   UNL     1      15.749   7.668  19.399  0.00  0.00    -0.161 NA
BRANCH  13  14
ATOM     14  C   UNL     1      16.297   7.274  19.872  0.00  0.00    +0.075 A 
ATOM     15  C   UNL     1      16.376   7.477  20.669  0.00  0.00    +0.017 A 
ATOM     16  C   UNL     1      16.924   7.083  21.142  0.00  0.00    +0.001 A 
ATOM     17  C   UNL     1      17.394   6.487  20.820  0.00  0.00    +0.000 A 
ATOM     18  C   UNL     1      17.316   6.284  20.025  0.00  0.00    +0.001 A 
ATOM     19  C   UNL     1      16.767   6.678  19.551  0.00  0.00    +0.017 A 
ENDBRANCH  13  14
ENDBRANCH   9  10
TORSDOF 5
ENDMDL
MODEL 4
REMARK VINA RESULT:      -6.7     17.607     18.950
REMARK  Name = 
REMARK  5 active torsions:
REMARK  status: ('A' for Active; 'I' for Inactive)
REMARK    1  A    between atoms: C_2  and  N_4
REMARK    2  A    between atoms: N_4  and  C_5
REMARK    3  A    between atoms: C_8  and  C_9
REMARK    4  A    between atoms: C_9  and  N_10
REMARK    5  A    between atoms: N_13  and  C_14
REMARK                            x       y       z     vdW  Elec       q    Type
REMARK                         _______ _______ _______ _____ _____    ______ ____
ROOT
ATOM      9  C   UNL     1      13.646   7.295  18.602  0.00  0.00    +0.149 C 
ENDROOT
BRANCH   9   8
ATOM      5  C   UNL     1      15.283   6.924  19.923  0.00  0.00    +0.135 C 
ATOM      6  C   UNL     1      15.658   7.341  19.318  0.00  0.00    +0.162 C 
ATOM      7  O   UNL     1      15.090   7.531  18.750  0.00  0.00    -0.350 OA
ATOM      8  C   UNL     1      14.365   7.231  19.003  0.00  0.00    +0.169 C 
ATOM     20  C   UNL     1      14.484   6.856  19.729  0.00  0.00    +0.199 C 
ATOM     21  O   UNL     1      13.905   6.479  20.180  0.00  0.00    -0.219 OA
BRANCH   5   4
ATOM      4  N   UNL     1      15.643   6.627  20.603  0.00  0.00    -0.216 NA
BRANCH   4   2
ATOM      1  C   UNL     1      17.039   6.323  20.569  0.00  0.00    +0.019 C 
ATOM      2  C   UNL     1      16.423   6.831  20.779  0.00  0.00    +0.073 C 
ATOM      3  C   UNL     1      16.588   7.541  21.163  0.00  0.00    +0.019 C 
ENDBRANCH   4   2
ENDBRANCH   5   4
ENDBRANCH   9   8
BRANCH   9  10
ATOM     10  N   UNL     1      13.397   8.029  18.319  0.00  0.00    -0.184 NA
ATOM     11  C   UNL     1      12.772   8.072  17.783  0.00  0.00    +0.344 C 
ATOM     12  O   UNL     1      12.397   7.383  17.530  0.00  0.00    -0.249 OA
ATOM     13  N   UNL     1      12.522   8.806  17.499  0.00  0.00    -0.161 NA
BRANCH  13  14
ATOM     14  C   UNL     1      11.897   8.849  16.963  0.00  0.00    +0.075 A 
ATOM     15  C   UNL     1      12.043   9.048  16.175  0.00  0.00    +0.017 A 
ATOM     16  C   UNL     1      11.418   9.091  15.638  0.00  0.00    +0.001 A 
ATOM     17  C   UNL     1      10.648   8.935  15.888  0.00  0.00    +0.000 A 
ATOM     18  C   UNL     1      10.502   8.736  16.675  0.00  0.00    +0.001 A 
ATOM     19  C   UNL     1      11.127   8.693  17.212  0.00  0.00    +0.017 A 
ENDBRANCH  13  14
ENDBRANCH   9  10
TORSDOF 5
ENDMDL
MODEL 5
REMARK VINA RESULT:      -6.6     15.638     18.208
REMARK  Name = 
REMARK  5 active torsions:
REMARK  status: ('A' for Active; 'I' for Inactive)
REMARK    1  A    between atoms: C_2  and  N_4
REMARK    2  A    between atoms: N_4  and  C_5
REMARK    3  A    between atoms: C_8  and  C_9
REMARK    4  A    between atoms: C_9  and  N_10
REMARK    5  A    between atoms: N_13  and  C_14
REMARK                            x       y       z     vdW  Elec       q    Type
REMARK                         _______ _______ _______ _____ _____    ______ ____
ROOT
ATOM      9  C   UNL     1      13.662   7.103  20.145  0.00  0.00    +0.149 C 
ENDROOT
BRANCH   9   8
ATOM      5  C   UNL     1      15.626   6.570  19.495  0.00  0.00    +0.135 C 
ATOM      6  C   UNL     1      15.644   6.319  20.280  0.00  0.00    +0.162 C 
ATOM      7  O   UNL     1      14.911   6.488  20.619  0.00  0.00    -0.350 OA
ATOM      8  C   UNL     1      14.439   6.843  20.043  0.00  0.00    +0.169 C 
ATOM     20  C   UNL     1      14.881   6.895  19.348  0.00  0.00    +0.199 C 
ATOM     21  O   UNL     1      14.623   7.214  18.632  0.00  0.00    -0.219 OA
BRANCH   5   4
ATOM      4  N   UNL     1      16.242   6.508  18.951  0.00  0.00    -0.216 NA
BRANCH   4   2
ATOM      1  C   UNL     1      17.405   6.519  19.782  0.00  0.00    +0.019 C 
ATOM      2  C   UNL     1      16.961   6.172  19.179  0.00  0.00    +0.073 C 
ATOM      3  C   UNL     1      17.235   5.491  18.804  0.00  0.00    +0.019 C 
ENDBRANCH   4   2
ENDBRANCH   5   4
ENDBRANCH   9   8
BRANCH   9  10
ATOM     10  N   UNL     1      13.267   6.952  20.853  0.00  0.00    -0.184 NA
ATOM     11  C   UNL     1      12.611   7.406  21.063  0.00  0.00    +0.344 C 
ATOM     12  O   UNL     1      12.351   8.010  20.566  0.00  0.00    -0.249 OA
ATOM     13  N   UNL     1      12.214   7.254  21.771  0.00  0.00    -0.161 NA
BRANCH  13  14
ATOM     14  C   UNL     1      11.559   7.709  21.981  0.00  0.00    +0.075 A 
ATOM     15  C   UNL     1      11.665   8.440  22.348  0.00  0.00    +0.017 A 
ATOM     16  C   UNL     1      11.009   8.895  22.558  0.00  0.00    +0.001 A 
ATOM     17  C   UNL     1      10.249   8.618  22.402  0.00  0.00    +0.000 A 
ATOM     18  C   UNL     1      10.142   7.887  22.035  0.00  0.00    +0.001 A 
ATOM     19  C   UNL     1      10.798   7.432  21.824  0.00  0.00    +0.017 A 
ENDBRANCH  13  14
ENDBRANCH   9  10
TORSDOF 5
ENDMDL
MODEL 6
REMARK VINA RESULT:      -6.6     15.700     18.279
REMARK  Name = 
REMARK  5 active torsions:
REMARK  status: ('A' for Active; 'I' for Inactive)
REMARK    1  A    between atoms: C_2  and  N_4
REMARK    2  A    between atoms: N_4  and  C_5
REMARK    3  A    between atoms: C_8  and  C_9
REMARK    4  A    between atoms: C_9  and  N_10
REMARK    5  A    between atoms: N_13  and  C_14
REMARK                            x       y       z     vdW  Elec       q    Type
REMARK                         _______ _______ _______ _____ _____    ______ ____
ROOT
ATOM      9  C   UNL     1      13.430   7.015  20.650  0.00  0.00    +0.149 C 
ENDROOT
BRANCH   9   8
ATOM      5  C   UNL     1      11.731   7.894  21.600  0.00  0.00    +0.135 C 
ATOM      6  C   UNL     1      12.098   8.560  21.281  0.00  0.00    +0.162 C 
ATOM      7  O   UNL     1      12.779   8.312  20.887  0.00  0.00    -0.350 OA
ATOM      8  C   UNL     1      12.833   7.493  20.962  0.00  0.00    +0.169 C 
ATOM     20  C   UNL     1      12.185   7.233  21.403  0.00  0.00    +0.199 C 
ATOM     21  O   UNL     1      12.021   6.452  21.610  0.00  0.00    -0.219 OA
BRANCH   5   4
ATOM      4  N   UNL     1      11.033   7.887  22.039  0.00  0.00    -0.216 NA
BRANCH   4   2
ATOM      1  C   UNL     1      10.278   9.094  21.906  0.00  0.00    +0.019 C 
ATOM      2  C   UNL     1      10.743   8.589  22.364  0.00  0.00    +0.073 C 
ATOM      3  C   UNL     1      10.919   8.786  23.145  0.00  0.00    +0.019 C 
ENDBRANCH   4   2
ENDBRANCH   5   4
ENDBRANCH   9   8
BRANCH   9  10
ATOM     10  N   UNL     1      14.086   7.360  20.289  0.00  0.00    -0.184 NA
ATOM     11  C   UNL     1      14.752   6.903  20.122  0.00  0.00    +0.344 C 
ATOM     12  O   UNL     1      14.762   6.102  20.317  0.00  0.00    -0.249 OA
ATOM     13  N   UNL     1      15.409   7.247  19.760  0.00  0.00    -0.161 NA
BRANCH  13  14
ATOM     14  C   UNL     1      16.075   6.790  19.594  0.00  0.00    +0.075 A 
ATOM     15  C   UNL     1      16.118   6.367  18.886  0.00  0.00    +0.017 A 
ATOM     16  C   UNL     1      16.783   5.909  18.719  0.00  0.00    +0.001 A 
ATOM     17  C   UNL     1      17.405   5.874  19.259  0.00  0.00    +0.000 A 
ATOM     18  C   UNL     1      17.363   6.297  19.966  0.00  0.00    +0.001 A 
ATOM     19  C   UNL     1      16.697   6.755  20.133  0.00  0.00    +0.017 A 
ENDBRANCH  13  14
ENDBRANCH   9  10
TORSDOF 5
ENDMDL
