REMARK  Name = 
REMARK  10 active torsions:
REMARK  status: ('A' for Active; 'I' for Inactive)
REMARK    1  A    between atoms: C_2  and  C_3
REMARK    2  A    between atoms: C_3  and  S_4
REMARK    3  A    between atoms: S_4  and  N_7
REMARK    4  A    between atoms: N_7  and  C_8
REMARK    5  A    between atoms: C_8  and  C_9
REMARK    6  A    between atoms: C_13  and  C_14
REMARK    7  A    between atoms: C_14  and  C_15
REMARK    8  A    between atoms: N_17  and  C_18
REMARK    9  A    between atoms: C_18  and  C_19
REMARK   10  A    between atoms: C_27  and  C_28
REMARK                            x       y       z     vdW  Elec       q    Type
REMARK                         _______ _______ _______ _____ _____    ______ ____
ROOT
ATOM      9  C   UNL     1      -1.429  -1.650   0.000  0.00  0.00    +0.041 C 
ATOM     10  C   UNL     1      -0.715  -1.238   0.000  0.00  0.00    -0.033 C 
ATOM     11  C   UNL     1       0.000  -1.650   0.000  0.00  0.00    -0.048 C 
ATOM     12  C   UNL     1       0.715  -1.238   0.000  0.00  0.00    +0.026 C 
ATOM     13  C   UNL     1       0.000  -2.475   0.000  0.00  0.00    +0.027 C 
ATOM     26  C   UNL     1      -0.715  -2.888   0.000  0.00  0.00    +0.005 C 
ATOM     27  C   UNL     1      -1.429  -2.475   0.000  0.00  0.00    +0.006 C 
ENDROOT
BRANCH  27  28
ATOM     28  C   UNL     1      -2.143  -2.888   0.000  0.00  0.00    +0.000 C 
ATOM     29  C   UNL     1      -2.858  -2.475   0.000  0.00  0.00    +0.000 C 
ATOM     30  C   UNL     1      -2.143  -3.712   0.000  0.00  0.00    +0.000 C 
ENDBRANCH  27  28
BRANCH   9   8
ATOM      8  C   UNL     1      -2.143  -1.238   0.000  0.00  0.00    +0.119 C 
BRANCH   8   7
ATOM      7  N   UNL     1      -2.858  -1.650   0.000  0.00  0.00    -0.082 NA
BRANCH   7   4
ATOM      4  S   UNL     1      -3.572  -1.238   0.000  0.00  0.00    +0.057 S 
ATOM      5  O   UNL     1      -3.985  -1.952   0.000  0.00  0.00    -0.156 OA
ATOM      6  O   UNL     1      -3.160  -0.523   0.000  0.00  0.00    -0.156 OA
BRANCH   4   3
ATOM      3  C   UNL     1      -4.287  -0.825   0.000  0.00  0.00    +0.171 C 
BRANCH   3   2
ATOM      1  C   UNL     1      -5.716  -0.825   0.000  0.00  0.00    +0.002 C 
ATOM      2  C   UNL     1      -5.001  -1.238   0.000  0.00  0.00    +0.027 C 
ENDBRANCH   3   2
ENDBRANCH   4   3
ENDBRANCH   7   4
ENDBRANCH   8   7
ENDBRANCH   9   8
BRANCH  13  14
ATOM     14  C   UNL     1       0.715  -2.888   0.000  0.00  0.00    +0.091 C 
BRANCH  14  15
ATOM     15  C   UNL     1       1.429  -2.475   0.000  0.00  0.00    +0.242 C 
ATOM     16  O   UNL     1       1.429  -1.650   0.000  0.00  0.00    -0.273 OA
ATOM     17  N   UNL     1       2.143  -2.888   0.000  0.00  0.00    -0.201 NA
BRANCH  17  18
ATOM     18  C   UNL     1       2.858  -2.475   0.000  0.00  0.00    +0.141 C 
BRANCH  18  19
ATOM     19  C   UNL     1       3.572  -2.888   0.000  0.00  0.00    -0.000 A 
ATOM     20  C   UNL     1       4.287  -2.475   0.000  0.00  0.00    -0.000 A 
ATOM     21  C   UNL     1       5.001  -2.888   0.000  0.00  0.00    +0.029 A 
ATOM     22  C   UNL     1       5.001  -3.712   0.000  0.00  0.00    +0.140 A 
ATOM     23  F   UNL     1       5.716  -4.125   0.000  0.00  0.00    -0.204 F 
ATOM     24  C   UNL     1       4.287  -4.125   0.000  0.00  0.00    +0.029 A 
ATOM     25  C   UNL     1       3.572  -3.712   0.000  0.00  0.00    -0.000 A 
ENDBRANCH  18  19
ENDBRANCH  17  18
ENDBRANCH  14  15
ENDBRANCH  13  14
TORSDOF 10
