MODEL 1
REMARK VINA RESULT:      -9.0      0.000      0.000
REMARK  Name = 
REMARK  5 active torsions:
REMARK  status: ('A' for Active; 'I' for Inactive)
REMARK    1  A    between atoms: S_2  and  N_4
REMARK    2  A    between atoms: S_2  and  C_25
REMARK    3  A    between atoms: N_4  and  C_5
REMARK    4  A    between atoms: C_9  and  N_13
REMARK    5  A    between atoms: C_16  and  C_20
REMARK                            x       y       z     vdW  Elec       q    Type
REMARK                         _______ _______ _______ _____ _____    ______ ____
ROOT
ATOM      5  C   UNL     1      -3.986   0.022  24.188  0.00  0.00    +0.157 C 
ATOM      6  C   UNL     1      -3.232  -0.008  23.856  0.00  0.00    +0.164 C 
ATOM      7  O   UNL     1      -2.944   0.763  23.806  0.00  0.00    -0.350 OA
ATOM      8  C   UNL     1      -3.520   1.270  24.107  0.00  0.00    +0.166 C 
ATOM      9  C   UNL     1      -3.700   2.060  24.263  0.00  0.00    +0.154 C 
ATOM     10  C   UNL     1      -4.454   2.091  24.595  0.00  0.00    +0.166 C 
ATOM     11  O   UNL     1      -4.741   1.320  24.644  0.00  0.00    -0.350 OA
ATOM     12  C   UNL     1      -4.164   0.812  24.343  0.00  0.00    +0.164 C 
ENDROOT
BRANCH   9  13
ATOM     13  N   UNL     1      -3.210   2.707  24.112  0.00  0.00    -0.200 NA
ATOM     14  C   UNL     1      -2.899   3.145  24.739  0.00  0.00    +0.237 A 
ATOM     15  N   UNL     1      -2.409   3.791  24.589  0.00  0.00    -0.209 NA
ATOM     16  C   UNL     1      -2.099   4.228  25.216  0.00  0.00    +0.120 A 
ATOM     17  C   UNL     1      -2.278   4.018  25.994  0.00  0.00    +0.043 A 
ATOM     18  C   UNL     1      -2.769   3.372  26.144  0.00  0.00    +0.104 A 
ATOM     19  N   UNL     1      -3.079   2.935  25.517  0.00  0.00    -0.211 NA
BRANCH  16  20
ATOM     20  C   UNL     1      -1.609   4.874  25.066  0.00  0.00    +0.163 A 
ATOM     21  C   UNL     1      -0.820   4.840  24.828  0.00  0.00    +0.042 A 
ATOM     22  C   UNL     1      -0.545   5.613  24.743  0.00  0.00    +0.044 A 
ATOM     23  C   UNL     1      -1.164   6.125  24.928  0.00  0.00    +0.180 A 
ATOM     24  O   UNL     1      -1.822   5.668  25.128  0.00  0.00    -0.449 OA
ENDBRANCH  16  20
ENDBRANCH   9  13
BRANCH   5   4
ATOM      4  N   UNL     1      -4.476  -0.624  24.338  0.00  0.00    -0.074 NA
BRANCH   4   2
ATOM      1  O   UNL     1      -4.267  -1.515  23.614  0.00  0.00    -0.151 OA
ATOM      2  S   UNL     1      -4.151  -1.379  24.419  0.00  0.00    +0.083 S 
ATOM      3  O   UNL     1      -4.035  -1.243  25.224  0.00  0.00    -0.151 OA
BRANCH   2  25
ATOM     25  C   UNL     1      -3.827  -2.133  24.499  0.00  0.00    +0.153 A 
ATOM     26  C   UNL     1      -3.887  -2.747  23.952  0.00  0.00    +0.027 A 
ATOM     27  C   UNL     1      -3.482  -3.399  24.255  0.00  0.00    +0.009 A 
ATOM     28  C   UNL     1      -3.172  -3.189  24.989  0.00  0.00    +0.037 A 
ATOM     29  S   UNL     1      -3.385  -2.405  25.141  0.00  0.00    -0.067 S 
ENDBRANCH   2  25
ENDBRANCH   4   2
ENDBRANCH   5   4
TORSDOF 5
ENDMDL
MODEL 2
REMARK VINA RESULT:      -8.9      2.585      6.224
REMARK  Name = 
REMARK  5 active torsions:
REMARK  status: ('A' for Active; 'I' for Inactive)
REMARK    1  A    between atoms: S_2  and  N_4
REMARK    2  A    between atoms: S_2  and  C_25
REMARK    3  A    between atoms: N_4  and  C_5
REMARK    4  A    between atoms: C_9  and  N_13
REMARK    5  A    between atoms: C_16  and  C_20
REMARK                            x       y       z     vdW  Elec       q    Type
REMARK                         _______ _______ _______ _____ _____    ______ ____
ROOT
ATOM      5  C   UNL     1      -0.608   2.279  24.690  0.00  0.00    +0.157 C 
ATOM      6  C   UNL     1      -0.952   2.263  23.940  0.00  0.00    +0.164 C 
ATOM      7  O   UNL     1      -1.244   1.502  23.811  0.00  0.00    -0.350 OA
ATOM      8  C   UNL     1      -1.081   1.049  24.480  0.00  0.00    +0.166 C 
ATOM      9  C   UNL     1      -1.160   0.299  24.815  0.00  0.00    +0.154 C 
ATOM     10  C   UNL     1      -0.817   0.316  25.564  0.00  0.00    +0.166 C 
ATOM     11  O   UNL     1      -0.525   1.076  25.693  0.00  0.00    -0.350 OA
ATOM     12  C   UNL     1      -0.688   1.530  25.023  0.00  0.00    +0.164 C 
ENDROOT
BRANCH   9  13
ATOM     13  N   UNL     1      -1.521  -0.354  24.461  0.00  0.00    -0.200 NA
ATOM     14  C   UNL     1      -2.202  -0.680  24.794  0.00  0.00    +0.237 A 
ATOM     15  N   UNL     1      -2.562  -1.332  24.440  0.00  0.00    -0.209 NA
ATOM     16  C   UNL     1      -3.243  -1.659  24.773  0.00  0.00    +0.120 A 
ATOM     17  C   UNL     1      -3.563  -1.333  25.460  0.00  0.00    +0.043 A 
ATOM     18  C   UNL     1      -3.202  -0.680  25.814  0.00  0.00    +0.104 A 
ATOM     19  N   UNL     1      -2.522  -0.354  25.481  0.00  0.00    -0.211 NA
BRANCH  16  20
ATOM     20  C   UNL     1      -3.603  -2.311  24.420  0.00  0.00    +0.163 A 
ATOM     21  C   UNL     1      -4.223  -2.287  23.876  0.00  0.00    +0.042 A 
ATOM     22  C   UNL     1      -4.410  -3.063  23.668  0.00  0.00    +0.044 A 
ATOM     23  C   UNL     1      -3.906  -3.566  24.083  0.00  0.00    +0.180 A 
ATOM     24  O   UNL     1      -3.407  -3.102  24.548  0.00  0.00    -0.449 OA
ENDBRANCH  16  20
ENDBRANCH   9  13
BRANCH   5   4
ATOM      4  N   UNL     1      -0.248   2.932  25.044  0.00  0.00    -0.074 NA
BRANCH   4   2
ATOM      1  O   UNL     1      -0.905   3.508  25.817  0.00  0.00    -0.151 OA
ATOM      2  S   UNL     1      -0.633   3.662  25.053  0.00  0.00    +0.083 S 
ATOM      3  O   UNL     1      -0.361   3.816  24.290  0.00  0.00    -0.151 OA
BRANCH   2  25
ATOM     25  C   UNL     1      -1.018   4.391  25.063  0.00  0.00    +0.153 A 
ATOM     26  C   UNL     1      -0.717   5.102  24.772  0.00  0.00    +0.027 A 
ATOM     27  C   UNL     1      -1.285   5.688  24.895  0.00  0.00    +0.009 A 
ATOM     28  C   UNL     1      -1.936   5.340  25.262  0.00  0.00    +0.037 A 
ATOM     29  S   UNL     1      -1.771   4.538  25.366  0.00  0.00    -0.067 S 
ENDBRANCH   2  25
ENDBRANCH   4   2
ENDBRANCH   5   4
TORSDOF 5
ENDMDL
MODEL 3
REMARK VINA RESULT:      -8.5      1.889      5.939
REMARK  Name = 
REMARK  5 active torsions:
REMARK  status: ('A' for Active; 'I' for Inactive)
REMARK    1  A    between atoms: S_2  and  N_4
REMARK    2  A    between atoms: S_2  and  C_25
REMARK    3  A    between atoms: N_4  and  C_5
REMARK    4  A    between atoms: C_9  and  N_13
REMARK    5  A    between atoms: C_16  and  C_20
REMARK                            x       y       z     vdW  Elec       q    Type
REMARK                         _______ _______ _______ _____ _____    ______ ____
ROOT
ATOM      5  C   UNL     1      -3.462   3.057  24.682  0.00  0.00    +0.157 C 
ATOM      6  C   UNL     1      -3.060   2.813  24.004  0.00  0.00    +0.164 C 
ATOM      7  O   UNL     1      -3.287   2.037  23.840  0.00  0.00    -0.350 OA
ATOM      8  C   UNL     1      -3.828   1.802  24.414  0.00  0.00    +0.166 C 
ATOM      9  C   UNL     1      -4.303   1.177  24.669  0.00  0.00    +0.154 C 
ATOM     10  C   UNL     1      -4.705   1.421  25.347  0.00  0.00    +0.166 C 
ATOM     11  O   UNL     1      -4.478   2.197  25.512  0.00  0.00    -0.350 OA
ATOM     12  C   UNL     1      -3.936   2.432  24.935  0.00  0.00    +0.164 C 
ENDROOT
BRANCH   9  13
ATOM     13  N   UNL     1      -4.365   0.437  24.308  0.00  0.00    -0.200 NA
ATOM     14  C   UNL     1      -4.061  -0.232  24.683  0.00  0.00    +0.237 A 
ATOM     15  N   UNL     1      -4.123  -0.971  24.323  0.00  0.00    -0.209 NA
ATOM     16  C   UNL     1      -3.819  -1.640  24.698  0.00  0.00    +0.120 A 
ATOM     17  C   UNL     1      -3.453  -1.570  25.434  0.00  0.00    +0.043 A 
ATOM     18  C   UNL     1      -3.391  -0.830  25.795  0.00  0.00    +0.104 A 
ATOM     19  N   UNL     1      -3.695  -0.161  25.419  0.00  0.00    -0.211 NA
BRANCH  16  20
ATOM     20  C   UNL     1      -3.881  -2.379  24.338  0.00  0.00    +0.163 A 
ATOM     21  C   UNL     1      -3.406  -3.036  24.493  0.00  0.00    +0.042 A 
ATOM     22  C   UNL     1      -3.660  -3.654  24.011  0.00  0.00    +0.044 A 
ATOM     23  C   UNL     1      -4.292  -3.380  23.557  0.00  0.00    +0.180 A 
ATOM     24  O   UNL     1      -4.429  -2.592  23.760  0.00  0.00    -0.449 OA
ENDBRANCH  16  20
ENDBRANCH   9  13
BRANCH   5   4
ATOM      4  N   UNL     1      -3.400   3.797  25.043  0.00  0.00    -0.074 NA
BRANCH   4   2
ATOM      1  O   UNL     1      -2.837   4.493  24.294  0.00  0.00    -0.151 OA
ATOM      2  S   UNL     1      -2.677   4.195  25.047  0.00  0.00    +0.083 S 
ATOM      3  O   UNL     1      -2.516   3.897  25.799  0.00  0.00    -0.151 OA
BRANCH   2  25
ATOM     25  C   UNL     1      -1.955   4.593  25.050  0.00  0.00    +0.153 A 
ATOM     26  C   UNL     1      -1.851   5.411  25.004  0.00  0.00    +0.027 A 
ATOM     27  C   UNL     1      -1.042   5.566  25.025  0.00  0.00    +0.009 A 
ATOM     28  C   UNL     1      -0.644   4.847  25.085  0.00  0.00    +0.037 A 
ATOM     29  S   UNL     1      -1.209   4.244  25.100  0.00  0.00    -0.067 S 
ENDBRANCH   2  25
ENDBRANCH   4   2
ENDBRANCH   5   4
TORSDOF 5
ENDMDL
MODEL 4
REMARK VINA RESULT:      -8.2      4.040      5.235
REMARK  Name = 
REMARK  5 active torsions:
REMARK  status: ('A' for Active; 'I' for Inactive)
REMARK    1  A    between atoms: S_2  and  N_4
REMARK    2  A    between atoms: S_2  and  C_25
REMARK    3  A    between atoms: N_4  and  C_5
REMARK    4  A    between atoms: C_9  and  N_13
REMARK    5  A    between atoms: C_16  and  C_20
REMARK                            x       y       z     vdW  Elec       q    Type
REMARK                         _______ _______ _______ _____ _____    ______ ____
ROOT
ATOM      5  C   UNL     1      -2.205   1.575  23.938  0.00  0.00    +0.157 C 
ATOM      6  C   UNL     1      -1.853   2.318  23.871  0.00  0.00    +0.164 C 
ATOM      7  O   UNL     1      -1.035   2.213  23.874  0.00  0.00    -0.350 OA
ATOM      8  C   UNL     1      -0.881   1.407  23.943  0.00  0.00    +0.166 C 
ATOM      9  C   UNL     1      -0.281   0.842  23.988  0.00  0.00    +0.154 C 
ATOM     10  C   UNL     1      -0.633   0.099  24.055  0.00  0.00    +0.166 C 
ATOM     11  O   UNL     1      -1.451   0.204  24.052  0.00  0.00    -0.350 OA
ATOM     12  C   UNL     1      -1.605   1.012  23.983  0.00  0.00    +0.164 C 
ENDROOT
BRANCH   9  13
ATOM     13  N   UNL     1       0.530   0.995  23.969  0.00  0.00    -0.200 NA
ATOM     14  C   UNL     1       1.013   0.592  23.435  0.00  0.00    +0.237 A 
ATOM     15  N   UNL     1       1.823   0.744  23.416  0.00  0.00    -0.209 NA
ATOM     16  C   UNL     1       2.307   0.342  22.882  0.00  0.00    +0.120 A 
ATOM     17  C   UNL     1       1.980  -0.214  22.368  0.00  0.00    +0.043 A 
ATOM     18  C   UNL     1       1.169  -0.366  22.387  0.00  0.00    +0.104 A 
ATOM     19  N   UNL     1       0.686   0.037  22.920  0.00  0.00    -0.211 NA
BRANCH  16  20
ATOM     20  C   UNL     1       3.117   0.494  22.863  0.00  0.00    +0.163 A 
ATOM     21  C   UNL     1       3.715  -0.030  23.086  0.00  0.00    +0.042 A 
ATOM     22  C   UNL     1       4.439   0.349  22.978  0.00  0.00    +0.044 A 
ATOM     23  C   UNL     1       4.290   1.107  22.689  0.00  0.00    +0.180 A 
ATOM     24  O   UNL     1       3.473   1.196  22.618  0.00  0.00    -0.449 OA
ENDBRANCH  16  20
ENDBRANCH   9  13
BRANCH   5   4
ATOM      4  N   UNL     1      -3.016   1.422  23.957  0.00  0.00    -0.074 NA
BRANCH   4   2
ATOM      1  O   UNL     1      -3.448   1.582  25.029  0.00  0.00    -0.151 OA
ATOM      2  S   UNL     1      -3.530   1.966  24.303  0.00  0.00    +0.083 S 
ATOM      3  O   UNL     1      -3.613   2.351  23.579  0.00  0.00    -0.151 OA
BRANCH   2  25
ATOM     25  C   UNL     1      -4.045   2.510  24.651  0.00  0.00    +0.153 A 
ATOM     26  C   UNL     1      -4.023   3.329  24.553  0.00  0.00    +0.027 A 
ATOM     27  C   UNL     1      -4.636   3.655  24.998  0.00  0.00    +0.009 A 
ATOM     28  C   UNL     1      -5.036   3.039  25.372  0.00  0.00    +0.037 A 
ATOM     29  S   UNL     1      -4.671   2.330  25.157  0.00  0.00    -0.067 S 
ENDBRANCH   2  25
ENDBRANCH   4   2
ENDBRANCH   5   4
TORSDOF 5
ENDMDL
MODEL 5
REMARK VINA RESULT:      -7.9      3.734      5.110
REMARK  Name = 
REMARK  5 active torsions:
REMARK  status: ('A' for Active; 'I' for Inactive)
REMARK    1  A    between atoms: S_2  and  N_4
REMARK    2  A    between atoms: S_2  and  C_25
REMARK    3  A    between atoms: N_4  and  C_5
REMARK    4  A    between atoms: C_9  and  N_13
REMARK    5  A    between atoms: C_16  and  C_20
REMARK                            x       y       z     vdW  Elec       q    Type
REMARK                         _______ _______ _______ _____ _____    ______ ____
ROOT
ATOM      5  C   UNL     1       0.355   0.137  23.480  0.00  0.00    +0.157 C 
ATOM      6  C   UNL     1       0.365   0.957  23.393  0.00  0.00    +0.164 C 
ATOM      7  O   UNL     1      -0.293   1.263  23.785  0.00  0.00    -0.350 OA
ATOM      8  C   UNL     1      -0.710   0.633  24.115  0.00  0.00    +0.166 C 
ATOM      9  C   UNL     1      -1.374   0.431  24.560  0.00  0.00    +0.154 C 
ATOM     10  C   UNL     1      -1.385  -0.389  24.647  0.00  0.00    +0.166 C 
ATOM     11  O   UNL     1      -0.727  -0.695  24.255  0.00  0.00    -0.350 OA
ATOM     12  C   UNL     1      -0.309  -0.064  23.926  0.00  0.00    +0.164 C 
ENDROOT
BRANCH   9  13
ATOM     13  N   UNL     1      -1.931   0.958  24.866  0.00  0.00    -0.200 NA
ATOM     14  C   UNL     1      -2.730   0.865  24.684  0.00  0.00    +0.237 A 
ATOM     15  N   UNL     1      -3.287   1.392  24.989  0.00  0.00    -0.209 NA
ATOM     16  C   UNL     1      -4.086   1.299  24.808  0.00  0.00    +0.120 A 
ATOM     17  C   UNL     1      -4.329   0.679  24.321  0.00  0.00    +0.043 A 
ATOM     18  C   UNL     1      -3.772   0.151  24.015  0.00  0.00    +0.104 A 
ATOM     19  N   UNL     1      -2.973   0.245  24.197  0.00  0.00    -0.211 NA
BRANCH  16  20
ATOM     20  C   UNL     1      -4.643   1.825  25.113  0.00  0.00    +0.163 A 
ATOM     21  C   UNL     1      -5.379   1.625  25.427  0.00  0.00    +0.042 A 
ATOM     22  C   UNL     1      -5.752   2.320  25.666  0.00  0.00    +0.044 A 
ATOM     23  C   UNL     1      -5.248   2.950  25.499  0.00  0.00    +0.180 A 
ATOM     24  O   UNL     1      -4.562   2.644  25.157  0.00  0.00    -0.449 OA
ENDBRANCH  16  20
ENDBRANCH   9  13
BRANCH   5   4
ATOM      4  N   UNL     1       0.911  -0.390  23.175  0.00  0.00    -0.074 NA
BRANCH   4   2
ATOM      1  O   UNL     1       1.951  -0.233  23.681  0.00  0.00    -0.151 OA
ATOM      2  S   UNL     1       1.647  -0.114  22.924  0.00  0.00    +0.083 S 
ATOM      3  O   UNL     1       1.344   0.006  22.166  0.00  0.00    -0.151 OA
BRANCH   2  25
ATOM     25  C   UNL     1       2.383   0.162  22.673  0.00  0.00    +0.153 A 
ATOM     26  C   UNL     1       2.883   0.665  23.097  0.00  0.00    +0.027 A 
ATOM     27  C   UNL     1       3.557   0.797  22.641  0.00  0.00    +0.009 A 
ATOM     28  C   UNL     1       3.475   0.378  21.936  0.00  0.00    +0.037 A 
ATOM     29  S   UNL     1       2.749  -0.015  21.956  0.00  0.00    -0.067 S 
ENDBRANCH   2  25
ENDBRANCH   4   2
ENDBRANCH   5   4
TORSDOF 5
ENDMDL
MODEL 6
REMARK VINA RESULT:      -7.7      1.998      2.450
REMARK  Name = 
REMARK  5 active torsions:
REMARK  status: ('A' for Active; 'I' for Inactive)
REMARK    1  A    between atoms: S_2  and  N_4
REMARK    2  A    between atoms: S_2  and  C_25
REMARK    3  A    between atoms: N_4  and  C_5
REMARK    4  A    between atoms: C_9  and  N_13
REMARK    5  A    between atoms: C_16  and  C_20
REMARK                            x       y       z     vdW  Elec       q    Type
REMARK                         _______ _______ _______ _____ _____    ______ ____
ROOT
ATOM      5  C   UNL     1      -1.363  -1.118  25.176  0.00  0.00    +0.157 C 
ATOM      6  C   UNL     1      -1.692  -0.771  25.848  0.00  0.00    +0.164 C 
ATOM      7  O   UNL     1      -1.464   0.021  25.863  0.00  0.00    -0.350 OA
ATOM      8  C   UNL     1      -0.994   0.165  25.201  0.00  0.00    +0.166 C 
ATOM      9  C   UNL     1      -0.561   0.742  24.801  0.00  0.00    +0.154 C 
ATOM     10  C   UNL     1      -0.232   0.395  24.129  0.00  0.00    +0.166 C 
ATOM     11  O   UNL     1      -0.460  -0.397  24.114  0.00  0.00    -0.350 OA
ATOM     12  C   UNL     1      -0.931  -0.540  24.777  0.00  0.00    +0.164 C 
ENDROOT
BRANCH   9  13
ATOM     13  N   UNL     1      -0.474   1.529  25.032  0.00  0.00    -0.200 NA
ATOM     14  C   UNL     1      -0.895   2.123  24.642  0.00  0.00    +0.237 A 
ATOM     15  N   UNL     1      -0.808   2.910  24.873  0.00  0.00    -0.209 NA
ATOM     16  C   UNL     1      -1.228   3.504  24.483  0.00  0.00    +0.120 A 
ATOM     17  C   UNL     1      -1.735   3.310  23.862  0.00  0.00    +0.043 A 
ATOM     18  C   UNL     1      -1.822   2.522  23.631  0.00  0.00    +0.104 A 
ATOM     19  N   UNL     1      -1.402   1.929  24.021  0.00  0.00    -0.211 NA
BRANCH  16  20
ATOM     20  C   UNL     1      -1.141   4.290  24.714  0.00  0.00    +0.163 A 
ATOM     21  C   UNL     1      -1.682   4.728  25.160  0.00  0.00    +0.042 A 
ATOM     22  C   UNL     1      -1.373   5.486  25.261  0.00  0.00    +0.044 A 
ATOM     23  C   UNL     1      -0.643   5.517  24.879  0.00  0.00    +0.180 A 
ATOM     24  O   UNL     1      -0.500   4.779  24.542  0.00  0.00    -0.449 OA
ENDBRANCH  16  20
ENDBRANCH   9  13
BRANCH   5   4
ATOM      4  N   UNL     1      -1.450  -1.905  24.945  0.00  0.00    -0.074 NA
BRANCH   4   2
ATOM      1  O   UNL     1      -1.930  -2.262  23.943  0.00  0.00    -0.151 OA
ATOM      2  S   UNL     1      -2.191  -2.191  24.722  0.00  0.00    +0.083 S 
ATOM      3  O   UNL     1      -2.453  -2.120  25.501  0.00  0.00    -0.151 OA
BRANCH   2  25
ATOM     25  C   UNL     1      -2.932  -2.476  24.499  0.00  0.00    +0.153 A 
ATOM     26  C   UNL     1      -3.490  -2.073  24.044  0.00  0.00    +0.027 A 
ATOM     27  C   UNL     1      -4.148  -2.563  23.956  0.00  0.00    +0.009 A 
ATOM     28  C   UNL     1      -3.998  -3.268  24.356  0.00  0.00    +0.037 A 
ATOM     29  S   UNL     1      -3.246  -3.215  24.692  0.00  0.00    -0.067 S 
ENDBRANCH   2  25
ENDBRANCH   4   2
ENDBRANCH   5   4
TORSDOF 5
ENDMDL
MODEL 7
REMARK VINA RESULT:      -7.7      3.982      4.577
REMARK  Name = 
REMARK  5 active torsions:
REMARK  status: ('A' for Active; 'I' for Inactive)
REMARK    1  A    between atoms: S_2  and  N_4
REMARK    2  A    between atoms: S_2  and  C_25
REMARK    3  A    between atoms: N_4  and  C_5
REMARK    4  A    between atoms: C_9  and  N_13
REMARK    5  A    between atoms: C_16  and  C_20
REMARK                            x       y       z     vdW  Elec       q    Type
REMARK                         _______ _______ _______ _____ _____    ______ ____
ROOT
ATOM      5  C   UNL     1      -1.882   0.034  24.878  0.00  0.00    +0.157 C 
ATOM      6  C   UNL     1      -1.371  -0.336  25.410  0.00  0.00    +0.164 C 
ATOM      7  O   UNL     1      -0.601  -0.112  25.220  0.00  0.00    -0.350 OA
ATOM      8  C   UNL     1      -0.634   0.395  24.571  0.00  0.00    +0.166 C 
ATOM      9  C   UNL     1      -0.180   0.847  24.052  0.00  0.00    +0.154 C 
ATOM     10  C   UNL     1      -0.690   1.216  23.519  0.00  0.00    +0.166 C 
ATOM     11  O   UNL     1      -1.461   0.992  23.710  0.00  0.00    -0.350 OA
ATOM     12  C   UNL     1      -1.427   0.485  24.360  0.00  0.00    +0.164 C 
ENDROOT
BRANCH   9  13
ATOM     13  N   UNL     1       0.642   0.917  24.063  0.00  0.00    -0.200 NA
ATOM     14  C   UNL     1       1.094   0.581  23.459  0.00  0.00    +0.237 A 
ATOM     15  N   UNL     1       1.915   0.650  23.470  0.00  0.00    -0.209 NA
ATOM     16  C   UNL     1       2.367   0.314  22.867  0.00  0.00    +0.120 A 
ATOM     17  C   UNL     1       1.996  -0.092  22.252  0.00  0.00    +0.043 A 
ATOM     18  C   UNL     1       1.173  -0.162  22.241  0.00  0.00    +0.104 A 
ATOM     19  N   UNL     1       0.723   0.175  22.845  0.00  0.00    -0.211 NA
BRANCH  16  20
ATOM     20  C   UNL     1       3.188   0.384  22.878  0.00  0.00    +0.163 A 
ATOM     21  C   UNL     1       3.621   1.051  22.657  0.00  0.00    +0.042 A 
ATOM     22  C   UNL     1       4.422   0.879  22.754  0.00  0.00    +0.044 A 
ATOM     23  C   UNL     1       4.484   0.106  23.035  0.00  0.00    +0.180 A 
ATOM     24  O   UNL     1       3.721  -0.200  23.111  0.00  0.00    -0.449 OA
ENDBRANCH  16  20
ENDBRANCH   9  13
BRANCH   5   4
ATOM      4  N   UNL     1      -2.704  -0.036  24.867  0.00  0.00    -0.074 NA
BRANCH   4   2
ATOM      1  O   UNL     1      -3.211  -0.542  23.946  0.00  0.00    -0.151 OA
ATOM      2  S   UNL     1      -3.054  -0.770  24.723  0.00  0.00    +0.083 S 
ATOM      3  O   UNL     1      -2.898  -0.998  25.500  0.00  0.00    -0.151 OA
BRANCH   2  25
ATOM     25  C   UNL     1      -3.404  -1.502  24.579  0.00  0.00    +0.153 A 
ATOM     26  C   UNL     1      -3.224  -2.211  24.962  0.00  0.00    +0.027 A 
ATOM     27  C   UNL     1      -3.704  -2.801  24.646  0.00  0.00    +0.009 A 
ATOM     28  C   UNL     1      -4.182  -2.460  24.067  0.00  0.00    +0.037 A 
ATOM     29  S   UNL     1      -3.996  -1.657  24.025  0.00  0.00    -0.067 S 
ENDBRANCH   2  25
ENDBRANCH   4   2
ENDBRANCH   5   4
TORSDOF 5
ENDMDL
MODEL 8
REMARK VINA RESULT:      -7.7      3.243      4.789
REMARK  Name = 
REMARK  5 active torsions:
REMARK  status: ('A' for Active; 'I' for Inactive)
REMARK    1  A    between atoms: S_2  and  N_4
REMARK    2  A    between atoms: S_2  and  C_25
REMARK    3  A    between atoms: N_4  and  C_5
REMARK    4  A    between atoms: C_9  and  N_13
REMARK    5  A    between atoms: C_16  and  C_20
REMARK                            x       y       z     vdW  Elec       q    Type
REMARK                         _______ _______ _______ _____ _____    ______ ____
ROOT
ATOM      5  C   UNL     1      -2.826   3.090  24.949  0.00  0.00    +0.157 C 
ATOM      6  C   UNL     1      -2.838   3.166  24.128  0.00  0.00    +0.164 C 
ATOM      7  O   UNL     1      -2.114   2.900  23.838  0.00  0.00    -0.350 OA
ATOM      8  C   UNL     1      -1.654   2.660  24.478  0.00  0.00    +0.166 C 
ATOM      9  C   UNL     1      -0.922   2.347  24.696  0.00  0.00    +0.154 C 
ATOM     10  C   UNL     1      -0.910   2.271  25.517  0.00  0.00    +0.166 C 
ATOM     11  O   UNL     1      -1.635   2.537  25.808  0.00  0.00    -0.350 OA
ATOM     12  C   UNL     1      -2.095   2.777  25.166  0.00  0.00    +0.164 C 
ENDROOT
BRANCH   9  13
ATOM     13  N   UNL     1      -0.309   2.146  24.181  0.00  0.00    -0.200 NA
ATOM     14  C   UNL     1      -0.109   1.353  24.068  0.00  0.00    +0.237 A 
ATOM     15  N   UNL     1       0.503   1.152  23.554  0.00  0.00    -0.209 NA
ATOM     16  C   UNL     1       0.703   0.359  23.440  0.00  0.00    +0.120 A 
ATOM     17  C   UNL     1       0.290  -0.232  23.840  0.00  0.00    +0.043 A 
ATOM     18  C   UNL     1      -0.323  -0.030  24.355  0.00  0.00    +0.104 A 
ATOM     19  N   UNL     1      -0.522   0.762  24.468  0.00  0.00    -0.211 NA
BRANCH  16  20
ATOM     20  C   UNL     1       1.315   0.158  22.926  0.00  0.00    +0.163 A 
ATOM     21  C   UNL     1       1.242  -0.286  22.233  0.00  0.00    +0.042 A 
ATOM     22  C   UNL     1       1.990  -0.353  21.893  0.00  0.00    +0.044 A 
ATOM     23  C   UNL     1       2.526   0.048  22.374  0.00  0.00    +0.180 A 
ATOM     24  O   UNL     1       2.109   0.364  23.012  0.00  0.00    -0.449 OA
ENDBRANCH  16  20
ENDBRANCH   9  13
BRANCH   5   4
ATOM      4  N   UNL     1      -3.439   3.291  25.464  0.00  0.00    -0.074 NA
BRANCH   4   2
ATOM      1  O   UNL     1      -3.989   2.361  25.904  0.00  0.00    -0.151 OA
ATOM      2  S   UNL     1      -4.187   2.955  25.367  0.00  0.00    +0.083 S 
ATOM      3  O   UNL     1      -4.385   3.550  24.831  0.00  0.00    -0.151 OA
BRANCH   2  25
ATOM     25  C   UNL     1      -4.934   2.619  25.271  0.00  0.00    +0.153 A 
ATOM     26  C   UNL     1      -5.125   2.000  24.760  0.00  0.00    +0.027 A 
ATOM     27  C   UNL     1      -5.930   1.841  24.842  0.00  0.00    +0.009 A 
ATOM     28  C   UNL     1      -6.237   2.361  25.403  0.00  0.00    +0.037 A 
ATOM     29  S   UNL     1      -5.621   2.842  25.668  0.00  0.00    -0.067 S 
ENDBRANCH   2  25
ENDBRANCH   4   2
ENDBRANCH   5   4
TORSDOF 5
ENDMDL
MODEL 9
REMARK VINA RESULT:      -6.9     17.562     18.889
REMARK  Name = 
REMARK  5 active torsions:
REMARK  status: ('A' for Active; 'I' for Inactive)
REMARK    1  A    between atoms: S_2  and  N_4
REMARK    2  A    between atoms: S_2  and  C_25
REMARK    3  A    between atoms: N_4  and  C_5
REMARK    4  A    between atoms: C_9  and  N_13
REMARK    5  A    between atoms: C_16  and  C_20
REMARK                            x       y       z     vdW  Elec       q    Type
REMARK                         _______ _______ _______ _____ _____    ______ ____
ROOT
ATOM      5  C   UNL     1      -7.307  -8.225   8.765  0.00  0.00    +0.157 C 
ATOM      6  C   UNL     1      -7.523  -8.156   9.558  0.00  0.00    +0.164 C 
ATOM      7  O   UNL     1      -6.982  -8.586  10.007  0.00  0.00    -0.350 OA
ATOM      8  C   UNL     1      -6.432  -8.921   9.493  0.00  0.00    +0.166 C 
ATOM      9  C   UNL     1      -5.758  -9.395   9.452  0.00  0.00    +0.154 C 
ATOM     10  C   UNL     1      -5.542  -9.464   8.659  0.00  0.00    +0.166 C 
ATOM     11  O   UNL     1      -6.083  -9.033   8.210  0.00  0.00    -0.350 OA
ATOM     12  C   UNL     1      -6.633  -8.698   8.725  0.00  0.00    +0.164 C 
ENDROOT
BRANCH   9  13
ATOM     13  N   UNL     1      -5.367  -9.739  10.093  0.00  0.00    -0.200 NA
ATOM     14  C   UNL     1      -4.557  -9.622  10.193  0.00  0.00    +0.237 A 
ATOM     15  N   UNL     1      -4.167  -9.966  10.833  0.00  0.00    -0.209 NA
ATOM     16  C   UNL     1      -3.356  -9.849  10.934  0.00  0.00    +0.120 A 
ATOM     17  C   UNL     1      -2.936  -9.389  10.394  0.00  0.00    +0.043 A 
ATOM     18  C   UNL     1      -3.326  -9.045   9.753  0.00  0.00    +0.104 A 
ATOM     19  N   UNL     1      -4.136  -9.162   9.653  0.00  0.00    -0.211 NA
BRANCH  16  20
ATOM     20  C   UNL     1      -2.966 -10.193  11.574  0.00  0.00    +0.163 A 
ATOM     21  C   UNL     1      -2.196 -10.491  11.570  0.00  0.00    +0.042 A 
ATOM     22  C   UNL     1      -2.031 -10.781  12.324  0.00  0.00    +0.044 A 
ATOM     23  C   UNL     1      -2.698 -10.663  12.794  0.00  0.00    +0.180 A 
ATOM     24  O   UNL     1      -3.276 -10.299  12.330  0.00  0.00    -0.449 OA
ENDBRANCH  16  20
ENDBRANCH   9  13
BRANCH   5   4
ATOM      4  N   UNL     1      -7.697  -7.881   8.124  0.00  0.00    -0.074 NA
BRANCH   4   2
ATOM      1  O   UNL     1      -8.853  -7.864   8.288  0.00  0.00    -0.151 OA
ATOM      2  S   UNL     1      -8.260  -7.291   8.252  0.00  0.00    +0.083 S 
ATOM      3  O   UNL     1      -7.668  -6.717   8.217  0.00  0.00    -0.151 OA
BRANCH   2  25
ATOM     25  C   UNL     1      -8.824  -6.702   8.380  0.00  0.00    +0.153 A 
ATOM     26  C   UNL     1      -8.684  -5.888   8.374  0.00  0.00    +0.027 A 
ATOM     27  C   UNL     1      -9.399  -5.507   8.526  0.00  0.00    +0.009 A 
ATOM     28  C   UNL     1      -9.981  -6.083   8.626  0.00  0.00    +0.037 A 
ATOM     29  S   UNL     1      -9.625  -6.822   8.535  0.00  0.00    -0.067 S 
ENDBRANCH   2  25
ENDBRANCH   4   2
ENDBRANCH   5   4
TORSDOF 5
ENDMDL
MODEL 10
REMARK VINA RESULT:      -6.7     14.569     16.748
REMARK  Name = 
REMARK  5 active torsions:
REMARK  status: ('A' for Active; 'I' for Inactive)
REMARK    1  A    between atoms: S_2  and  N_4
REMARK    2  A    between atoms: S_2  and  C_25
REMARK    3  A    between atoms: N_4  and  C_5
REMARK    4  A    between atoms: C_9  and  N_13
REMARK    5  A    between atoms: C_16  and  C_20
REMARK                            x       y       z     vdW  Elec       q    Type
REMARK                         _______ _______ _______ _____ _____    ______ ____
ROOT
ATOM      5  C   UNL     1      -4.696  -9.986  11.987  0.00  0.00    +0.157 C 
ATOM      6  C   UNL     1      -5.371  -9.544  11.817  0.00  0.00    +0.164 C 
ATOM      7  O   UNL     1      -5.867  -9.574  12.476  0.00  0.00    -0.350 OA
ATOM      8  C   UNL     1      -5.499 -10.034  13.052  0.00  0.00    +0.166 C 
ATOM      9  C   UNL     1      -5.577 -10.337  13.816  0.00  0.00    +0.154 C 
ATOM     10  C   UNL     1      -4.901 -10.779  13.986  0.00  0.00    +0.166 C 
ATOM     11  O   UNL     1      -4.406 -10.750  13.327  0.00  0.00    -0.350 OA
ATOM     12  C   UNL     1      -4.775 -10.289  12.750  0.00  0.00    +0.164 C 
ENDROOT
BRANCH   9  13
ATOM     13  N   UNL     1      -6.218 -10.219  14.321  0.00  0.00    -0.200 NA
ATOM     14  C   UNL     1      -6.090 -10.034  15.115  0.00  0.00    +0.237 A 
ATOM     15  N   UNL     1      -6.731  -9.915  15.620  0.00  0.00    -0.209 NA
ATOM     16  C   UNL     1      -6.603  -9.730  16.414  0.00  0.00    +0.120 A 
ATOM     17  C   UNL     1      -5.833  -9.664  16.702  0.00  0.00    +0.043 A 
ATOM     18  C   UNL     1      -5.191  -9.783  16.197  0.00  0.00    +0.104 A 
ATOM     19  N   UNL     1      -5.320  -9.967  15.403  0.00  0.00    -0.211 NA
BRANCH  16  20
ATOM     20  C   UNL     1      -7.244  -9.612  16.919  0.00  0.00    +0.163 A 
ATOM     21  C   UNL     1      -7.493 -10.125  17.515  0.00  0.00    +0.042 A 
ATOM     22  C   UNL     1      -8.151  -9.790  17.881  0.00  0.00    +0.044 A 
ATOM     23  C   UNL     1      -8.309  -9.070  17.512  0.00  0.00    +0.180 A 
ATOM     24  O   UNL     1      -7.748  -8.960  16.917  0.00  0.00    -0.449 OA
ENDBRANCH  16  20
ENDBRANCH   9  13
BRANCH   5   4
ATOM      4  N   UNL     1      -4.054 -10.105  11.482  0.00  0.00    -0.074 NA
BRANCH   4   2
ATOM      1  O   UNL     1      -3.882  -9.180  10.792  0.00  0.00    -0.151 OA
ATOM      2  S   UNL     1      -4.132  -9.957  10.674  0.00  0.00    +0.083 S 
ATOM      3  O   UNL     1      -4.383 -10.734  10.555  0.00  0.00    -0.151 OA
BRANCH   2  25
ATOM     25  C   UNL     1      -4.210  -9.809   9.866  0.00  0.00    +0.153 A 
ATOM     26  C   UNL     1      -4.086  -9.083   9.492  0.00  0.00    +0.027 A 
ATOM     27  C   UNL     1      -4.225  -9.186   8.686  0.00  0.00    +0.009 A 
ATOM     28  C   UNL     1      -4.434  -9.973   8.560  0.00  0.00    +0.037 A 
ATOM     29  S   UNL     1      -4.424 -10.359   9.290  0.00  0.00    -0.067 S 
ENDBRANCH   2  25
ENDBRANCH   4   2
ENDBRANCH   5   4
TORSDOF 5
ENDMDL
