REMARK  Name = 
REMARK  12 active torsions:
REMARK  status: ('A' for Active; 'I' for Inactive)
REMARK    1  A    between atoms: C_2  and  C_4
REMARK    2  A    between atoms: C_4  and  C_5
REMARK    3  A    between atoms: C_4  and  N_15
REMARK    4  A    between atoms: C_5  and  C_6
REMARK    5  A    between atoms: C_16  and  C_18
REMARK    6  A    between atoms: C_20  and  N_32
REMARK    7  A    between atoms: C_24  and  C_26
REMARK    8  A    between atoms: C_26  and  O_27
REMARK    9  A    between atoms: O_27  and  C_28
REMARK   10  A    between atoms: C_28  and  C_29
REMARK   11  A    between atoms: N_32  and  S_33
REMARK   12  A    between atoms: S_33  and  C_36
REMARK                            x       y       z     vdW  Elec       q    Type
REMARK                         _______ _______ _______ _____ _____    ______ ____
ROOT
ATOM     18  C   UNL     1      -2.084  -2.734   0.000  0.00  0.00    +0.155 C 
ATOM     19  C   UNL     1      -2.799  -3.147   0.000  0.00  0.00    +0.049 C 
ATOM     20  C   UNL     1      -2.799  -3.972   0.000  0.00  0.00    +0.102 C 
ATOM     21  C   UNL     1      -2.084  -4.384   0.000  0.00  0.00    +0.041 C 
ATOM     22  C   UNL     1      -1.370  -3.972   0.000  0.00  0.00    +0.095 C 
ATOM     23  N   UNL     1      -1.370  -3.147   0.000  0.00  0.00    -0.271 N 
ATOM     24  C   UNL     1      -0.655  -2.734   0.000  0.00  0.00    +0.256 C 
ATOM     25  O   UNL     1      -0.655  -1.909   0.000  0.00  0.00    -0.272 OA
ENDROOT
BRANCH  18  16
ATOM     15  N   UNL     1      -1.370  -1.497   0.000  0.00  0.00    -0.196 NA
ATOM     16  C   UNL     1      -2.084  -1.909   0.000  0.00  0.00    +0.260 C 
ATOM     17  O   UNL     1      -2.799  -1.497   0.000  0.00  0.00    -0.272 OA
BRANCH  15   4
ATOM      4  C   UNL     1      -1.370  -0.672   0.000  0.00  0.00    +0.179 C 
BRANCH   4   2
ATOM      1  N   UNL     1      -2.799  -0.672   0.000  0.00  0.00    -0.086 NA
ATOM      2  C   UNL     1      -2.084  -0.259   0.000  0.00  0.00    +0.281 C 
ATOM      3  O   UNL     1      -2.084   0.566   0.000  0.00  0.00    -0.270 OA
ENDBRANCH   4   2
BRANCH   4   5
ATOM      5  C   UNL     1      -0.655  -0.259   0.000  0.00  0.00    +0.059 C 
BRANCH   5   6
ATOM      6  C   UNL     1       0.059  -0.672   0.000  0.00  0.00    +0.001 A 
ATOM      7  C   UNL     1       0.145  -1.492   0.000  0.00  0.00    +0.095 A 
ATOM      8  N   UNL     1       0.952  -1.664   0.000  0.00  0.00    -0.244 NA
ATOM      9  C   UNL     1       1.365  -0.949   0.000  0.00  0.00    +0.081 A 
ATOM     10  C   UNL     1       0.813  -0.336   0.000  0.00  0.00    +0.015 A 
ATOM     11  C   UNL     1       1.068   0.448   0.000  0.00  0.00    +0.001 A 
ATOM     12  C   UNL     1       1.875   0.620   0.000  0.00  0.00    +0.000 A 
ATOM     13  C   UNL     1       2.427   0.007   0.000  0.00  0.00    +0.002 A 
ATOM     14  C   UNL     1       2.172  -0.778   0.000  0.00  0.00    +0.019 A 
ENDBRANCH   5   6
ENDBRANCH   4   5
ENDBRANCH  15   4
ENDBRANCH  18  16
BRANCH  24  26
ATOM     26  C   UNL     1       0.059  -3.147   0.000  0.00  0.00    +0.228 C 
BRANCH  26  27
ATOM     27  O   UNL     1       0.774  -2.734   0.000  0.00  0.00    -0.333 OA
BRANCH  27  28
ATOM     28  C   UNL     1       1.488  -3.147   0.000  0.00  0.00    +0.257 C 
BRANCH  28  29
ATOM     29  C   UNL     1       2.203  -2.734   0.000  0.00  0.00    +0.394 C 
ATOM     30  O   UNL     1       2.917  -3.147   0.000  0.00  0.00    -0.243 OA
ATOM     31  O   UNL     1       2.203  -1.909   0.000  0.00  0.00    -0.243 OA
ENDBRANCH  28  29
ENDBRANCH  27  28
ENDBRANCH  26  27
ENDBRANCH  24  26
BRANCH  20  32
ATOM     32  N   UNL     1      -3.513  -4.384   0.000  0.00  0.00    -0.079 NA
BRANCH  32  33
ATOM     33  S   UNL     1      -3.513  -5.209   0.000  0.00  0.00    +0.082 S 
ATOM     34  O   UNL     1      -2.688  -5.209   0.000  0.00  0.00    -0.151 OA
ATOM     35  O   UNL     1      -4.338  -5.209   0.000  0.00  0.00    -0.151 OA
BRANCH  33  36
ATOM     36  C   UNL     1      -3.513  -6.034   0.000  0.00  0.00    +0.153 A 
ATOM     37  C   UNL     1      -2.846  -6.519   0.000  0.00  0.00    +0.027 A 
ATOM     38  C   UNL     1      -3.101  -7.304   0.000  0.00  0.00    +0.009 A 
ATOM     39  C   UNL     1      -3.926  -7.304   0.000  0.00  0.00    +0.037 A 
ATOM     40  S   UNL     1      -4.181  -6.519   0.000  0.00  0.00    -0.067 S 
ENDBRANCH  33  36
ENDBRANCH  32  33
ENDBRANCH  20  32
TORSDOF 12
