REMARK  Name = 
REMARK  6 active torsions:
REMARK  status: ('A' for Active; 'I' for Inactive)
REMARK    1  A    between atoms: C_2  and  C_3
REMARK    2  A    between atoms: C_2  and  C_21
REMARK    3  A    between atoms: C_10  and  N_11
REMARK    4  A    between atoms: N_11  and  S_12
REMARK    5  A    between atoms: N_23  and  C_24
REMARK    6  A    between atoms: C_24  and  C_25
REMARK                            x       y       z     vdW  Elec       q    Type
REMARK                         _______ _______ _______ _____ _____    ______ ____
ROOT
ATOM      3  C   UNL     1       2.143  -1.238   0.000  0.00  0.00    +0.039 C 
ATOM      4  C   UNL     1       1.429  -1.650   0.000  0.00  0.00    +0.003 C 
ATOM      5  C   UNL     1       0.715  -1.238   0.000  0.00  0.00    +0.000 C 
ATOM      6  C   UNL     1       0.715  -0.412   0.000  0.00  0.00    +0.002 C 
ATOM      7  C   UNL     1       0.000  -0.825   0.000  0.00  0.00    +0.000 C 
ATOM      8  C   UNL     1       0.000   0.000   0.000  0.00  0.00    +0.002 C 
ATOM      9  C   UNL     1       0.000   0.825   0.000  0.00  0.00    +0.019 C 
ATOM     10  C   UNL     1       0.715   1.238   0.000  0.00  0.00    +0.097 C 
ATOM     16  C   UNL     1       1.429   0.825   0.000  0.00  0.00    +0.020 C 
ATOM     17  C   UNL     1       2.143   1.238   0.000  0.00  0.00    +0.002 C 
ATOM     18  C   UNL     1       1.429   0.000   0.000  0.00  0.00    +0.032 C 
ATOM     19  C   UNL     1       2.143  -0.412   0.000  0.00  0.00    +0.152 C 
ATOM     20  O   UNL     1       2.858   0.000   0.000  0.00  0.00    -0.223 OA
ENDROOT
BRANCH   3   2
ATOM      1  C   UNL     1       2.858  -2.475   0.000  0.00  0.00    +0.010 C 
ATOM      2  C   UNL     1       2.858  -1.650   0.000  0.00  0.00    +0.081 C 
BRANCH   2  21
ATOM     21  C   UNL     1       3.572  -1.238   0.000  0.00  0.00    +0.241 C 
ATOM     22  O   UNL     1       3.572  -0.412   0.000  0.00  0.00    -0.273 OA
ATOM     23  N   UNL     1       4.287  -1.650   0.000  0.00  0.00    -0.201 NA
BRANCH  23  24
ATOM     24  C   UNL     1       5.001  -1.238   0.000  0.00  0.00    +0.143 C 
BRANCH  24  25
ATOM     25  C   UNL     1       5.716  -1.650   0.000  0.00  0.00    +0.019 A 
ATOM     26  C   UNL     1       6.430  -1.238   0.000  0.00  0.00    +0.001 A 
ATOM     27  C   UNL     1       7.145  -1.650   0.000  0.00  0.00    +0.020 A 
ATOM     28  C   UNL     1       7.145  -2.475   0.000  0.00  0.00    +0.099 A 
ATOM     29  N   UNL     1       6.430  -2.888   0.000  0.00  0.00    -0.243 NA
ATOM     30  C   UNL     1       5.716  -2.475   0.000  0.00  0.00    +0.096 A 
ENDBRANCH  24  25
ENDBRANCH  23  24
ENDBRANCH   2  21
ENDBRANCH   3   2
BRANCH  10  11
ATOM     11  N   UNL     1       0.715   2.062   0.000  0.00  0.00    -0.083 NA
BRANCH  11  12
ATOM     12  S   UNL     1       0.000   2.475   0.000  0.00  0.00    +0.059 S 
ATOM     13  C   UNL     1      -0.715   2.888   0.000  0.00  0.00    +0.197 C 
ATOM     14  O   UNL     1      -0.412   1.760   0.000  0.00  0.00    -0.156 OA
ATOM     15  O   UNL     1       0.412   3.189   0.000  0.00  0.00    -0.156 OA
ENDBRANCH  11  12
ENDBRANCH  10  11
TORSDOF 6
