MODEL 1
REMARK VINA RESULT:     -14.5      0.000      0.000
REMARK  Name = 
REMARK  4 active torsions:
REMARK  status: ('A' for Active; 'I' for Inactive)
REMARK    1  A    between atoms: C_2  and  C_3
REMARK    2  A    between atoms: C_2  and  C_25
REMARK    3  A    between atoms: C_10  and  N_11
REMARK    4  A    between atoms: C_12  and  C_14
REMARK                            x       y       z     vdW  Elec       q    Type
REMARK                         _______ _______ _______ _____ _____    ______ ____
ROOT
ATOM      3  C   UNL     1      -4.522   0.630  24.839  0.00  0.00    +0.039 C 
ATOM      4  C   UNL     1      -5.195   0.901  25.235  0.00  0.00    +0.003 C 
ATOM      5  C   UNL     1      -5.257   1.696  25.446  0.00  0.00    +0.000 C 
ATOM      6  C   UNL     1      -4.647   2.220  25.264  0.00  0.00    +0.002 C 
ATOM      7  C   UNL     1      -5.318   2.490  25.658  0.00  0.00    +0.000 C 
ATOM      8  C   UNL     1      -4.708   3.015  25.475  0.00  0.00    +0.002 C 
ATOM      9  C   UNL     1      -4.099   3.539  25.293  0.00  0.00    +0.022 C 
ATOM     10  C   UNL     1      -3.426   3.268  24.898  0.00  0.00    +0.096 C 
ATOM     20  C   UNL     1      -3.364   2.474  24.686  0.00  0.00    +0.022 C 
ATOM     21  C   UNL     1      -2.692   2.203  24.291  0.00  0.00    +0.002 C 
ATOM     22  C   UNL     1      -3.974   1.949  24.869  0.00  0.00    +0.032 C 
ATOM     23  C   UNL     1      -3.913   1.154  24.657  0.00  0.00    +0.152 C 
ATOM     24  O   UNL     1      -3.241   0.884  24.262  0.00  0.00    -0.223 OA
ENDROOT
BRANCH  10  11
ATOM     11  N   UNL     1      -2.816   3.793  24.715  0.00  0.00    -0.203 NA
ATOM     12  C   UNL     1      -2.398   4.166  25.320  0.00  0.00    +0.265 C 
ATOM     13  O   UNL     1      -2.589   4.015  26.109  0.00  0.00    -0.268 OA
BRANCH  12  14
ATOM     14  C   UNL     1      -1.788   4.691  25.137  0.00  0.00    +0.055 A 
ATOM     15  C   UNL     1      -1.942   5.499  25.079  0.00  0.00    +0.005 A 
ATOM     16  C   UNL     1      -1.332   6.024  24.897  0.00  0.00    +0.000 A 
ATOM     17  C   UNL     1      -0.567   5.740  24.772  0.00  0.00    +0.000 A 
ATOM     18  C   UNL     1      -0.413   4.931  24.830  0.00  0.00    +0.000 A 
ATOM     19  C   UNL     1      -1.023   4.407  25.012  0.00  0.00    +0.005 A 
ENDBRANCH  12  14
ENDBRANCH  10  11
BRANCH   3   2
ATOM      1  C   UNL     1      -4.731  -0.419  23.890  0.00  0.00    +0.010 C 
ATOM      2  C   UNL     1      -4.461  -0.165  24.628  0.00  0.00    +0.079 C 
BRANCH   2  25
ATOM     25  C   UNL     1      -4.130  -0.707  25.154  0.00  0.00    +0.225 C 
ATOM     26  O   UNL     1      -4.013  -0.497  25.944  0.00  0.00    -0.275 OA
ATOM     27  N   UNL     1      -3.915  -1.460  24.891  0.00  0.00    -0.280 N 
ATOM     28  C   UNL     1      -3.584  -2.001  25.417  0.00  0.00    +0.093 C 
ATOM     29  C   UNL     1      -3.369  -2.753  25.154  0.00  0.00    +0.022 C 
ATOM     30  C   UNL     1      -3.486  -2.962  24.365  0.00  0.00    +0.003 C 
ATOM     31  C   UNL     1      -3.271  -3.715  24.102  0.00  0.00    +0.000 C 
ATOM     32  C   UNL     1      -3.817  -2.421  23.839  0.00  0.00    +0.022 C 
ATOM     33  C   UNL     1      -4.032  -1.669  24.102  0.00  0.00    +0.093 C 
ENDBRANCH   2  25
ENDBRANCH   3   2
TORSDOF 4
ENDMDL
MODEL 2
REMARK VINA RESULT:     -14.1      0.741      5.547
REMARK  Name = 
REMARK  4 active torsions:
REMARK  status: ('A' for Active; 'I' for Inactive)
REMARK    1  A    between atoms: C_2  and  C_3
REMARK    2  A    between atoms: C_2  and  C_25
REMARK    3  A    between atoms: C_10  and  N_11
REMARK    4  A    between atoms: C_12  and  C_14
REMARK                            x       y       z     vdW  Elec       q    Type
REMARK                         _______ _______ _______ _____ _____    ______ ____
ROOT
ATOM      3  C   UNL     1      -4.143   2.964  24.732  0.00  0.00    +0.039 C 
ATOM      4  C   UNL     1      -4.842   2.997  25.171  0.00  0.00    +0.003 C 
ATOM      5  C   UNL     1      -5.244   2.302  25.359  0.00  0.00    +0.000 C 
ATOM      6  C   UNL     1      -4.949   1.574  25.108  0.00  0.00    +0.002 C 
ATOM      7  C   UNL     1      -5.646   1.607  25.546  0.00  0.00    +0.000 C 
ATOM      8  C   UNL     1      -5.351   0.878  25.296  0.00  0.00    +0.002 C 
ATOM      9  C   UNL     1      -5.056   0.151  25.045  0.00  0.00    +0.022 C 
ATOM     10  C   UNL     1      -4.357   0.117  24.606  0.00  0.00    +0.096 C 
ATOM     20  C   UNL     1      -3.955   0.812  24.419  0.00  0.00    +0.022 C 
ATOM     21  C   UNL     1      -3.257   0.779  23.980  0.00  0.00    +0.002 C 
ATOM     22  C   UNL     1      -4.250   1.541  24.669  0.00  0.00    +0.032 C 
ATOM     23  C   UNL     1      -3.848   2.236  24.482  0.00  0.00    +0.152 C 
ATOM     24  O   UNL     1      -3.150   2.203  24.043  0.00  0.00    -0.223 OA
ENDROOT
BRANCH  10  11
ATOM     11  N   UNL     1      -4.062  -0.611  24.356  0.00  0.00    -0.203 NA
ATOM     12  C   UNL     1      -3.870  -1.191  24.909  0.00  0.00    +0.265 C 
ATOM     13  O   UNL     1      -3.973  -1.043  25.715  0.00  0.00    -0.268 OA
BRANCH  12  14
ATOM     14  C   UNL     1      -3.575  -1.920  24.658  0.00  0.00    +0.055 A 
ATOM     15  C   UNL     1      -2.804  -2.141  24.849  0.00  0.00    +0.005 A 
ATOM     16  C   UNL     1      -2.509  -2.870  24.598  0.00  0.00    +0.000 A 
ATOM     17  C   UNL     1      -2.986  -3.378  24.157  0.00  0.00    +0.000 A 
ATOM     18  C   UNL     1      -3.759  -3.157  23.966  0.00  0.00    +0.000 A 
ATOM     19  C   UNL     1      -4.053  -2.428  24.217  0.00  0.00    +0.005 A 
ENDBRANCH  12  14
ENDBRANCH  10  11
BRANCH   3   2
ATOM      1  C   UNL     1      -3.709   3.922  23.763  0.00  0.00    +0.010 C 
ATOM      2  C   UNL     1      -3.740   3.659  24.545  0.00  0.00    +0.079 C 
BRANCH   2  25
ATOM     25  C   UNL     1      -3.369   4.093  25.140  0.00  0.00    +0.225 C 
ATOM     26  O   UNL     1      -3.772   4.263  25.840  0.00  0.00    -0.275 OA
ATOM     27  N   UNL     1      -2.594   4.358  25.035  0.00  0.00    -0.280 N 
ATOM     28  C   UNL     1      -2.223   4.792  25.630  0.00  0.00    +0.093 C 
ATOM     29  C   UNL     1      -1.448   5.056  25.526  0.00  0.00    +0.022 C 
ATOM     30  C   UNL     1      -1.046   4.886  24.826  0.00  0.00    +0.003 C 
ATOM     31  C   UNL     1      -0.271   5.150  24.722  0.00  0.00    +0.000 C 
ATOM     32  C   UNL     1      -1.417   4.452  24.232  0.00  0.00    +0.022 C 
ATOM     33  C   UNL     1      -2.191   4.188  24.336  0.00  0.00    +0.093 C 
ENDBRANCH   2  25
ENDBRANCH   3   2
TORSDOF 4
ENDMDL
MODEL 3
REMARK VINA RESULT:     -12.5      1.834      2.769
REMARK  Name = 
REMARK  4 active torsions:
REMARK  status: ('A' for Active; 'I' for Inactive)
REMARK    1  A    between atoms: C_2  and  C_3
REMARK    2  A    between atoms: C_2  and  C_25
REMARK    3  A    between atoms: C_10  and  N_11
REMARK    4  A    between atoms: C_12  and  C_14
REMARK                            x       y       z     vdW  Elec       q    Type
REMARK                         _______ _______ _______ _____ _____    ______ ____
ROOT
ATOM      3  C   UNL     1      -1.618  -0.601  25.085  0.00  0.00    +0.039 C 
ATOM      4  C   UNL     1      -0.870  -0.816  24.808  0.00  0.00    +0.003 C 
ATOM      5  C   UNL     1      -0.350  -0.237  24.535  0.00  0.00    +0.000 C 
ATOM      6  C   UNL     1      -0.576   0.555  24.540  0.00  0.00    +0.002 C 
ATOM      7  C   UNL     1       0.170   0.341  24.263  0.00  0.00    +0.000 C 
ATOM      8  C   UNL     1      -0.055   1.135  24.268  0.00  0.00    +0.002 C 
ATOM      9  C   UNL     1      -0.281   1.928  24.272  0.00  0.00    +0.022 C 
ATOM     10  C   UNL     1      -1.028   2.143  24.550  0.00  0.00    +0.096 C 
ATOM     20  C   UNL     1      -1.549   1.564  24.822  0.00  0.00    +0.022 C 
ATOM     21  C   UNL     1      -2.295   1.779  25.100  0.00  0.00    +0.002 C 
ATOM     22  C   UNL     1      -1.323   0.770  24.818  0.00  0.00    +0.032 C 
ATOM     23  C   UNL     1      -1.844   0.192  25.090  0.00  0.00    +0.152 C 
ATOM     24  O   UNL     1      -2.590   0.406  25.367  0.00  0.00    -0.223 OA
ENDROOT
BRANCH  10  11
ATOM     11  N   UNL     1      -1.254   2.937  24.555  0.00  0.00    -0.203 NA
ATOM     12  C   UNL     1      -0.825   3.485  24.996  0.00  0.00    +0.265 C 
ATOM     13  O   UNL     1      -0.169   3.240  25.435  0.00  0.00    -0.268 OA
BRANCH  12  14
ATOM     14  C   UNL     1      -1.050   4.279  25.001  0.00  0.00    +0.055 A 
ATOM     15  C   UNL     1      -1.751   4.507  25.371  0.00  0.00    +0.005 A 
ATOM     16  C   UNL     1      -1.976   5.301  25.375  0.00  0.00    +0.000 A 
ATOM     17  C   UNL     1      -1.500   5.866  25.009  0.00  0.00    +0.000 A 
ATOM     18  C   UNL     1      -0.798   5.638  24.639  0.00  0.00    +0.000 A 
ATOM     19  C   UNL     1      -0.574   4.844  24.635  0.00  0.00    +0.005 A 
ENDBRANCH  12  14
ENDBRANCH  10  11
BRANCH   3   2
ATOM      1  C   UNL     1      -2.620  -1.030  26.011  0.00  0.00    +0.010 C 
ATOM      2  C   UNL     1      -2.139  -1.181  25.358  0.00  0.00    +0.079 C 
BRANCH   2  25
ATOM     25  C   UNL     1      -2.177  -1.911  24.977  0.00  0.00    +0.225 C 
ATOM     26  O   UNL     1      -1.521  -2.413  24.977  0.00  0.00    -0.275 OA
ATOM     27  N   UNL     1      -2.872  -2.141  24.595  0.00  0.00    -0.280 N 
ATOM     28  C   UNL     1      -2.911  -2.871  24.214  0.00  0.00    +0.093 C 
ATOM     29  C   UNL     1      -3.605  -3.102  23.832  0.00  0.00    +0.022 C 
ATOM     30  C   UNL     1      -4.260  -2.600  23.832  0.00  0.00    +0.003 C 
ATOM     31  C   UNL     1      -4.955  -2.830  23.450  0.00  0.00    +0.000 C 
ATOM     32  C   UNL     1      -4.221  -1.870  24.213  0.00  0.00    +0.022 C 
ATOM     33  C   UNL     1      -3.527  -1.640  24.594  0.00  0.00    +0.093 C 
ENDBRANCH   2  25
ENDBRANCH   3   2
TORSDOF 4
ENDMDL
MODEL 4
REMARK VINA RESULT:     -12.2      3.440      5.289
REMARK  Name = 
REMARK  4 active torsions:
REMARK  status: ('A' for Active; 'I' for Inactive)
REMARK    1  A    between atoms: C_2  and  C_3
REMARK    2  A    between atoms: C_2  and  C_25
REMARK    3  A    between atoms: C_10  and  N_11
REMARK    4  A    between atoms: C_12  and  C_14
REMARK                            x       y       z     vdW  Elec       q    Type
REMARK                         _______ _______ _______ _____ _____    ______ ____
ROOT
ATOM      3  C   UNL     1      -0.196   0.304  23.939  0.00  0.00    +0.039 C 
ATOM      4  C   UNL     1      -0.215  -0.466  24.237  0.00  0.00    +0.003 C 
ATOM      5  C   UNL     1      -0.911  -0.765  24.563  0.00  0.00    +0.000 C 
ATOM      6  C   UNL     1      -1.588  -0.295  24.591  0.00  0.00    +0.002 C 
ATOM      7  C   UNL     1      -1.607  -1.063  24.888  0.00  0.00    +0.000 C 
ATOM      8  C   UNL     1      -2.285  -0.593  24.917  0.00  0.00    +0.002 C 
ATOM      9  C   UNL     1      -2.961  -0.124  24.945  0.00  0.00    +0.022 C 
ATOM     10  C   UNL     1      -2.942   0.647  24.647  0.00  0.00    +0.096 C 
ATOM     20  C   UNL     1      -2.246   0.945  24.321  0.00  0.00    +0.022 C 
ATOM     21  C   UNL     1      -2.227   1.714  24.024  0.00  0.00    +0.002 C 
ATOM     22  C   UNL     1      -1.569   0.475  24.293  0.00  0.00    +0.032 C 
ATOM     23  C   UNL     1      -0.873   0.774  23.967  0.00  0.00    +0.152 C 
ATOM     24  O   UNL     1      -0.853   1.543  23.669  0.00  0.00    -0.223 OA
ENDROOT
BRANCH  10  11
ATOM     11  N   UNL     1      -3.620   1.116  24.676  0.00  0.00    -0.203 NA
ATOM     12  C   UNL     1      -4.256   0.895  25.151  0.00  0.00    +0.265 C 
ATOM     13  O   UNL     1      -4.216   0.202  25.598  0.00  0.00    -0.268 OA
BRANCH  12  14
ATOM     14  C   UNL     1      -4.934   1.365  25.179  0.00  0.00    +0.055 A 
ATOM     15  C   UNL     1      -5.611   1.138  24.768  0.00  0.00    +0.005 A 
ATOM     16  C   UNL     1      -6.289   1.608  24.796  0.00  0.00    +0.000 A 
ATOM     17  C   UNL     1      -6.289   2.305  25.237  0.00  0.00    +0.000 A 
ATOM     18  C   UNL     1      -5.610   2.533  25.649  0.00  0.00    +0.000 A 
ATOM     19  C   UNL     1      -4.934   2.062  25.620  0.00  0.00    +0.005 A 
ENDBRANCH  12  14
ENDBRANCH  10  11
BRANCH   3   2
ATOM      1  C   UNL     1       0.819   1.310  23.893  0.00  0.00    +0.010 C 
ATOM      2  C   UNL     1       0.501   0.602  23.613  0.00  0.00    +0.079 C 
BRANCH   2  25
ATOM     25  C   UNL     1       0.881   0.192  23.006  0.00  0.00    +0.225 C 
ATOM     26  O   UNL     1       0.452  -0.326  22.527  0.00  0.00    -0.275 OA
ATOM     27  N   UNL     1       1.689   0.299  22.877  0.00  0.00    -0.280 N 
ATOM     28  C   UNL     1       2.068  -0.111  22.271  0.00  0.00    +0.093 C 
ATOM     29  C   UNL     1       2.876  -0.004  22.143  0.00  0.00    +0.022 C 
ATOM     30  C   UNL     1       3.304   0.514  22.622  0.00  0.00    +0.003 C 
ATOM     31  C   UNL     1       4.112   0.621  22.493  0.00  0.00    +0.000 C 
ATOM     32  C   UNL     1       2.925   0.924  23.228  0.00  0.00    +0.022 C 
ATOM     33  C   UNL     1       2.117   0.817  23.357  0.00  0.00    +0.093 C 
ENDBRANCH   2  25
ENDBRANCH   3   2
TORSDOF 4
ENDMDL
MODEL 5
REMARK VINA RESULT:     -12.1      2.834      4.691
REMARK  Name = 
REMARK  4 active torsions:
REMARK  status: ('A' for Active; 'I' for Inactive)
REMARK    1  A    between atoms: C_2  and  C_3
REMARK    2  A    between atoms: C_2  and  C_25
REMARK    3  A    between atoms: C_10  and  N_11
REMARK    4  A    between atoms: C_12  and  C_14
REMARK                            x       y       z     vdW  Elec       q    Type
REMARK                         _______ _______ _______ _____ _____    ______ ____
ROOT
ATOM      3  C   UNL     1      -2.566   3.203  25.001  0.00  0.00    +0.039 C 
ATOM      4  C   UNL     1      -2.203   3.501  25.681  0.00  0.00    +0.003 C 
ATOM      5  C   UNL     1      -1.436   3.270  25.874  0.00  0.00    +0.000 C 
ATOM      6  C   UNL     1      -1.031   2.741  25.388  0.00  0.00    +0.002 C 
ATOM      7  C   UNL     1      -0.669   3.038  26.066  0.00  0.00    +0.000 C 
ATOM      8  C   UNL     1      -0.263   2.508  25.581  0.00  0.00    +0.002 C 
ATOM      9  C   UNL     1       0.142   1.979  25.095  0.00  0.00    +0.022 C 
ATOM     10  C   UNL     1      -0.221   1.681  24.416  0.00  0.00    +0.096 C 
ATOM     20  C   UNL     1      -0.988   1.913  24.223  0.00  0.00    +0.022 C 
ATOM     21  C   UNL     1      -1.350   1.615  23.545  0.00  0.00    +0.002 C 
ATOM     22  C   UNL     1      -1.394   2.443  24.709  0.00  0.00    +0.032 C 
ATOM     23  C   UNL     1      -2.161   2.674  24.516  0.00  0.00    +0.152 C 
ATOM     24  O   UNL     1      -2.524   2.377  23.838  0.00  0.00    -0.223 OA
ENDROOT
BRANCH  10  11
ATOM     11  N   UNL     1       0.185   1.152  23.930  0.00  0.00    -0.203 NA
ATOM     12  C   UNL     1       0.985   1.270  23.769  0.00  0.00    +0.265 C 
ATOM     13  O   UNL     1       1.381   1.918  24.093  0.00  0.00    -0.268 OA
BRANCH  12  14
ATOM     14  C   UNL     1       1.391   0.740  23.283  0.00  0.00    +0.055 A 
ATOM     15  C   UNL     1       0.995   0.099  22.949  0.00  0.00    +0.005 A 
ATOM     16  C   UNL     1       1.401  -0.430  22.463  0.00  0.00    +0.000 A 
ATOM     17  C   UNL     1       2.204  -0.318  22.313  0.00  0.00    +0.000 A 
ATOM     18  C   UNL     1       2.601   0.324  22.647  0.00  0.00    +0.000 A 
ATOM     19  C   UNL     1       2.194   0.852  23.132  0.00  0.00    +0.005 A 
ENDBRANCH  12  14
ENDBRANCH  10  11
BRANCH   3   2
ATOM      1  C   UNL     1      -3.527   3.623  24.029  0.00  0.00    +0.010 C 
ATOM      2  C   UNL     1      -3.335   3.435  24.809  0.00  0.00    +0.079 C 
BRANCH   2  25
ATOM     25  C   UNL     1      -3.911   3.481  25.398  0.00  0.00    +0.225 C 
ATOM     26  O   UNL     1      -3.811   3.996  26.035  0.00  0.00    -0.275 OA
ATOM     27  N   UNL     1      -4.588   3.010  25.350  0.00  0.00    -0.280 N 
ATOM     28  C   UNL     1      -5.163   3.055  25.938  0.00  0.00    +0.093 C 
ATOM     29  C   UNL     1      -5.840   2.585  25.891  0.00  0.00    +0.022 C 
ATOM     30  C   UNL     1      -5.939   2.070  25.254  0.00  0.00    +0.003 C 
ATOM     31  C   UNL     1      -6.616   1.600  25.207  0.00  0.00    +0.000 C 
ATOM     32  C   UNL     1      -5.363   2.025  24.666  0.00  0.00    +0.022 C 
ATOM     33  C   UNL     1      -4.687   2.495  24.714  0.00  0.00    +0.093 C 
ENDBRANCH   2  25
ENDBRANCH   3   2
TORSDOF 4
ENDMDL
MODEL 6
REMARK VINA RESULT:     -11.9      3.325      4.869
REMARK  Name = 
REMARK  4 active torsions:
REMARK  status: ('A' for Active; 'I' for Inactive)
REMARK    1  A    between atoms: C_2  and  C_3
REMARK    2  A    between atoms: C_2  and  C_25
REMARK    3  A    between atoms: C_10  and  N_11
REMARK    4  A    between atoms: C_12  and  C_14
REMARK                            x       y       z     vdW  Elec       q    Type
REMARK                         _______ _______ _______ _____ _____    ______ ____
ROOT
ATOM      3  C   UNL     1      -2.567   1.408  24.307  0.00  0.00    +0.039 C 
ATOM      4  C   UNL     1      -2.703   0.719  24.741  0.00  0.00    +0.003 C 
ATOM      5  C   UNL     1      -2.096   0.171  24.846  0.00  0.00    +0.000 C 
ATOM      6  C   UNL     1      -1.353   0.310  24.518  0.00  0.00    +0.002 C 
ATOM      7  C   UNL     1      -1.489  -0.377  24.951  0.00  0.00    +0.000 C 
ATOM      8  C   UNL     1      -0.745  -0.238  24.623  0.00  0.00    +0.002 C 
ATOM      9  C   UNL     1      -0.002  -0.099  24.294  0.00  0.00    +0.022 C 
ATOM     10  C   UNL     1       0.134   0.591  23.860  0.00  0.00    +0.096 C 
ATOM     20  C   UNL     1      -0.473   1.138  23.755  0.00  0.00    +0.022 C 
ATOM     21  C   UNL     1      -0.336   1.827  23.321  0.00  0.00    +0.002 C 
ATOM     22  C   UNL     1      -1.217   0.999  24.083  0.00  0.00    +0.032 C 
ATOM     23  C   UNL     1      -1.824   1.547  23.978  0.00  0.00    +0.152 C 
ATOM     24  O   UNL     1      -1.687   2.235  23.545  0.00  0.00    -0.223 OA
ENDROOT
BRANCH  10  11
ATOM     11  N   UNL     1       0.878   0.730  23.531  0.00  0.00    -0.203 NA
ATOM     12  C   UNL     1       1.295   0.113  23.177  0.00  0.00    +0.265 C 
ATOM     13  O   UNL     1       0.969  -0.645  23.152  0.00  0.00    -0.268 OA
BRANCH  12  14
ATOM     14  C   UNL     1       2.039   0.252  22.849  0.00  0.00    +0.055 A 
ATOM     15  C   UNL     1       2.594   0.705  23.258  0.00  0.00    +0.005 A 
ATOM     16  C   UNL     1       3.338   0.844  22.929  0.00  0.00    +0.000 A 
ATOM     17  C   UNL     1       3.527   0.530  22.190  0.00  0.00    +0.000 A 
ATOM     18  C   UNL     1       2.972   0.076  21.780  0.00  0.00    +0.000 A 
ATOM     19  C   UNL     1       2.228  -0.062  22.109  0.00  0.00    +0.005 A 
ENDBRANCH  12  14
ENDBRANCH  10  11
BRANCH   3   2
ATOM      1  C   UNL     1      -3.498   2.077  23.453  0.00  0.00    +0.010 C 
ATOM      2  C   UNL     1      -3.175   1.956  24.202  0.00  0.00    +0.079 C 
BRANCH   2  25
ATOM     25  C   UNL     1      -3.459   2.384  24.848  0.00  0.00    +0.225 C 
ATOM     26  O   UNL     1      -2.943   2.847  25.296  0.00  0.00    -0.275 OA
ATOM     27  N   UNL     1      -4.260   2.349  25.045  0.00  0.00    -0.280 N 
ATOM     28  C   UNL     1      -4.544   2.777  25.690  0.00  0.00    +0.093 C 
ATOM     29  C   UNL     1      -5.344   2.743  25.888  0.00  0.00    +0.022 C 
ATOM     30  C   UNL     1      -5.859   2.280  25.440  0.00  0.00    +0.003 C 
ATOM     31  C   UNL     1      -6.660   2.246  25.637  0.00  0.00    +0.000 C 
ATOM     32  C   UNL     1      -5.575   1.853  24.795  0.00  0.00    +0.022 C 
ATOM     33  C   UNL     1      -4.775   1.887  24.597  0.00  0.00    +0.093 C 
ENDBRANCH   2  25
ENDBRANCH   3   2
TORSDOF 4
ENDMDL
MODEL 7
REMARK VINA RESULT:     -11.4      2.060      6.380
REMARK  Name = 
REMARK  4 active torsions:
REMARK  status: ('A' for Active; 'I' for Inactive)
REMARK    1  A    between atoms: C_2  and  C_3
REMARK    2  A    between atoms: C_2  and  C_25
REMARK    3  A    between atoms: C_10  and  N_11
REMARK    4  A    between atoms: C_12  and  C_14
REMARK                            x       y       z     vdW  Elec       q    Type
REMARK                         _______ _______ _______ _____ _____    ______ ____
ROOT
ATOM      3  C   UNL     1      -0.422   2.030  25.117  0.00  0.00    +0.039 C 
ATOM      4  C   UNL     1       0.271   1.783  24.741  0.00  0.00    +0.003 C 
ATOM      5  C   UNL     1       0.294   1.055  24.355  0.00  0.00    +0.000 C 
ATOM      6  C   UNL     1      -0.374   0.572  24.346  0.00  0.00    +0.002 C 
ATOM      7  C   UNL     1       0.317   0.327  23.970  0.00  0.00    +0.000 C 
ATOM      8  C   UNL     1      -0.352  -0.157  23.960  0.00  0.00    +0.002 C 
ATOM      9  C   UNL     1      -1.020  -0.639  23.950  0.00  0.00    +0.022 C 
ATOM     10  C   UNL     1      -1.713  -0.393  24.327  0.00  0.00    +0.096 C 
ATOM     20  C   UNL     1      -1.736   0.336  24.712  0.00  0.00    +0.022 C 
ATOM     21  C   UNL     1      -2.428   0.582  25.088  0.00  0.00    +0.002 C 
ATOM     22  C   UNL     1      -1.067   0.819  24.722  0.00  0.00    +0.032 C 
ATOM     23  C   UNL     1      -1.090   1.547  25.107  0.00  0.00    +0.152 C 
ATOM     24  O   UNL     1      -1.782   1.794  25.483  0.00  0.00    -0.223 OA
ENDROOT
BRANCH  10  11
ATOM     11  N   UNL     1      -2.382  -0.876  24.317  0.00  0.00    -0.203 NA
ATOM     12  C   UNL     1      -2.299  -1.696  24.343  0.00  0.00    +0.265 C 
ATOM     13  O   UNL     1      -1.547  -2.034  24.380  0.00  0.00    -0.268 OA
BRANCH  12  14
ATOM     14  C   UNL     1      -2.968  -2.179  24.333  0.00  0.00    +0.055 A 
ATOM     15  C   UNL     1      -2.983  -2.873  24.778  0.00  0.00    +0.005 A 
ATOM     16  C   UNL     1      -3.652  -3.356  24.768  0.00  0.00    +0.000 A 
ATOM     17  C   UNL     1      -4.306  -3.145  24.312  0.00  0.00    +0.000 A 
ATOM     18  C   UNL     1      -4.291  -2.450  23.866  0.00  0.00    +0.000 A 
ATOM     19  C   UNL     1      -3.622  -1.968  23.877  0.00  0.00    +0.005 A 
ENDBRANCH  12  14
ENDBRANCH  10  11
BRANCH   3   2
ATOM      1  C   UNL     1      -0.656   2.800  26.299  0.00  0.00    +0.010 C 
ATOM      2  C   UNL     1      -0.444   2.759  25.502  0.00  0.00    +0.079 C 
BRANCH   2  25
ATOM     25  C   UNL     1      -0.253   3.449  25.091  0.00  0.00    +0.225 C 
ATOM     26  O   UNL     1       0.448   3.490  24.657  0.00  0.00    -0.275 OA
ATOM     27  N   UNL     1      -0.764   4.097  25.113  0.00  0.00    -0.280 N 
ATOM     28  C   UNL     1      -0.574   4.785  24.702  0.00  0.00    +0.093 C 
ATOM     29  C   UNL     1      -1.084   5.434  24.723  0.00  0.00    +0.022 C 
ATOM     30  C   UNL     1      -1.784   5.391  25.157  0.00  0.00    +0.003 C 
ATOM     31  C   UNL     1      -2.295   6.040  25.178  0.00  0.00    +0.000 C 
ATOM     32  C   UNL     1      -1.974   4.703  25.567  0.00  0.00    +0.022 C 
ATOM     33  C   UNL     1      -1.465   4.055  25.546  0.00  0.00    +0.093 C 
ENDBRANCH   2  25
ENDBRANCH   3   2
TORSDOF 4
ENDMDL
