MODEL 1
REMARK VINA RESULT:     -10.7      0.000      0.000
REMARK  Name = 
REMARK  8 active torsions:
REMARK  status: ('A' for Active; 'I' for Inactive)
REMARK    1  A    between atoms: O_2  and  C_3
REMARK    2  A    between atoms: C_6  and  N_7
REMARK    3  A    between atoms: N_7  and  C_8
REMARK    4  A    between atoms: C_8  and  C_9
REMARK    5  A    between atoms: C_13  and  C_14
REMARK    6  A    between atoms: C_14  and  C_15
REMARK    7  A    between atoms: C_18  and  C_20
REMARK    8  A    between atoms: C_27  and  C_28
REMARK                            x       y       z     vdW  Elec       q    Type
REMARK                         _______ _______ _______ _____ _____    ______ ____
ROOT
ATOM      9  C   UNL     1      -4.142   0.934  24.416  0.00  0.00    +0.043 C 
ATOM     10  C   UNL     1      -4.755   1.141  24.927  0.00  0.00    -0.033 C 
ATOM     11  C   UNL     1      -4.853   1.927  25.156  0.00  0.00    -0.048 C 
ATOM     12  C   UNL     1      -5.467   2.135  25.669  0.00  0.00    +0.026 C 
ATOM     13  C   UNL     1      -4.338   2.506  24.874  0.00  0.00    +0.027 C 
ATOM     26  C   UNL     1      -3.725   2.300  24.363  0.00  0.00    +0.005 C 
ATOM     27  C   UNL     1      -3.626   1.513  24.133  0.00  0.00    +0.006 C 
ENDROOT
BRANCH  27  28
ATOM     28  C   UNL     1      -3.014   1.307  23.622  0.00  0.00    +0.000 C 
ATOM     29  C   UNL     1      -2.292   1.047  23.927  0.00  0.00    +0.000 C 
ATOM     30  C   UNL     1      -3.122   1.359  22.806  0.00  0.00    +0.000 C 
ENDBRANCH  27  28
BRANCH   9   8
ATOM      8  C   UNL     1      -4.043   0.148  24.186  0.00  0.00    +0.117 C 
BRANCH   8   7
ATOM      7  N   UNL     1      -4.440  -0.453  24.588  0.00  0.00    -0.236 NA
BRANCH   7   6
ATOM      3  C   UNL     1      -3.655  -2.793  24.405  0.00  0.00    +0.225 A 
ATOM      4  C   UNL     1      -4.100  -2.459  23.796  0.00  0.00    +0.059 A 
ATOM      5  C   UNL     1      -4.361  -1.678  23.857  0.00  0.00    +0.022 A 
ATOM      6  C   UNL     1      -4.178  -1.233  24.527  0.00  0.00    +0.085 A 
ATOM     31  C   UNL     1      -3.733  -1.568  25.136  0.00  0.00    +0.118 A 
ATOM     32  N   UNL     1      -3.472  -2.348  25.075  0.00  0.00    -0.209 NA
BRANCH   3   2
ATOM      1  C   UNL     1      -2.646  -3.734  24.035  0.00  0.00    +0.254 C 
ATOM      2  O   UNL     1      -3.394  -3.573  24.344  0.00  0.00    -0.456 OA
ENDBRANCH   3   2
ENDBRANCH   7   6
ENDBRANCH   8   7
ENDBRANCH   9   8
BRANCH  13  14
ATOM     14  C   UNL     1      -4.436   3.292  25.103  0.00  0.00    +0.091 C 
BRANCH  14  15
ATOM     15  C   UNL     1      -3.792   3.722  25.391  0.00  0.00    +0.227 A 
ATOM     16  N   UNL     1      -3.688   3.976  26.168  0.00  0.00    -0.111 NA
ATOM     17  N   UNL     1      -2.971   4.383  26.209  0.00  0.00    -0.107 NA
ATOM     18  C   UNL     1      -2.633   4.380  25.457  0.00  0.00    +0.251 A 
ATOM     19  O   UNL     1      -3.140   3.971  24.951  0.00  0.00    -0.419 OA
BRANCH  18  20
ATOM     20  C   UNL     1      -1.913   4.725  25.248  0.00  0.00    +0.074 A 
ATOM     21  C   UNL     1      -1.865   5.540  25.131  0.00  0.00    +0.104 A 
ATOM     22  N   UNL     1      -1.145   5.885  24.922  0.00  0.00    -0.242 NA
ATOM     23  C   UNL     1      -0.474   5.414  24.829  0.00  0.00    +0.099 A 
ATOM     24  C   UNL     1      -0.522   4.599  24.946  0.00  0.00    +0.021 A 
ATOM     25  C   UNL     1      -1.242   4.254  25.156  0.00  0.00    +0.008 A 
ENDBRANCH  18  20
ENDBRANCH  14  15
ENDBRANCH  13  14
TORSDOF 8
ENDMDL
MODEL 2
REMARK VINA RESULT:      -9.7      3.327      5.200
REMARK  Name = 
REMARK  8 active torsions:
REMARK  status: ('A' for Active; 'I' for Inactive)
REMARK    1  A    between atoms: O_2  and  C_3
REMARK    2  A    between atoms: C_6  and  N_7
REMARK    3  A    between atoms: N_7  and  C_8
REMARK    4  A    between atoms: C_8  and  C_9
REMARK    5  A    between atoms: C_13  and  C_14
REMARK    6  A    between atoms: C_14  and  C_15
REMARK    7  A    between atoms: C_18  and  C_20
REMARK    8  A    between atoms: C_27  and  C_28
REMARK                            x       y       z     vdW  Elec       q    Type
REMARK                         _______ _______ _______ _____ _____    ______ ____
ROOT
ATOM      9  C   UNL     1      -0.564   0.027  24.131  0.00  0.00    +0.043 C 
ATOM     10  C   UNL     1      -0.766  -0.768  24.221  0.00  0.00    -0.033 C 
ATOM     11  C   UNL     1      -1.472  -0.974  24.595  0.00  0.00    -0.048 C 
ATOM     12  C   UNL     1      -1.675  -1.770  24.685  0.00  0.00    +0.026 C 
ATOM     13  C   UNL     1      -1.976  -0.386  24.879  0.00  0.00    +0.027 C 
ATOM     26  C   UNL     1      -1.774   0.409  24.789  0.00  0.00    +0.005 C 
ATOM     27  C   UNL     1      -1.069   0.616  24.415  0.00  0.00    +0.006 C 
ENDROOT
BRANCH  27  28
ATOM     28  C   UNL     1      -0.867   1.410  24.326  0.00  0.00    +0.000 C 
ATOM     29  C   UNL     1      -1.101   1.821  23.649  0.00  0.00    +0.000 C 
ATOM     30  C   UNL     1      -0.431   1.794  24.911  0.00  0.00    +0.000 C 
ENDBRANCH  27  28
BRANCH   9   8
ATOM      8  C   UNL     1       0.141   0.234  23.757  0.00  0.00    +0.117 C 
BRANCH   8   7
ATOM      7  N   UNL     1       0.596  -0.344  23.385  0.00  0.00    -0.236 NA
BRANCH   7   6
ATOM      3  C   UNL     1       2.754   0.265  22.337  0.00  0.00    +0.225 A 
ATOM      4  C   UNL     1       2.652   0.352  23.151  0.00  0.00    +0.059 A 
ATOM      5  C   UNL     1       1.932   0.149  23.500  0.00  0.00    +0.022 A 
ATOM      6  C   UNL     1       1.315  -0.141  23.035  0.00  0.00    +0.085 A 
ATOM     31  C   UNL     1       1.418  -0.228  22.221  0.00  0.00    +0.118 A 
ATOM     32  N   UNL     1       2.137  -0.025  21.872  0.00  0.00    -0.209 NA
BRANCH   3   2
ATOM      1  C   UNL     1       4.089   0.760  22.452  0.00  0.00    +0.254 C 
ATOM      2  O   UNL     1       3.473   0.468  21.988  0.00  0.00    -0.456 OA
ENDBRANCH   3   2
ENDBRANCH   7   6
ENDBRANCH   8   7
ENDBRANCH   9   8
BRANCH  13  14
ATOM     14  C   UNL     1      -2.681  -0.592  25.253  0.00  0.00    +0.091 C 
BRANCH  14  15
ATOM     15  C   UNL     1      -3.386  -0.218  25.040  0.00  0.00    +0.227 A 
ATOM     16  N   UNL     1      -3.928  -0.489  24.481  0.00  0.00    -0.111 NA
ATOM     17  N   UNL     1      -4.549   0.054  24.444  0.00  0.00    -0.107 NA
ATOM     18  C   UNL     1      -4.389   0.660  24.981  0.00  0.00    +0.251 A 
ATOM     19  O   UNL     1      -3.670   0.492  25.349  0.00  0.00    -0.419 OA
BRANCH  18  20
ATOM     20  C   UNL     1      -4.865   1.319  25.123  0.00  0.00    +0.074 A 
ATOM     21  C   UNL     1      -5.527   1.252  25.611  0.00  0.00    +0.104 A 
ATOM     22  N   UNL     1      -6.003   1.911  25.754  0.00  0.00    -0.242 NA
ATOM     23  C   UNL     1      -5.816   2.637  25.408  0.00  0.00    +0.099 A 
ATOM     24  C   UNL     1      -5.155   2.703  24.920  0.00  0.00    +0.021 A 
ATOM     25  C   UNL     1      -4.679   2.044  24.778  0.00  0.00    +0.008 A 
ENDBRANCH  18  20
ENDBRANCH  14  15
ENDBRANCH  13  14
TORSDOF 8
ENDMDL
MODEL 3
REMARK VINA RESULT:      -9.1      2.709      4.402
REMARK  Name = 
REMARK  8 active torsions:
REMARK  status: ('A' for Active; 'I' for Inactive)
REMARK    1  A    between atoms: O_2  and  C_3
REMARK    2  A    between atoms: C_6  and  N_7
REMARK    3  A    between atoms: N_7  and  C_8
REMARK    4  A    between atoms: C_8  and  C_9
REMARK    5  A    between atoms: C_13  and  C_14
REMARK    6  A    between atoms: C_14  and  C_15
REMARK    7  A    between atoms: C_18  and  C_20
REMARK    8  A    between atoms: C_27  and  C_28
REMARK                            x       y       z     vdW  Elec       q    Type
REMARK                         _______ _______ _______ _____ _____    ______ ____
ROOT
ATOM      9  C   UNL     1      -1.325   2.031  24.100  0.00  0.00    +0.043 C 
ATOM     10  C   UNL     1      -1.073   2.404  24.791  0.00  0.00    -0.033 C 
ATOM     11  C   UNL     1      -1.552   2.970  25.152  0.00  0.00    -0.048 C 
ATOM     12  C   UNL     1      -1.300   3.344  25.844  0.00  0.00    +0.026 C 
ATOM     13  C   UNL     1      -2.282   3.164  24.822  0.00  0.00    +0.027 C 
ATOM     26  C   UNL     1      -2.534   2.791  24.130  0.00  0.00    +0.005 C 
ATOM     27  C   UNL     1      -2.056   2.225  23.769  0.00  0.00    +0.006 C 
ENDROOT
BRANCH  27  28
ATOM     28  C   UNL     1      -2.308   1.852  23.078  0.00  0.00    +0.000 C 
ATOM     29  C   UNL     1      -2.156   2.198  22.344  0.00  0.00    +0.000 C 
ATOM     30  C   UNL     1      -2.711   1.134  23.120  0.00  0.00    +0.000 C 
ENDBRANCH  27  28
BRANCH   9   8
ATOM      8  C   UNL     1      -0.847   1.464  23.738  0.00  0.00    +0.117 C 
BRANCH   8   7
ATOM      7  N   UNL     1      -0.214   1.135  24.150  0.00  0.00    -0.236 NA
BRANCH   7   6
ATOM      3  C   UNL     1       1.670   0.109  22.914  0.00  0.00    +0.225 A 
ATOM      4  C   UNL     1       0.967  -0.310  23.017  0.00  0.00    +0.059 A 
ATOM      5  C   UNL     1       0.339   0.032  23.430  0.00  0.00    +0.022 A 
ATOM      6  C   UNL     1       0.415   0.793  23.738  0.00  0.00    +0.085 A 
ATOM     31  C   UNL     1       1.117   1.212  23.635  0.00  0.00    +0.118 A 
ATOM     32  N   UNL     1       1.744   0.871  23.223  0.00  0.00    -0.209 NA
BRANCH   3   2
ATOM      1  C   UNL     1       2.999   0.189  22.396  0.00  0.00    +0.254 C 
ATOM      2  O   UNL     1       2.297  -0.232  22.502  0.00  0.00    -0.456 OA
ENDBRANCH   3   2
ENDBRANCH   7   6
ENDBRANCH   8   7
ENDBRANCH   9   8
BRANCH  13  14
ATOM     14  C   UNL     1      -2.761   3.730  25.182  0.00  0.00    +0.091 C 
BRANCH  14  15
ATOM     15  C   UNL     1      -3.581   3.635  25.188  0.00  0.00    +0.227 A 
ATOM     16  N   UNL     1      -4.131   4.150  24.854  0.00  0.00    -0.111 NA
ATOM     17  N   UNL     1      -4.884   3.841  24.988  0.00  0.00    -0.107 NA
ATOM     18  C   UNL     1      -4.799   3.134  25.405  0.00  0.00    +0.251 A 
ATOM     19  O   UNL     1      -3.993   3.006  25.529  0.00  0.00    -0.419 OA
BRANCH  18  20
ATOM     20  C   UNL     1      -5.412   2.641  25.655  0.00  0.00    +0.074 A 
ATOM     21  C   UNL     1      -5.719   2.718  26.416  0.00  0.00    +0.104 A 
ATOM     22  N   UNL     1      -6.332   2.225  26.666  0.00  0.00    -0.242 NA
ATOM     23  C   UNL     1      -6.637   1.655  26.152  0.00  0.00    +0.099 A 
ATOM     24  C   UNL     1      -6.330   1.579  25.391  0.00  0.00    +0.021 A 
ATOM     25  C   UNL     1      -5.717   2.072  25.142  0.00  0.00    +0.008 A 
ENDBRANCH  18  20
ENDBRANCH  14  15
ENDBRANCH  13  14
TORSDOF 8
ENDMDL
MODEL 4
REMARK VINA RESULT:      -8.7      3.761      5.682
REMARK  Name = 
REMARK  8 active torsions:
REMARK  status: ('A' for Active; 'I' for Inactive)
REMARK    1  A    between atoms: O_2  and  C_3
REMARK    2  A    between atoms: C_6  and  N_7
REMARK    3  A    between atoms: N_7  and  C_8
REMARK    4  A    between atoms: C_8  and  C_9
REMARK    5  A    between atoms: C_13  and  C_14
REMARK    6  A    between atoms: C_14  and  C_15
REMARK    7  A    between atoms: C_18  and  C_20
REMARK    8  A    between atoms: C_27  and  C_28
REMARK                            x       y       z     vdW  Elec       q    Type
REMARK                         _______ _______ _______ _____ _____    ______ ____
ROOT
ATOM      9  C   UNL     1      -1.407   1.334  24.406  0.00  0.00    +0.043 C 
ATOM     10  C   UNL     1      -1.656   0.574  24.205  0.00  0.00    -0.033 C 
ATOM     11  C   UNL     1      -1.099  -0.009  24.028  0.00  0.00    -0.048 C 
ATOM     12  C   UNL     1      -1.349  -0.770  23.827  0.00  0.00    +0.026 C 
ATOM     13  C   UNL     1      -0.295   0.167  24.054  0.00  0.00    +0.027 C 
ATOM     26  C   UNL     1      -0.045   0.928  24.255  0.00  0.00    +0.005 C 
ATOM     27  C   UNL     1      -0.601   1.511  24.431  0.00  0.00    +0.006 C 
ENDROOT
BRANCH  27  28
ATOM     28  C   UNL     1      -0.352   2.271  24.632  0.00  0.00    +0.000 C 
ATOM     29  C   UNL     1      -0.175   2.453  25.418  0.00  0.00    +0.000 C 
ATOM     30  C   UNL     1      -0.279   2.849  24.049  0.00  0.00    +0.000 C 
ENDBRANCH  27  28
BRANCH   9   8
ATOM      8  C   UNL     1      -1.962   1.918  24.582  0.00  0.00    +0.117 C 
BRANCH   8   7
ATOM      7  N   UNL     1      -2.760   1.791  24.418  0.00  0.00    -0.236 NA
BRANCH   7   6
ATOM      3  C   UNL     1      -4.442   3.487  25.068  0.00  0.00    +0.225 A 
ATOM      4  C   UNL     1      -4.119   3.497  24.309  0.00  0.00    +0.059 A 
ATOM      5  C   UNL     1      -3.558   2.931  24.092  0.00  0.00    +0.022 A 
ATOM      6  C   UNL     1      -3.321   2.357  24.635  0.00  0.00    +0.085 A 
ATOM     31  C   UNL     1      -3.644   2.348  25.394  0.00  0.00    +0.118 A 
ATOM     32  N   UNL     1      -4.204   2.913  25.610  0.00  0.00    -0.209 NA
BRANCH   3   2
ATOM      1  C   UNL     1      -5.709   3.818  25.640  0.00  0.00    +0.254 C 
ATOM      2  O   UNL     1      -5.002   4.052  25.284  0.00  0.00    -0.456 OA
ENDBRANCH   3   2
ENDBRANCH   7   6
ENDBRANCH   8   7
ENDBRANCH   9   8
BRANCH  13  14
ATOM     14  C   UNL     1       0.261  -0.415  23.878  0.00  0.00    +0.091 C 
BRANCH  14  15
ATOM     15  C   UNL     1       0.894  -0.244  23.375  0.00  0.00    +0.227 A 
ATOM     16  N   UNL     1       0.857  -0.186  22.553  0.00  0.00    -0.111 NA
ATOM     17  N   UNL     1       1.613  -0.007  22.276  0.00  0.00    -0.107 NA
ATOM     18  C   UNL     1       2.117   0.044  22.928  0.00  0.00    +0.251 A 
ATOM     19  O   UNL     1       1.672  -0.102  23.607  0.00  0.00    -0.419 OA
BRANCH  18  20
ATOM     20  C   UNL     1       2.925   0.213  22.903  0.00  0.00    +0.074 A 
ATOM     21  C   UNL     1       3.475  -0.381  23.059  0.00  0.00    +0.104 A 
ATOM     22  N   UNL     1       4.283  -0.213  23.035  0.00  0.00    -0.242 NA
ATOM     23  C   UNL     1       4.539   0.551  22.855  0.00  0.00    +0.099 A 
ATOM     24  C   UNL     1       3.989   1.145  22.700  0.00  0.00    +0.021 A 
ATOM     25  C   UNL     1       3.181   0.976  22.724  0.00  0.00    +0.008 A 
ENDBRANCH  18  20
ENDBRANCH  14  15
ENDBRANCH  13  14
TORSDOF 8
ENDMDL
MODEL 5
REMARK VINA RESULT:      -8.7      2.128      6.399
REMARK  Name = 
REMARK  8 active torsions:
REMARK  status: ('A' for Active; 'I' for Inactive)
REMARK    1  A    between atoms: O_2  and  C_3
REMARK    2  A    between atoms: C_6  and  N_7
REMARK    3  A    between atoms: N_7  and  C_8
REMARK    4  A    between atoms: C_8  and  C_9
REMARK    5  A    between atoms: C_13  and  C_14
REMARK    6  A    between atoms: C_14  and  C_15
REMARK    7  A    between atoms: C_18  and  C_20
REMARK    8  A    between atoms: C_27  and  C_28
REMARK                            x       y       z     vdW  Elec       q    Type
REMARK                         _______ _______ _______ _____ _____    ______ ____
ROOT
ATOM      9  C   UNL     1      -0.719   1.133  25.072  0.00  0.00    +0.043 C 
ATOM     10  C   UNL     1      -0.916   0.824  25.812  0.00  0.00    -0.033 C 
ATOM     11  C   UNL     1      -0.935   0.007  25.925  0.00  0.00    -0.048 C 
ATOM     12  C   UNL     1      -1.132  -0.302  26.665  0.00  0.00    +0.026 C 
ATOM     13  C   UNL     1      -0.756  -0.501  25.301  0.00  0.00    +0.027 C 
ATOM     26  C   UNL     1      -0.559  -0.192  24.562  0.00  0.00    +0.005 C 
ATOM     27  C   UNL     1      -0.540   0.624  24.447  0.00  0.00    +0.006 C 
ENDROOT
BRANCH  27  28
ATOM     28  C   UNL     1      -0.343   0.933  23.709  0.00  0.00    +0.000 C 
ATOM     29  C   UNL     1      -0.938   1.129  23.171  0.00  0.00    +0.000 C 
ATOM     30  C   UNL     1       0.449   1.046  23.506  0.00  0.00    +0.000 C 
ENDBRANCH  27  28
BRANCH   9   8
ATOM      8  C   UNL     1      -0.700   1.949  24.958  0.00  0.00    +0.117 C 
BRANCH   8   7
ATOM      7  N   UNL     1      -0.841   2.458  25.590  0.00  0.00    -0.236 NA
BRANCH   7   6
ATOM      3  C   UNL     1      -1.291   4.857  25.174  0.00  0.00    +0.225 A 
ATOM      4  C   UNL     1      -1.895   4.365  25.448  0.00  0.00    +0.059 A 
ATOM      5  C   UNL     1      -1.744   3.565  25.587  0.00  0.00    +0.022 A 
ATOM      6  C   UNL     1      -0.991   3.258  25.451  0.00  0.00    +0.085 A 
ATOM     31  C   UNL     1      -0.388   3.750  25.177  0.00  0.00    +0.118 A 
ATOM     32  N   UNL     1      -0.538   4.548  25.038  0.00  0.00    -0.209 NA
BRANCH   3   2
ATOM      1  C   UNL     1      -2.213   5.944  25.083  0.00  0.00    +0.254 C 
ATOM      2  O   UNL     1      -1.442   5.655  25.035  0.00  0.00    -0.456 OA
ENDBRANCH   3   2
ENDBRANCH   7   6
ENDBRANCH   8   7
ENDBRANCH   9   8
BRANCH  13  14
ATOM     14  C   UNL     1      -0.774  -1.317  25.415  0.00  0.00    +0.091 C 
BRANCH  14  15
ATOM     15  C   UNL     1      -1.304  -1.782  24.985  0.00  0.00    +0.227 A 
ATOM     16  N   UNL     1      -1.116  -2.461  24.557  0.00  0.00    -0.111 NA
ATOM     17  N   UNL     1      -1.810  -2.748  24.215  0.00  0.00    -0.107 NA
ATOM     18  C   UNL     1      -2.427  -2.245  24.433  0.00  0.00    +0.251 A 
ATOM     19  O   UNL     1      -2.115  -1.648  24.909  0.00  0.00    -0.419 OA
BRANCH  18  20
ATOM     20  C   UNL     1      -3.219  -2.326  24.212  0.00  0.00    +0.074 A 
ATOM     21  C   UNL     1      -3.569  -3.073  24.199  0.00  0.00    +0.104 A 
ATOM     22  N   UNL     1      -4.360  -3.153  23.978  0.00  0.00    -0.242 NA
ATOM     23  C   UNL     1      -4.800  -2.486  23.772  0.00  0.00    +0.099 A 
ATOM     24  C   UNL     1      -4.450  -1.740  23.786  0.00  0.00    +0.021 A 
ATOM     25  C   UNL     1      -3.659  -1.660  24.006  0.00  0.00    +0.008 A 
ENDBRANCH  18  20
ENDBRANCH  14  15
ENDBRANCH  13  14
TORSDOF 8
ENDMDL
MODEL 6
REMARK VINA RESULT:      -8.6      1.352      5.664
REMARK  Name = 
REMARK  8 active torsions:
REMARK  status: ('A' for Active; 'I' for Inactive)
REMARK    1  A    between atoms: O_2  and  C_3
REMARK    2  A    between atoms: C_6  and  N_7
REMARK    3  A    between atoms: N_7  and  C_8
REMARK    4  A    between atoms: C_8  and  C_9
REMARK    5  A    between atoms: C_13  and  C_14
REMARK    6  A    between atoms: C_14  and  C_15
REMARK    7  A    between atoms: C_18  and  C_20
REMARK    8  A    between atoms: C_27  and  C_28
REMARK                            x       y       z     vdW  Elec       q    Type
REMARK                         _______ _______ _______ _____ _____    ______ ____
ROOT
ATOM      9  C   UNL     1      -3.614   1.878  24.272  0.00  0.00    +0.043 C 
ATOM     10  C   UNL     1      -4.134   1.640  24.866  0.00  0.00    -0.033 C 
ATOM     11  C   UNL     1      -4.438   0.872  24.864  0.00  0.00    -0.048 C 
ATOM     12  C   UNL     1      -4.960   0.634  25.459  0.00  0.00    +0.026 C 
ATOM     13  C   UNL     1      -4.222   0.344  24.270  0.00  0.00    +0.027 C 
ATOM     26  C   UNL     1      -3.702   0.582  23.676  0.00  0.00    +0.005 C 
ATOM     27  C   UNL     1      -3.397   1.349  23.676  0.00  0.00    +0.006 C 
ENDROOT
BRANCH  27  28
ATOM     28  C   UNL     1      -2.877   1.587  23.083  0.00  0.00    +0.000 C 
ATOM     29  C   UNL     1      -3.164   1.978  22.415  0.00  0.00    +0.000 C 
ATOM     30  C   UNL     1      -2.070   1.434  23.156  0.00  0.00    +0.000 C 
ENDBRANCH  27  28
BRANCH   9   8
ATOM      8  C   UNL     1      -3.309   2.644  24.273  0.00  0.00    +0.117 C 
BRANCH   8   7
ATOM      7  N   UNL     1      -3.309   3.088  24.967  0.00  0.00    -0.236 NA
BRANCH   7   6
ATOM      3  C   UNL     1      -1.767   5.010  25.209  0.00  0.00    +0.225 A 
ATOM      4  C   UNL     1      -1.581   4.285  25.557  0.00  0.00    +0.059 A 
ATOM      5  C   UNL     1      -2.095   3.644  25.476  0.00  0.00    +0.022 A 
ATOM      6  C   UNL     1      -2.795   3.729  25.048  0.00  0.00    +0.085 A 
ATOM     31  C   UNL     1      -2.981   4.453  24.700  0.00  0.00    +0.118 A 
ATOM     32  N   UNL     1      -2.468   5.093  24.780  0.00  0.00    -0.209 NA
BRANCH   3   2
ATOM      1  C   UNL     1      -0.617   5.735  24.771  0.00  0.00    +0.254 C 
ATOM      2  O   UNL     1      -1.254   5.650  25.289  0.00  0.00    -0.456 OA
ENDBRANCH   3   2
ENDBRANCH   7   6
ENDBRANCH   8   7
ENDBRANCH   9   8
BRANCH  13  14
ATOM     14  C   UNL     1      -4.526  -0.422  24.269  0.00  0.00    +0.091 C 
BRANCH  14  15
ATOM     15  C   UNL     1      -4.014  -1.070  24.302  0.00  0.00    +0.227 A 
ATOM     16  N   UNL     1      -4.198  -1.844  24.088  0.00  0.00    -0.111 NA
ATOM     17  N   UNL     1      -3.526  -2.308  24.209  0.00  0.00    -0.107 NA
ATOM     18  C   UNL     1      -2.927  -1.819  24.496  0.00  0.00    +0.251 A 
ATOM     19  O   UNL     1      -3.229  -1.053  24.554  0.00  0.00    -0.419 OA
BRANCH  18  20
ATOM     20  C   UNL     1      -2.161  -2.055  24.692  0.00  0.00    +0.074 A 
ATOM     21  C   UNL     1      -1.825  -2.712  24.324  0.00  0.00    +0.104 A 
ATOM     22  N   UNL     1      -1.059  -2.948  24.520  0.00  0.00    -0.242 NA
ATOM     23  C   UNL     1      -0.629  -2.526  25.085  0.00  0.00    +0.099 A 
ATOM     24  C   UNL     1      -0.965  -1.869  25.452  0.00  0.00    +0.021 A 
ATOM     25  C   UNL     1      -1.732  -1.633  25.256  0.00  0.00    +0.008 A 
ENDBRANCH  18  20
ENDBRANCH  14  15
ENDBRANCH  13  14
TORSDOF 8
ENDMDL
MODEL 7
REMARK VINA RESULT:      -8.0      3.139      5.658
REMARK  Name = 
REMARK  8 active torsions:
REMARK  status: ('A' for Active; 'I' for Inactive)
REMARK    1  A    between atoms: O_2  and  C_3
REMARK    2  A    between atoms: C_6  and  N_7
REMARK    3  A    between atoms: N_7  and  C_8
REMARK    4  A    between atoms: C_8  and  C_9
REMARK    5  A    between atoms: C_13  and  C_14
REMARK    6  A    between atoms: C_14  and  C_15
REMARK    7  A    between atoms: C_18  and  C_20
REMARK    8  A    between atoms: C_27  and  C_28
REMARK                            x       y       z     vdW  Elec       q    Type
REMARK                         _______ _______ _______ _____ _____    ______ ____
ROOT
ATOM      9  C   UNL     1      -0.748   1.325  24.058  0.00  0.00    +0.043 C 
ATOM     10  C   UNL     1      -1.191   1.490  23.382  0.00  0.00    -0.033 C 
ATOM     11  C   UNL     1      -2.015   1.515  23.425  0.00  0.00    -0.048 C 
ATOM     12  C   UNL     1      -2.459   1.680  22.748  0.00  0.00    +0.026 C 
ATOM     13  C   UNL     1      -2.395   1.375  24.143  0.00  0.00    +0.027 C 
ATOM     26  C   UNL     1      -1.952   1.210  24.819  0.00  0.00    +0.005 C 
ATOM     27  C   UNL     1      -1.129   1.185  24.777  0.00  0.00    +0.006 C 
ENDROOT
BRANCH  27  28
ATOM     28  C   UNL     1      -0.686   1.020  25.453  0.00  0.00    +0.000 C 
ATOM     29  C   UNL     1      -0.555   0.237  25.680  0.00  0.00    +0.000 C 
ATOM     30  C   UNL     1      -0.373   1.637  25.902  0.00  0.00    +0.000 C 
ENDBRANCH  27  28
BRANCH   9   8
ATOM      8  C   UNL     1       0.075   1.300  24.016  0.00  0.00    +0.117 C 
BRANCH   8   7
ATOM      7  N   UNL     1       0.453   1.361  23.287  0.00  0.00    -0.236 NA
BRANCH   7   6
ATOM      3  C   UNL     1       2.723   0.419  22.986  0.00  0.00    +0.225 A 
ATOM      4  C   UNL     1       2.063  -0.010  22.741  0.00  0.00    +0.059 A 
ATOM      5  C   UNL     1       1.306   0.304  22.841  0.00  0.00    +0.022 A 
ATOM      6  C   UNL     1       1.210   1.047  23.186  0.00  0.00    +0.085 A 
ATOM     31  C   UNL     1       1.871   1.476  23.431  0.00  0.00    +0.118 A 
ATOM     32  N   UNL     1       2.627   1.162  23.331  0.00  0.00    -0.209 NA
BRANCH   3   2
ATOM      1  C   UNL     1       4.124   0.609  22.782  0.00  0.00    +0.254 C 
ATOM      2  O   UNL     1       3.479   0.105  22.885  0.00  0.00    -0.456 OA
ENDBRANCH   3   2
ENDBRANCH   7   6
ENDBRANCH   8   7
ENDBRANCH   9   8
BRANCH  13  14
ATOM     14  C   UNL     1      -3.218   1.400  24.186  0.00  0.00    +0.091 C 
BRANCH  14  15
ATOM     15  C   UNL     1      -3.642   0.718  24.378  0.00  0.00    +0.227 A 
ATOM     16  N   UNL     1      -4.346   0.690  24.805  0.00  0.00    -0.111 NA
ATOM     17  N   UNL     1      -4.576  -0.101  24.867  0.00  0.00    -0.107 NA
ATOM     18  C   UNL     1      -4.012  -0.561  24.477  0.00  0.00    +0.251 A 
ATOM     19  O   UNL     1      -3.435  -0.054  24.175  0.00  0.00    -0.419 OA
BRANCH  18  20
ATOM     20  C   UNL     1      -4.024  -1.383  24.403  0.00  0.00    +0.074 A 
ATOM     21  C   UNL     1      -4.438  -1.735  23.783  0.00  0.00    +0.104 A 
ATOM     22  N   UNL     1      -4.450  -2.557  23.709  0.00  0.00    -0.242 NA
ATOM     23  C   UNL     1      -4.048  -3.025  24.257  0.00  0.00    +0.099 A 
ATOM     24  C   UNL     1      -3.634  -2.673  24.876  0.00  0.00    +0.021 A 
ATOM     25  C   UNL     1      -3.622  -1.851  24.950  0.00  0.00    +0.008 A 
ENDBRANCH  18  20
ENDBRANCH  14  15
ENDBRANCH  13  14
TORSDOF 8
ENDMDL
MODEL 8
REMARK VINA RESULT:      -8.0      1.711      3.021
REMARK  Name = 
REMARK  8 active torsions:
REMARK  status: ('A' for Active; 'I' for Inactive)
REMARK    1  A    between atoms: O_2  and  C_3
REMARK    2  A    between atoms: C_6  and  N_7
REMARK    3  A    between atoms: N_7  and  C_8
REMARK    4  A    between atoms: C_8  and  C_9
REMARK    5  A    between atoms: C_13  and  C_14
REMARK    6  A    between atoms: C_14  and  C_15
REMARK    7  A    between atoms: C_18  and  C_20
REMARK    8  A    between atoms: C_27  and  C_28
REMARK                            x       y       z     vdW  Elec       q    Type
REMARK                         _______ _______ _______ _____ _____    ______ ____
ROOT
ATOM      9  C   UNL     1      -0.653   0.866  24.883  0.00  0.00    +0.043 C 
ATOM     10  C   UNL     1      -0.552   1.086  25.672  0.00  0.00    -0.033 C 
ATOM     11  C   UNL     1      -0.550   1.884  25.880  0.00  0.00    -0.048 C 
ATOM     12  C   UNL     1      -0.449   2.104  26.670  0.00  0.00    +0.026 C 
ATOM     13  C   UNL     1      -0.649   2.462  25.301  0.00  0.00    +0.027 C 
ATOM     26  C   UNL     1      -0.751   2.243  24.512  0.00  0.00    +0.005 C 
ATOM     27  C   UNL     1      -0.752   1.445  24.303  0.00  0.00    +0.006 C 
ENDROOT
BRANCH  27  28
ATOM     28  C   UNL     1      -0.854   1.226  23.515  0.00  0.00    +0.000 C 
ATOM     29  C   UNL     1      -1.605   1.246  23.174  0.00  0.00    +0.000 C 
ATOM     30  C   UNL     1      -0.204   0.986  23.066  0.00  0.00    +0.000 C 
ENDBRANCH  27  28
BRANCH   9   8
ATOM      8  C   UNL     1      -0.655   0.069  24.673  0.00  0.00    +0.117 C 
BRANCH   8   7
ATOM      7  N   UNL     1      -0.803  -0.508  25.243  0.00  0.00    -0.236 NA
BRANCH   7   6
ATOM      3  C   UNL     1      -2.244  -2.446  24.698  0.00  0.00    +0.225 A 
ATOM      4  C   UNL     1      -2.543  -1.824  25.150  0.00  0.00    +0.059 A 
ATOM      5  C   UNL     1      -2.063  -1.177  25.332  0.00  0.00    +0.022 A 
ATOM      6  C   UNL     1      -1.284  -1.154  25.061  0.00  0.00    +0.085 A 
ATOM     31  C   UNL     1      -0.985  -1.776  24.610  0.00  0.00    +0.118 A 
ATOM     32  N   UNL     1      -1.465  -2.421  24.428  0.00  0.00    -0.209 NA
BRANCH   3   2
ATOM      1  C   UNL     1      -3.534  -2.983  24.401  0.00  0.00    +0.254 C 
ATOM      2  O   UNL     1      -2.724  -3.091  24.517  0.00  0.00    -0.456 OA
ENDBRANCH   3   2
ENDBRANCH   7   6
ENDBRANCH   8   7
ENDBRANCH   9   8
BRANCH  13  14
ATOM     14  C   UNL     1      -0.648   3.260  25.510  0.00  0.00    +0.091 C 
BRANCH  14  15
ATOM     15  C   UNL     1      -1.342   3.704  25.451  0.00  0.00    +0.227 A 
ATOM     16  N   UNL     1      -1.388   4.513  25.303  0.00  0.00    -0.111 NA
ATOM     17  N   UNL     1      -2.186   4.724  25.291  0.00  0.00    -0.107 NA
ATOM     18  C   UNL     1      -2.632   4.045  25.432  0.00  0.00    +0.251 A 
ATOM     19  O   UNL     1      -2.110   3.413  25.531  0.00  0.00    -0.419 OA
BRANCH  18  20
ATOM     20  C   UNL     1      -3.456   4.004  25.467  0.00  0.00    +0.074 A 
ATOM     21  C   UNL     1      -3.840   4.061  26.194  0.00  0.00    +0.104 A 
ATOM     22  N   UNL     1      -4.664   4.020  26.229  0.00  0.00    -0.242 NA
ATOM     23  C   UNL     1      -5.102   3.922  25.536  0.00  0.00    +0.099 A 
ATOM     24  C   UNL     1      -4.717   3.865  24.810  0.00  0.00    +0.021 A 
ATOM     25  C   UNL     1      -3.893   3.906  24.775  0.00  0.00    +0.008 A 
ENDBRANCH  18  20
ENDBRANCH  14  15
ENDBRANCH  13  14
TORSDOF 8
ENDMDL
MODEL 9
REMARK VINA RESULT:      -7.9      2.257      5.137
REMARK  Name = 
REMARK  8 active torsions:
REMARK  status: ('A' for Active; 'I' for Inactive)
REMARK    1  A    between atoms: O_2  and  C_3
REMARK    2  A    between atoms: C_6  and  N_7
REMARK    3  A    between atoms: N_7  and  C_8
REMARK    4  A    between atoms: C_8  and  C_9
REMARK    5  A    between atoms: C_13  and  C_14
REMARK    6  A    between atoms: C_14  and  C_15
REMARK    7  A    between atoms: C_18  and  C_20
REMARK    8  A    between atoms: C_27  and  C_28
REMARK                            x       y       z     vdW  Elec       q    Type
REMARK                         _______ _______ _______ _____ _____    ______ ____
ROOT
ATOM      9  C   UNL     1      -2.659   2.923  24.319  0.00  0.00    +0.043 C 
ATOM     10  C   UNL     1      -2.828   2.518  23.620  0.00  0.00    -0.033 C 
ATOM     11  C   UNL     1      -2.236   2.085  23.242  0.00  0.00    -0.048 C 
ATOM     12  C   UNL     1      -2.404   1.679  22.543  0.00  0.00    +0.026 C 
ATOM     13  C   UNL     1      -1.476   2.057  23.562  0.00  0.00    +0.027 C 
ATOM     26  C   UNL     1      -1.308   2.462  24.261  0.00  0.00    +0.005 C 
ATOM     27  C   UNL     1      -1.899   2.896  24.639  0.00  0.00    +0.006 C 
ENDROOT
BRANCH  27  28
ATOM     28  C   UNL     1      -1.731   3.301  25.337  0.00  0.00    +0.000 C 
ATOM     29  C   UNL     1      -1.727   2.898  26.058  0.00  0.00    +0.000 C 
ATOM     30  C   UNL     1      -1.566   4.108  25.316  0.00  0.00    +0.000 C 
ENDBRANCH  27  28
BRANCH   9   8
ATOM      8  C   UNL     1      -3.250   3.357  24.698  0.00  0.00    +0.117 C 
BRANCH   8   7
ATOM      7  N   UNL     1      -4.023   3.336  24.414  0.00  0.00    -0.236 NA
BRANCH   7   6
ATOM      3  C   UNL     1      -5.893   2.811  25.949  0.00  0.00    +0.225 A 
ATOM      4  C   UNL     1      -5.679   2.273  25.361  0.00  0.00    +0.059 A 
ATOM      5  C   UNL     1      -5.055   2.448  24.849  0.00  0.00    +0.022 A 
ATOM      6  C   UNL     1      -4.647   3.161  24.926  0.00  0.00    +0.085 A 
ATOM     31  C   UNL     1      -4.861   3.698  25.514  0.00  0.00    +0.118 A 
ATOM     32  N   UNL     1      -5.484   3.523  26.025  0.00  0.00    -0.209 NA
BRANCH   3   2
ATOM      1  C   UNL     1      -6.571   1.887  26.801  0.00  0.00    +0.254 C 
ATOM      2  O   UNL     1      -6.516   2.636  26.460  0.00  0.00    -0.456 OA
ENDBRANCH   3   2
ENDBRANCH   7   6
ENDBRANCH   8   7
ENDBRANCH   9   8
BRANCH  13  14
ATOM     14  C   UNL     1      -0.885   1.624  23.184  0.00  0.00    +0.091 C 
BRANCH  14  15
ATOM     15  C   UNL     1      -0.579   0.945  23.541  0.00  0.00    +0.227 A 
ATOM     16  N   UNL     1       0.219   0.787  23.675  0.00  0.00    -0.111 NA
ATOM     17  N   UNL     1       0.274   0.050  24.043  0.00  0.00    -0.107 NA
ATOM     18  C   UNL     1      -0.490  -0.247  24.134  0.00  0.00    +0.251 A 
ATOM     19  O   UNL     1      -1.018   0.307  23.824  0.00  0.00    -0.419 OA
BRANCH  18  20
ATOM     20  C   UNL     1      -0.692  -0.970  24.477  0.00  0.00    +0.074 A 
ATOM     21  C   UNL     1      -0.222  -1.287  25.076  0.00  0.00    +0.104 A 
ATOM     22  N   UNL     1      -0.424  -2.011  25.419  0.00  0.00    -0.242 NA
ATOM     23  C   UNL     1      -1.095  -2.416  25.160  0.00  0.00    +0.099 A 
ATOM     24  C   UNL     1      -1.563  -2.099  24.561  0.00  0.00    +0.021 A 
ATOM     25  C   UNL     1      -1.362  -1.375  24.219  0.00  0.00    +0.008 A 
ENDBRANCH  18  20
ENDBRANCH  14  15
ENDBRANCH  13  14
TORSDOF 8
ENDMDL
MODEL 10
REMARK VINA RESULT:      -7.9      1.912      5.760
REMARK  Name = 
REMARK  8 active torsions:
REMARK  status: ('A' for Active; 'I' for Inactive)
REMARK    1  A    between atoms: O_2  and  C_3
REMARK    2  A    between atoms: C_6  and  N_7
REMARK    3  A    between atoms: N_7  and  C_8
REMARK    4  A    between atoms: C_8  and  C_9
REMARK    5  A    between atoms: C_13  and  C_14
REMARK    6  A    between atoms: C_14  and  C_15
REMARK    7  A    between atoms: C_18  and  C_20
REMARK    8  A    between atoms: C_27  and  C_28
REMARK                            x       y       z     vdW  Elec       q    Type
REMARK                         _______ _______ _______ _____ _____    ______ ____
ROOT
ATOM      9  C   UNL     1      -2.283   2.141  24.522  0.00  0.00    +0.043 C 
ATOM     10  C   UNL     1      -1.786   2.063  25.177  0.00  0.00    -0.033 C 
ATOM     11  C   UNL     1      -1.204   1.478  25.185  0.00  0.00    -0.048 C 
ATOM     12  C   UNL     1      -0.707   1.400  25.840  0.00  0.00    +0.026 C 
ATOM     13  C   UNL     1      -1.118   0.972  24.539  0.00  0.00    +0.027 C 
ATOM     26  C   UNL     1      -1.614   1.050  23.885  0.00  0.00    +0.005 C 
ATOM     27  C   UNL     1      -2.197   1.634  23.876  0.00  0.00    +0.006 C 
ENDROOT
BRANCH  27  28
ATOM     28  C   UNL     1      -2.692   1.712  23.222  0.00  0.00    +0.000 C 
ATOM     29  C   UNL     1      -3.404   1.294  23.191  0.00  0.00    +0.000 C 
ATOM     30  C   UNL     1      -2.479   2.208  22.599  0.00  0.00    +0.000 C 
ENDBRANCH  27  28
BRANCH   9   8
ATOM      8  C   UNL     1      -2.865   2.725  24.513  0.00  0.00    +0.117 C 
BRANCH   8   7
ATOM      7  N   UNL     1      -3.045   3.139  25.202  0.00  0.00    -0.236 NA
BRANCH   7   6
ATOM      3  C   UNL     1      -5.330   4.023  25.555  0.00  0.00    +0.225 A 
ATOM      4  C   UNL     1      -5.126   3.279  25.848  0.00  0.00    +0.059 A 
ATOM      5  C   UNL     1      -4.364   2.984  25.730  0.00  0.00    +0.022 A 
ATOM      6  C   UNL     1      -3.807   3.434  25.320  0.00  0.00    +0.085 A 
ATOM     31  C   UNL     1      -4.012   4.178  25.027  0.00  0.00    +0.118 A 
ATOM     32  N   UNL     1      -4.773   4.472  25.145  0.00  0.00    -0.209 NA
BRANCH   3   2
ATOM      1  C   UNL     1      -6.264   5.102  25.485  0.00  0.00    +0.254 C 
ATOM      2  O   UNL     1      -6.092   4.317  25.672  0.00  0.00    -0.456 OA
ENDBRANCH   3   2
ENDBRANCH   7   6
ENDBRANCH   8   7
ENDBRANCH   9   8
BRANCH  13  14
ATOM     14  C   UNL     1      -0.536   0.388  24.548  0.00  0.00    +0.091 C 
BRANCH  14  15
ATOM     15  C   UNL     1      -0.751  -0.409  24.521  0.00  0.00    +0.227 A 
ATOM     16  N   UNL     1      -0.246  -1.041  24.362  0.00  0.00    -0.111 NA
ATOM     17  N   UNL     1      -0.691  -1.735  24.391  0.00  0.00    -0.107 NA
ATOM     18  C   UNL     1      -1.470  -1.531  24.570  0.00  0.00    +0.251 A 
ATOM     19  O   UNL     1      -1.507  -0.711  24.650  0.00  0.00    -0.419 OA
BRANCH  18  20
ATOM     20  C   UNL     1      -2.102  -2.056  24.653  0.00  0.00    +0.074 A 
ATOM     21  C   UNL     1      -2.147  -2.726  24.173  0.00  0.00    +0.104 A 
ATOM     22  N   UNL     1      -2.779  -3.250  24.256  0.00  0.00    -0.242 NA
ATOM     23  C   UNL     1      -3.365  -3.104  24.820  0.00  0.00    +0.099 A 
ATOM     24  C   UNL     1      -3.318  -2.435  25.299  0.00  0.00    +0.021 A 
ATOM     25  C   UNL     1      -2.687  -1.910  25.216  0.00  0.00    +0.008 A 
ENDBRANCH  18  20
ENDBRANCH  14  15
ENDBRANCH  13  14
TORSDOF 8
ENDMDL
