MODEL 1
REMARK VINA RESULT:      -9.5      0.000      0.000
REMARK  Name = 
REMARK  6 active torsions:
REMARK  status: ('A' for Active; 'I' for Inactive)
REMARK    1  A    between atoms: C_3  and  C_4
REMARK    2  A    between atoms: C_4  and  N_5
REMARK    3  A    between atoms: N_8  and  C_9
REMARK    4  A    between atoms: C_17  and  N_18
REMARK    5  A    between atoms: N_18  and  C_19
REMARK    6  A    between atoms: C_19  and  C_20
REMARK                            x       y       z     vdW  Elec       q    Type
REMARK                         _______ _______ _______ _____ _____    ______ ____
ROOT
ATOM      1  O   UNL     1      -3.370   0.999  23.577  0.00  0.00    -0.219 OA
ATOM      2  C   UNL     1      -3.874   1.028  24.229  0.00  0.00    +0.199 C 
ATOM      3  C   UNL     1      -4.065   1.702  24.665  0.00  0.00    +0.169 C 
ATOM     15  O   UNL     1      -4.585   1.480  25.265  0.00  0.00    -0.350 OA
ATOM     16  C   UNL     1      -4.716   0.668  25.201  0.00  0.00    +0.162 C 
ATOM     17  C   UNL     1      -4.276   0.388  24.560  0.00  0.00    +0.135 C 
ENDROOT
BRANCH   3   4
ATOM      4  C   UNL     1      -3.785   2.465  24.524  0.00  0.00    +0.149 C 
BRANCH   4   5
ATOM      5  N   UNL     1      -3.349   2.858  25.105  0.00  0.00    -0.184 NA
ATOM      6  C   UNL     1      -2.797   3.431  24.889  0.00  0.00    +0.344 C 
ATOM      7  O   UNL     1      -2.680   3.612  24.093  0.00  0.00    -0.249 OA
ATOM      8  N   UNL     1      -2.361   3.824  25.470  0.00  0.00    -0.161 NA
BRANCH   8   9
ATOM      9  C   UNL     1      -1.809   4.397  25.254  0.00  0.00    +0.075 A 
ATOM     10  C   UNL     1      -2.022   5.194  25.244  0.00  0.00    +0.017 A 
ATOM     11  C   UNL     1      -1.469   5.766  25.027  0.00  0.00    +0.001 A 
ATOM     12  C   UNL     1      -0.703   5.542  24.820  0.00  0.00    +0.000 A 
ATOM     13  C   UNL     1      -0.489   4.745  24.831  0.00  0.00    +0.001 A 
ATOM     14  C   UNL     1      -1.041   4.172  25.047  0.00  0.00    +0.017 A 
ENDBRANCH   8   9
ENDBRANCH   4   5
ENDBRANCH   3   4
BRANCH  17  18
ATOM     18  N   UNL     1      -4.245  -0.393  24.298  0.00  0.00    -0.209 NA
BRANCH  18  19
ATOM     19  C   UNL     1      -4.228  -1.011  24.843  0.00  0.00    +0.115 C 
BRANCH  19  20
ATOM     20  C   UNL     1      -3.987  -1.764  24.606  0.00  0.00    -0.002 A 
ATOM     21  C   UNL     1      -4.305  -2.103  23.923  0.00  0.00    +0.018 A 
ATOM     22  C   UNL     1      -4.064  -2.856  23.687  0.00  0.00    +0.099 A 
ATOM     23  N   UNL     1      -3.507  -3.270  24.132  0.00  0.00    -0.242 NA
ATOM     24  C   UNL     1      -3.190  -2.932  24.815  0.00  0.00    +0.099 A 
ATOM     25  C   UNL     1      -3.430  -2.178  25.052  0.00  0.00    +0.018 A 
ENDBRANCH  19  20
ENDBRANCH  18  19
ENDBRANCH  17  18
TORSDOF 6
ENDMDL
MODEL 2
REMARK VINA RESULT:      -9.2      0.850      5.974
REMARK  Name = 
REMARK  6 active torsions:
REMARK  status: ('A' for Active; 'I' for Inactive)
REMARK    1  A    between atoms: C_3  and  C_4
REMARK    2  A    between atoms: C_4  and  N_5
REMARK    3  A    between atoms: N_8  and  C_9
REMARK    4  A    between atoms: C_17  and  N_18
REMARK    5  A    between atoms: N_18  and  C_19
REMARK    6  A    between atoms: C_19  and  C_20
REMARK                            x       y       z     vdW  Elec       q    Type
REMARK                         _______ _______ _______ _____ _____    ______ ____
ROOT
ATOM      1  O   UNL     1      -3.075   2.370  23.622  0.00  0.00    -0.219 OA
ATOM      2  C   UNL     1      -3.511   2.472  24.315  0.00  0.00    +0.199 C 
ATOM      3  C   UNL     1      -4.058   1.938  24.627  0.00  0.00    +0.169 C 
ATOM     15  O   UNL     1      -4.361   2.260  25.322  0.00  0.00    -0.350 OA
ATOM     16  C   UNL     1      -4.002   2.993  25.442  0.00  0.00    +0.162 C 
ATOM     17  C   UNL     1      -3.476   3.124  24.819  0.00  0.00    +0.135 C 
ENDROOT
BRANCH   3   4
ATOM      4  C   UNL     1      -4.265   1.210  24.299  0.00  0.00    +0.149 C 
BRANCH   4   5
ATOM      5  N   UNL     1      -4.327   0.543  24.782  0.00  0.00    -0.184 NA
ATOM      6  C   UNL     1      -4.110  -0.198  24.492  0.00  0.00    +0.344 C 
ATOM      7  O   UNL     1      -3.830  -0.273  23.719  0.00  0.00    -0.249 OA
ATOM      8  N   UNL     1      -4.173  -0.864  24.975  0.00  0.00    -0.161 NA
BRANCH   8   9
ATOM      9  C   UNL     1      -3.955  -1.605  24.685  0.00  0.00    +0.075 A 
ATOM     10  C   UNL     1      -3.306  -2.000  25.006  0.00  0.00    +0.017 A 
ATOM     11  C   UNL     1      -3.090  -2.742  24.714  0.00  0.00    +0.001 A 
ATOM     12  C   UNL     1      -3.522  -3.087  24.103  0.00  0.00    +0.000 A 
ATOM     13  C   UNL     1      -4.171  -2.692  23.782  0.00  0.00    +0.001 A 
ATOM     14  C   UNL     1      -4.388  -1.951  24.072  0.00  0.00    +0.017 A 
ENDBRANCH   8   9
ENDBRANCH   4   5
ENDBRANCH   3   4
BRANCH  17  18
ATOM     18  N   UNL     1      -3.000   3.790  24.718  0.00  0.00    -0.209 NA
BRANCH  18  19
ATOM     19  C   UNL     1      -2.511   4.044  25.332  0.00  0.00    +0.115 C 
BRANCH  19  20
ATOM     20  C   UNL     1      -1.859   4.523  25.169  0.00  0.00    -0.002 A 
ATOM     21  C   UNL     1      -1.952   5.340  25.104  0.00  0.00    +0.018 A 
ATOM     22  C   UNL     1      -1.300   5.818  24.941  0.00  0.00    +0.099 A 
ATOM     23  N   UNL     1      -0.554   5.479  24.843  0.00  0.00    -0.242 NA
ATOM     24  C   UNL     1      -0.461   4.662  24.908  0.00  0.00    +0.099 A 
ATOM     25  C   UNL     1      -1.113   4.183  25.071  0.00  0.00    +0.018 A 
ENDBRANCH  19  20
ENDBRANCH  18  19
ENDBRANCH  17  18
TORSDOF 6
ENDMDL
MODEL 3
REMARK VINA RESULT:      -9.1      1.804      6.317
REMARK  Name = 
REMARK  6 active torsions:
REMARK  status: ('A' for Active; 'I' for Inactive)
REMARK    1  A    between atoms: C_3  and  C_4
REMARK    2  A    between atoms: C_4  and  N_5
REMARK    3  A    between atoms: N_8  and  C_9
REMARK    4  A    between atoms: C_17  and  N_18
REMARK    5  A    between atoms: N_18  and  C_19
REMARK    6  A    between atoms: C_19  and  C_20
REMARK                            x       y       z     vdW  Elec       q    Type
REMARK                         _______ _______ _______ _____ _____    ______ ____
ROOT
ATOM      1  O   UNL     1      -1.391   1.605  23.965  0.00  0.00    -0.219 OA
ATOM      2  C   UNL     1      -1.086   1.528  24.728  0.00  0.00    +0.199 C 
ATOM      3  C   UNL     1      -1.037   0.827  25.162  0.00  0.00    +0.169 C 
ATOM     15  O   UNL     1      -0.698   1.003  25.893  0.00  0.00    -0.350 OA
ATOM     16  C   UNL     1      -0.538   1.812  25.912  0.00  0.00    +0.162 C 
ATOM     17  C   UNL     1      -0.778   2.137  25.191  0.00  0.00    +0.135 C 
ENDROOT
BRANCH   3   4
ATOM      4  C   UNL     1      -1.283   0.082  24.908  0.00  0.00    +0.149 C 
BRANCH   4   5
ATOM      5  N   UNL     1      -1.965  -0.257  25.227  0.00  0.00    -0.184 NA
ATOM      6  C   UNL     1      -2.337  -0.881  24.835  0.00  0.00    +0.344 C 
ATOM      7  O   UNL     1      -2.027  -1.166  24.126  0.00  0.00    -0.249 OA
ATOM      8  N   UNL     1      -3.019  -1.220  25.154  0.00  0.00    -0.161 NA
BRANCH   8   9
ATOM      9  C   UNL     1      -3.390  -1.844  24.762  0.00  0.00    +0.075 A 
ATOM     10  C   UNL     1      -3.971  -1.689  24.198  0.00  0.00    +0.017 A 
ATOM     11  C   UNL     1      -4.342  -2.314  23.806  0.00  0.00    +0.001 A 
ATOM     12  C   UNL     1      -4.132  -3.092  23.980  0.00  0.00    +0.000 A 
ATOM     13  C   UNL     1      -3.551  -3.247  24.545  0.00  0.00    +0.001 A 
ATOM     14  C   UNL     1      -3.180  -2.623  24.936  0.00  0.00    +0.017 A 
ENDBRANCH   8   9
ENDBRANCH   4   5
ENDBRANCH   3   4
BRANCH  17  18
ATOM     18  N   UNL     1      -0.719   2.930  24.974  0.00  0.00    -0.209 NA
BRANCH  18  19
ATOM     19  C   UNL     1      -0.825   3.522  25.538  0.00  0.00    +0.115 C 
BRANCH  19  20
ATOM     20  C   UNL     1      -1.039   4.283  25.303  0.00  0.00    -0.002 A 
ATOM     21  C   UNL     1      -0.509   4.747  24.872  0.00  0.00    +0.018 A 
ATOM     22  C   UNL     1      -0.723   5.508  24.638  0.00  0.00    +0.099 A 
ATOM     23  N   UNL     1      -1.467   5.806  24.833  0.00  0.00    -0.242 NA
ATOM     24  C   UNL     1      -1.997   5.343  25.264  0.00  0.00    +0.099 A 
ATOM     25  C   UNL     1      -1.783   4.581  25.499  0.00  0.00    +0.018 A 
ENDBRANCH  19  20
ENDBRANCH  18  19
ENDBRANCH  17  18
TORSDOF 6
ENDMDL
MODEL 4
REMARK VINA RESULT:      -8.8      1.748      2.108
REMARK  Name = 
REMARK  6 active torsions:
REMARK  status: ('A' for Active; 'I' for Inactive)
REMARK    1  A    between atoms: C_3  and  C_4
REMARK    2  A    between atoms: C_4  and  N_5
REMARK    3  A    between atoms: N_8  and  C_9
REMARK    4  A    between atoms: C_17  and  N_18
REMARK    5  A    between atoms: N_18  and  C_19
REMARK    6  A    between atoms: C_19  and  C_20
REMARK                            x       y       z     vdW  Elec       q    Type
REMARK                         _______ _______ _______ _____ _____    ______ ____
ROOT
ATOM      1  O   UNL     1      -1.542   0.258  23.848  0.00  0.00    -0.219 OA
ATOM      2  C   UNL     1      -1.419   0.095  24.648  0.00  0.00    +0.199 C 
ATOM      3  C   UNL     1      -1.024   0.581  25.186  0.00  0.00    +0.169 C 
ATOM     15  O   UNL     1      -1.029   0.205  25.920  0.00  0.00    -0.350 OA
ATOM     16  C   UNL     1      -1.427  -0.513  25.836  0.00  0.00    +0.162 C 
ATOM     17  C   UNL     1      -1.668  -0.581  25.049  0.00  0.00    +0.135 C 
ENDROOT
BRANCH   3   4
ATOM      4  C   UNL     1      -0.684   1.313  25.019  0.00  0.00    +0.149 C 
BRANCH   4   5
ATOM      5  N   UNL     1      -0.800   1.949  25.533  0.00  0.00    -0.184 NA
ATOM      6  C   UNL     1      -0.912   2.708  25.230  0.00  0.00    +0.344 C 
ATOM      7  O   UNL     1      -0.908   2.832  24.415  0.00  0.00    -0.249 OA
ATOM      8  N   UNL     1      -1.028   3.343  25.745  0.00  0.00    -0.161 NA
BRANCH   8   9
ATOM      9  C   UNL     1      -1.140   4.102  25.442  0.00  0.00    +0.075 A 
ATOM     10  C   UNL     1      -0.519   4.492  25.063  0.00  0.00    +0.017 A 
ATOM     11  C   UNL     1      -0.633   5.251  24.761  0.00  0.00    +0.001 A 
ATOM     12  C   UNL     1      -1.366   5.621  24.838  0.00  0.00    +0.000 A 
ATOM     13  C   UNL     1      -1.987   5.231  25.216  0.00  0.00    +0.001 A 
ATOM     14  C   UNL     1      -1.875   4.472  25.519  0.00  0.00    +0.017 A 
ENDBRANCH   8   9
ENDBRANCH   4   5
ENDBRANCH   3   4
BRANCH  17  18
ATOM     18  N   UNL     1      -2.085  -1.213  24.722  0.00  0.00    -0.209 NA
BRANCH  18  19
ATOM     19  C   UNL     1      -2.761  -1.500  25.098  0.00  0.00    +0.115 C 
BRANCH  19  20
ATOM     20  C   UNL     1      -3.288  -1.983  24.686  0.00  0.00    -0.002 A 
ATOM     21  C   UNL     1      -3.190  -2.802  24.693  0.00  0.00    +0.018 A 
ATOM     22  C   UNL     1      -3.718  -3.284  24.281  0.00  0.00    +0.099 A 
ATOM     23  N   UNL     1      -4.343  -2.948  23.862  0.00  0.00    -0.242 NA
ATOM     24  C   UNL     1      -4.442  -2.128  23.855  0.00  0.00    +0.099 A 
ATOM     25  C   UNL     1      -3.914  -1.646  24.267  0.00  0.00    +0.018 A 
ENDBRANCH  19  20
ENDBRANCH  18  19
ENDBRANCH  17  18
TORSDOF 6
ENDMDL
MODEL 5
REMARK VINA RESULT:      -8.6      4.285      5.735
REMARK  Name = 
REMARK  6 active torsions:
REMARK  status: ('A' for Active; 'I' for Inactive)
REMARK    1  A    between atoms: C_3  and  C_4
REMARK    2  A    between atoms: C_4  and  N_5
REMARK    3  A    between atoms: N_8  and  C_9
REMARK    4  A    between atoms: C_17  and  N_18
REMARK    5  A    between atoms: N_18  and  C_19
REMARK    6  A    between atoms: C_19  and  C_20
REMARK                            x       y       z     vdW  Elec       q    Type
REMARK                         _______ _______ _______ _____ _____    ______ ____
ROOT
ATOM      1  O   UNL     1       0.651   1.792  24.274  0.00  0.00    -0.219 OA
ATOM      2  C   UNL     1       0.457   1.093  23.883  0.00  0.00    +0.199 C 
ATOM      3  C   UNL     1      -0.293   0.748  23.850  0.00  0.00    +0.169 C 
ATOM     15  O   UNL     1      -0.236   0.057  23.403  0.00  0.00    -0.350 OA
ATOM     16  C   UNL     1       0.548  -0.026  23.159  0.00  0.00    +0.162 C 
ATOM     17  C   UNL     1       0.976   0.614  23.456  0.00  0.00    +0.135 C 
ENDROOT
BRANCH   3   4
ATOM      4  C   UNL     1      -0.977   1.043  24.202  0.00  0.00    +0.149 C 
BRANCH   4   5
ATOM      5  N   UNL     1      -1.712   0.911  23.849  0.00  0.00    -0.184 NA
ATOM      6  C   UNL     1      -2.401   1.163  24.227  0.00  0.00    +0.344 C 
ATOM      7  O   UNL     1      -2.356   1.546  24.956  0.00  0.00    -0.249 OA
ATOM      8  N   UNL     1      -3.136   1.031  23.874  0.00  0.00    -0.161 NA
BRANCH   8   9
ATOM      9  C   UNL     1      -3.825   1.283  24.251  0.00  0.00    +0.075 A 
ATOM     10  C   UNL     1      -4.088   2.059  24.155  0.00  0.00    +0.017 A 
ATOM     11  C   UNL     1      -4.778   2.310  24.533  0.00  0.00    +0.001 A 
ATOM     12  C   UNL     1      -5.203   1.786  25.006  0.00  0.00    +0.000 A 
ATOM     13  C   UNL     1      -4.940   1.010  25.102  0.00  0.00    +0.001 A 
ATOM     14  C   UNL     1      -4.251   0.758  24.725  0.00  0.00    +0.017 A 
ENDBRANCH   8   9
ENDBRANCH   4   5
ENDBRANCH   3   4
BRANCH  17  18
ATOM     18  N   UNL     1       1.782   0.752  23.346  0.00  0.00    -0.209 NA
BRANCH  18  19
ATOM     19  C   UNL     1       2.232   0.228  22.895  0.00  0.00    +0.115 C 
BRANCH  19  20
ATOM     20  C   UNL     1       3.056   0.278  22.903  0.00  0.00    -0.002 A 
ATOM     21  C   UNL     1       3.431   0.943  22.590  0.00  0.00    +0.018 A 
ATOM     22  C   UNL     1       4.254   0.993  22.598  0.00  0.00    +0.099 A 
ATOM     23  N   UNL     1       4.702   0.379  22.919  0.00  0.00    -0.242 NA
ATOM     24  C   UNL     1       4.327  -0.286  23.232  0.00  0.00    +0.099 A 
ATOM     25  C   UNL     1       3.503  -0.336  23.224  0.00  0.00    +0.018 A 
ENDBRANCH  19  20
ENDBRANCH  18  19
ENDBRANCH  17  18
TORSDOF 6
ENDMDL
MODEL 6
REMARK VINA RESULT:      -7.8      3.933      5.070
REMARK  Name = 
REMARK  6 active torsions:
REMARK  status: ('A' for Active; 'I' for Inactive)
REMARK    1  A    between atoms: C_3  and  C_4
REMARK    2  A    between atoms: C_4  and  N_5
REMARK    3  A    between atoms: N_8  and  C_9
REMARK    4  A    between atoms: C_17  and  N_18
REMARK    5  A    between atoms: N_18  and  C_19
REMARK    6  A    between atoms: C_19  and  C_20
REMARK                            x       y       z     vdW  Elec       q    Type
REMARK                         _______ _______ _______ _____ _____    ______ ____
ROOT
ATOM      1  O   UNL     1      -1.165   1.557  25.379  0.00  0.00    -0.219 OA
ATOM      2  C   UNL     1      -1.357   1.477  24.581  0.00  0.00    +0.199 C 
ATOM      3  C   UNL     1      -0.831   1.299  23.970  0.00  0.00    +0.169 C 
ATOM     15  O   UNL     1      -1.257   1.272  23.265  0.00  0.00    -0.350 OA
ATOM     16  C   UNL     1      -2.048   1.434  23.439  0.00  0.00    +0.162 C 
ATOM     17  C   UNL     1      -2.109   1.560  24.252  0.00  0.00    +0.135 C 
ENDROOT
BRANCH   3   4
ATOM      4  C   UNL     1      -0.020   1.171  24.052  0.00  0.00    +0.149 C 
BRANCH   4   5
ATOM      5  N   UNL     1       0.388   0.738  23.479  0.00  0.00    -0.184 NA
ATOM      6  C   UNL     1       1.213   0.749  23.466  0.00  0.00    +0.344 C 
ATOM      7  O   UNL     1       1.629   1.192  24.023  0.00  0.00    -0.249 OA
ATOM      8  N   UNL     1       1.621   0.316  22.893  0.00  0.00    -0.161 NA
BRANCH   8   9
ATOM      9  C   UNL     1       2.446   0.327  22.880  0.00  0.00    +0.075 A 
ATOM     10  C   UNL     1       2.846   1.011  22.651  0.00  0.00    +0.017 A 
ATOM     11  C   UNL     1       3.671   1.021  22.638  0.00  0.00    +0.001 A 
ATOM     12  C   UNL     1       4.096   0.348  22.853  0.00  0.00    +0.000 A 
ATOM     13  C   UNL     1       3.696  -0.336  23.081  0.00  0.00    +0.001 A 
ATOM     14  C   UNL     1       2.871  -0.348  23.095  0.00  0.00    +0.017 A 
ENDBRANCH   8   9
ENDBRANCH   4   5
ENDBRANCH   3   4
BRANCH  17  18
ATOM     18  N   UNL     1      -2.801   1.738  24.664  0.00  0.00    -0.209 NA
BRANCH  18  19
ATOM     19  C   UNL     1      -3.479   1.966  24.253  0.00  0.00    +0.115 C 
BRANCH  19  20
ATOM     20  C   UNL     1      -4.164   2.168  24.667  0.00  0.00    -0.002 A 
ATOM     21  C   UNL     1      -4.742   1.596  24.813  0.00  0.00    +0.018 A 
ATOM     22  C   UNL     1      -5.426   1.799  25.226  0.00  0.00    +0.099 A 
ATOM     23  N   UNL     1      -5.534   2.572  25.493  0.00  0.00    -0.242 NA
ATOM     24  C   UNL     1      -4.957   3.143  25.347  0.00  0.00    +0.099 A 
ATOM     25  C   UNL     1      -4.272   2.941  24.933  0.00  0.00    +0.018 A 
ENDBRANCH  19  20
ENDBRANCH  18  19
ENDBRANCH  17  18
TORSDOF 6
ENDMDL
MODEL 7
REMARK VINA RESULT:      -7.2     14.271     15.054
REMARK  Name = 
REMARK  6 active torsions:
REMARK  status: ('A' for Active; 'I' for Inactive)
REMARK    1  A    between atoms: C_3  and  C_4
REMARK    2  A    between atoms: C_4  and  N_5
REMARK    3  A    between atoms: N_8  and  C_9
REMARK    4  A    between atoms: C_17  and  N_18
REMARK    5  A    between atoms: N_18  and  C_19
REMARK    6  A    between atoms: C_19  and  C_20
REMARK                            x       y       z     vdW  Elec       q    Type
REMARK                         _______ _______ _______ _____ _____    ______ ____
ROOT
ATOM      1  O   UNL     1      -4.905  -9.516  17.149  0.00  0.00    -0.219 OA
ATOM      2  C   UNL     1      -5.203  -9.951  16.514  0.00  0.00    +0.199 C 
ATOM      3  C   UNL     1      -6.001 -10.053  16.329  0.00  0.00    +0.169 C 
ATOM     15  O   UNL     1      -6.048 -10.524  15.654  0.00  0.00    -0.350 OA
ATOM     16  C   UNL     1      -5.279 -10.714  15.421  0.00  0.00    +0.162 C 
ATOM     17  C   UNL     1      -4.757 -10.359  15.954  0.00  0.00    +0.135 C 
ENDROOT
BRANCH   3   4
ATOM      4  C   UNL     1      -6.640  -9.738  16.746  0.00  0.00    +0.149 C 
BRANCH   4   5
ATOM      5  N   UNL     1      -7.385  -9.702  16.393  0.00  0.00    -0.184 NA
ATOM      6  C   UNL     1      -8.004  -9.315  16.777  0.00  0.00    +0.344 C 
ATOM      7  O   UNL     1      -7.879  -8.965  17.513  0.00  0.00    -0.249 OA
ATOM      8  N   UNL     1      -8.750  -9.279  16.424  0.00  0.00    -0.161 NA
BRANCH   8   9
ATOM      9  C   UNL     1      -9.369  -8.893  16.808  0.00  0.00    +0.075 A 
ATOM     10  C   UNL     1      -9.779  -9.271  17.415  0.00  0.00    +0.017 A 
ATOM     11  C   UNL     1     -10.398  -8.884  17.799  0.00  0.00    +0.001 A 
ATOM     12  C   UNL     1     -10.607  -8.118  17.575  0.00  0.00    +0.000 A 
ATOM     13  C   UNL     1     -10.197  -7.739  16.968  0.00  0.00    +0.001 A 
ATOM     14  C   UNL     1      -9.578  -8.126  16.583  0.00  0.00    +0.017 A 
ENDBRANCH   8   9
ENDBRANCH   4   5
ENDBRANCH   3   4
BRANCH  17  18
ATOM     18  N   UNL     1      -3.934 -10.405  15.929  0.00  0.00    -0.209 NA
BRANCH  18  19
ATOM     19  C   UNL     1      -3.560 -10.781  15.298  0.00  0.00    +0.115 C 
BRANCH  19  20
ATOM     20  C   UNL     1      -2.749 -10.683  15.179  0.00  0.00    -0.002 A 
ATOM     21  C   UNL     1      -2.462 -10.486  14.431  0.00  0.00    +0.018 A 
ATOM     22  C   UNL     1      -1.652 -10.388  14.314  0.00  0.00    +0.099 A 
ATOM     23  N   UNL     1      -1.128 -10.487  14.943  0.00  0.00    -0.242 NA
ATOM     24  C   UNL     1      -1.415 -10.683  15.692  0.00  0.00    +0.099 A 
ATOM     25  C   UNL     1      -2.227 -10.781  15.810  0.00  0.00    +0.018 A 
ENDBRANCH  19  20
ENDBRANCH  18  19
ENDBRANCH  17  18
TORSDOF 6
ENDMDL
MODEL 8
REMARK VINA RESULT:      -7.1     14.129     16.411
REMARK  Name = 
REMARK  6 active torsions:
REMARK  status: ('A' for Active; 'I' for Inactive)
REMARK    1  A    between atoms: C_3  and  C_4
REMARK    2  A    between atoms: C_4  and  N_5
REMARK    3  A    between atoms: N_8  and  C_9
REMARK    4  A    between atoms: C_17  and  N_18
REMARK    5  A    between atoms: N_18  and  C_19
REMARK    6  A    between atoms: C_19  and  C_20
REMARK                            x       y       z     vdW  Elec       q    Type
REMARK                         _______ _______ _______ _____ _____    ______ ____
ROOT
ATOM      1  O   UNL     1      -6.214  -9.769  14.616  0.00  0.00    -0.219 OA
ATOM      2  C   UNL     1      -5.495 -10.157  14.731  0.00  0.00    +0.199 C 
ATOM      3  C   UNL     1      -4.944 -10.341  14.145  0.00  0.00    +0.169 C 
ATOM     15  O   UNL     1      -4.309 -10.726  14.504  0.00  0.00    -0.350 OA
ATOM     16  C   UNL     1      -4.468 -10.781  15.312  0.00  0.00    +0.162 C 
ATOM     17  C   UNL     1      -5.202 -10.429  15.452  0.00  0.00    +0.135 C 
ENDROOT
BRANCH   3   4
ATOM      4  C   UNL     1      -5.015 -10.168  13.342  0.00  0.00    +0.149 C 
BRANCH   4   5
ATOM      5  N   UNL     1      -4.375 -10.292  12.835  0.00  0.00    -0.184 NA
ATOM      6  C   UNL     1      -4.426 -10.063  12.044  0.00  0.00    +0.344 C 
ATOM      7  O   UNL     1      -5.115  -9.711  11.760  0.00  0.00    -0.249 OA
ATOM      8  N   UNL     1      -3.785 -10.187  11.538  0.00  0.00    -0.161 NA
BRANCH   8   9
ATOM      9  C   UNL     1      -3.836  -9.958  10.747  0.00  0.00    +0.075 A 
ATOM     10  C   UNL     1      -4.144 -10.478  10.185  0.00  0.00    +0.017 A 
ATOM     11  C   UNL     1      -4.194 -10.247   9.395  0.00  0.00    +0.001 A 
ATOM     12  C   UNL     1      -3.936  -9.498   9.165  0.00  0.00    +0.000 A 
ATOM     13  C   UNL     1      -3.629  -8.978   9.727  0.00  0.00    +0.001 A 
ATOM     14  C   UNL     1      -3.578  -9.207  10.518  0.00  0.00    +0.017 A 
ENDBRANCH   8   9
ENDBRANCH   4   5
ENDBRANCH   3   4
BRANCH  17  18
ATOM     18  N   UNL     1      -5.575 -10.361  16.184  0.00  0.00    -0.209 NA
BRANCH  18  19
ATOM     19  C   UNL     1      -5.180 -10.591  16.871  0.00  0.00    +0.115 C 
BRANCH  19  20
ATOM     20  C   UNL     1      -5.564 -10.551  17.601  0.00  0.00    -0.002 A 
ATOM     21  C   UNL     1      -6.363 -10.348  17.637  0.00  0.00    +0.018 A 
ATOM     22  C   UNL     1      -6.746 -10.308  18.366  0.00  0.00    +0.099 A 
ATOM     23  N   UNL     1      -6.331 -10.471  19.060  0.00  0.00    -0.242 NA
ATOM     24  C   UNL     1      -5.531 -10.674  19.024  0.00  0.00    +0.099 A 
ATOM     25  C   UNL     1      -5.148 -10.714  18.295  0.00  0.00    +0.018 A 
ENDBRANCH  19  20
ENDBRANCH  18  19
ENDBRANCH  17  18
TORSDOF 6
ENDMDL
MODEL 9
REMARK VINA RESULT:      -6.9     14.298     16.709
REMARK  Name = 
REMARK  6 active torsions:
REMARK  status: ('A' for Active; 'I' for Inactive)
REMARK    1  A    between atoms: C_3  and  C_4
REMARK    2  A    between atoms: C_4  and  N_5
REMARK    3  A    between atoms: N_8  and  C_9
REMARK    4  A    between atoms: C_17  and  N_18
REMARK    5  A    between atoms: N_18  and  C_19
REMARK    6  A    between atoms: C_19  and  C_20
REMARK                            x       y       z     vdW  Elec       q    Type
REMARK                         _______ _______ _______ _____ _____    ______ ____
ROOT
ATOM      1  O   UNL     1      -6.216  -9.907  12.742  0.00  0.00    -0.219 OA
ATOM      2  C   UNL     1      -5.438 -10.122  12.915  0.00  0.00    +0.199 C 
ATOM      3  C   UNL     1      -5.150 -10.346  13.655  0.00  0.00    +0.169 C 
ATOM     15  O   UNL     1      -4.346 -10.513  13.575  0.00  0.00    -0.350 OA
ATOM     16  C   UNL     1      -4.137 -10.393  12.786  0.00  0.00    +0.162 C 
ATOM     17  C   UNL     1      -4.813 -10.151  12.378  0.00  0.00    +0.135 C 
ENDROOT
BRANCH   3   4
ATOM      4  C   UNL     1      -5.589 -10.394  14.351  0.00  0.00    +0.149 C 
BRANCH   4   5
ATOM      5  N   UNL     1      -5.295 -10.060  15.047  0.00  0.00    -0.184 NA
ATOM      6  C   UNL     1      -5.645 -10.243  15.771  0.00  0.00    +0.344 C 
ATOM      7  O   UNL     1      -6.288 -10.759  15.801  0.00  0.00    -0.249 OA
ATOM      8  N   UNL     1      -5.352  -9.908  16.467  0.00  0.00    -0.161 NA
BRANCH   8   9
ATOM      9  C   UNL     1      -5.702 -10.091  17.191  0.00  0.00    +0.075 A 
ATOM     10  C   UNL     1      -6.434  -9.768  17.389  0.00  0.00    +0.017 A 
ATOM     11  C   UNL     1      -6.784  -9.952  18.114  0.00  0.00    +0.001 A 
ATOM     12  C   UNL     1      -6.401 -10.458  18.640  0.00  0.00    +0.000 A 
ATOM     13  C   UNL     1      -5.668 -10.781  18.442  0.00  0.00    +0.001 A 
ATOM     14  C   UNL     1      -5.318 -10.598  17.718  0.00  0.00    +0.017 A 
ENDBRANCH   8   9
ENDBRANCH   4   5
ENDBRANCH   3   4
BRANCH  17  18
ATOM     18  N   UNL     1      -4.855  -9.970  11.574  0.00  0.00    -0.209 NA
BRANCH  18  19
ATOM     19  C   UNL     1      -4.185 -10.044  11.099  0.00  0.00    +0.115 C 
BRANCH  19  20
ATOM     20  C   UNL     1      -4.221  -9.842  10.300  0.00  0.00    -0.002 A 
ATOM     21  C   UNL     1      -4.483 -10.394   9.745  0.00  0.00    +0.018 A 
ATOM     22  C   UNL     1      -4.519 -10.191   8.947  0.00  0.00    +0.099 A 
ATOM     23  N   UNL     1      -4.293  -9.437   8.701  0.00  0.00    -0.242 NA
ATOM     24  C   UNL     1      -4.030  -8.885   9.256  0.00  0.00    +0.099 A 
ATOM     25  C   UNL     1      -3.994  -9.087  10.055  0.00  0.00    +0.018 A 
ENDBRANCH  19  20
ENDBRANCH  18  19
ENDBRANCH  17  18
TORSDOF 6
ENDMDL
MODEL 10
REMARK VINA RESULT:      -6.5     15.278     17.730
REMARK  Name = 
REMARK  6 active torsions:
REMARK  status: ('A' for Active; 'I' for Inactive)
REMARK    1  A    between atoms: C_3  and  C_4
REMARK    2  A    between atoms: C_4  and  N_5
REMARK    3  A    between atoms: N_8  and  C_9
REMARK    4  A    between atoms: C_17  and  N_18
REMARK    5  A    between atoms: N_18  and  C_19
REMARK    6  A    between atoms: C_19  and  C_20
REMARK                            x       y       z     vdW  Elec       q    Type
REMARK                         _______ _______ _______ _____ _____    ______ ____
ROOT
ATOM      1  O   UNL     1      -4.753 -10.489  13.273  0.00  0.00    -0.219 OA
ATOM      2  C   UNL     1      -4.107 -10.343  12.781  0.00  0.00    +0.199 C 
ATOM      3  C   UNL     1      -4.142 -10.156  11.978  0.00  0.00    +0.169 C 
ATOM     15  O   UNL     1      -3.370 -10.055  11.706  0.00  0.00    -0.350 OA
ATOM     16  C   UNL     1      -2.857 -10.181  12.341  0.00  0.00    +0.162 C 
ATOM     17  C   UNL     1      -3.314 -10.359  13.006  0.00  0.00    +0.135 C 
ENDROOT
BRANCH   3   4
ATOM      4  C   UNL     1      -4.828 -10.082  11.527  0.00  0.00    +0.149 C 
BRANCH   4   5
ATOM      5  N   UNL     1      -4.782  -9.821  10.745  0.00  0.00    -0.184 NA
ATOM      6  C   UNL     1      -5.472  -9.683  10.316  0.00  0.00    +0.344 C 
ATOM      7  O   UNL     1      -6.209  -9.806  10.667  0.00  0.00    -0.249 OA
ATOM      8  N   UNL     1      -5.426  -9.422   9.534  0.00  0.00    -0.161 NA
BRANCH   8   9
ATOM      9  C   UNL     1      -6.116  -9.284   9.104  0.00  0.00    +0.075 A 
ATOM     10  C   UNL     1      -6.488  -8.548   9.144  0.00  0.00    +0.017 A 
ATOM     11  C   UNL     1      -7.179  -8.412   8.713  0.00  0.00    +0.001 A 
ATOM     12  C   UNL     1      -7.497  -9.010   8.244  0.00  0.00    +0.000 A 
ATOM     13  C   UNL     1      -7.126  -9.745   8.204  0.00  0.00    +0.001 A 
ATOM     14  C   UNL     1      -6.435  -9.883   8.634  0.00  0.00    +0.017 A 
ENDBRANCH   8   9
ENDBRANCH   4   5
ENDBRANCH   3   4
BRANCH  17  18
ATOM     18  N   UNL     1      -3.026 -10.523  13.761  0.00  0.00    -0.209 NA
BRANCH  18  19
ATOM     19  C   UNL     1      -2.224 -10.428  13.927  0.00  0.00    +0.115 C 
BRANCH  19  20
ATOM     20  C   UNL     1      -1.961 -10.429  14.709  0.00  0.00    -0.002 A 
ATOM     21  C   UNL     1      -2.421 -10.779  15.299  0.00  0.00    +0.018 A 
ATOM     22  C   UNL     1      -2.157 -10.780  16.080  0.00  0.00    +0.099 A 
ATOM     23  N   UNL     1      -1.435 -10.432  16.273  0.00  0.00    -0.242 NA
ATOM     24  C   UNL     1      -0.975 -10.082  15.683  0.00  0.00    +0.099 A 
ATOM     25  C   UNL     1      -1.238 -10.081  14.901  0.00  0.00    +0.018 A 
ENDBRANCH  19  20
ENDBRANCH  18  19
ENDBRANCH  17  18
TORSDOF 6
ENDMDL
