MODEL 1
REMARK VINA RESULT:     -10.7      0.000      0.000
REMARK  Name = 
REMARK  4 active torsions:
REMARK  status: ('A' for Active; 'I' for Inactive)
REMARK    1  A    between atoms: O_2  and  C_3
REMARK    2  A    between atoms: C_6  and  C_11
REMARK    3  A    between atoms: C_8  and  O_9
REMARK    4  A    between atoms: C_16  and  C_18
REMARK                            x       y       z     vdW  Elec       q    Type
REMARK                         _______ _______ _______ _____ _____    ______ ____
ROOT
ATOM     11  C   UNL     1      -2.165  -0.227  25.503  0.00  0.00    +0.249 C 
ATOM     12  O   UNL     1      -1.743  -0.296  26.209  0.00  0.00    -0.270 OA
ATOM     13  N   UNL     1      -2.221   0.503  25.125  0.00  0.00    -0.276 N 
ATOM     14  C   UNL     1      -2.622   0.655  24.421  0.00  0.00    +0.094 C 
ATOM     15  C   UNL     1      -2.534   1.457  24.245  0.00  0.00    +0.031 C 
ATOM     16  C   UNL     1      -2.078   1.800  24.842  0.00  0.00    +0.078 C 
ATOM     17  C   UNL     1      -1.885   1.211  25.385  0.00  0.00    +0.101 C 
ENDROOT
BRANCH  16  18
ATOM     18  C   UNL     1      -1.856   2.593  24.886  0.00  0.00    +0.122 A 
ATOM     19  N   UNL     1      -1.113   2.899  24.700  0.00  0.00    -0.231 NA
ATOM     20  C   UNL     1      -1.135   3.714  24.824  0.00  0.00    +0.098 A 
ATOM     21  C   UNL     1      -1.892   3.912  25.086  0.00  0.00    +0.079 A 
ATOM     22  C   UNL     1      -2.076   4.698  25.256  0.00  0.00    +0.019 A 
ATOM     23  C   UNL     1      -1.506   5.286  25.163  0.00  0.00    +0.002 A 
ATOM     24  C   UNL     1      -0.749   5.088  24.901  0.00  0.00    +0.002 A 
ATOM     25  C   UNL     1      -0.563   4.303  24.731  0.00  0.00    +0.021 A 
ATOM     26  N   UNL     1      -2.337   3.220  25.125  0.00  0.00    -0.313 N 
ATOM     27  C   UNL     1      -3.125   3.163  25.360  0.00  0.00    +0.132 C 
ENDBRANCH  16  18
BRANCH  11   6
ATOM      3  C   UNL     1      -3.266  -2.216  24.524  0.00  0.00    +0.172 A 
ATOM      4  C   UNL     1      -3.717  -1.642  24.907  0.00  0.00    +0.040 A 
ATOM      5  C   UNL     1      -3.351  -0.979  25.234  0.00  0.00    +0.008 A 
ATOM      6  C   UNL     1      -2.532  -0.891  25.177  0.00  0.00    +0.057 A 
ATOM      7  C   UNL     1      -2.081  -1.464  24.793  0.00  0.00    +0.045 A 
ATOM      8  C   UNL     1      -2.448  -2.127  24.466  0.00  0.00    +0.173 A 
BRANCH   3   2
ATOM      1  C   UNL     1      -4.401  -2.820  23.899  0.00  0.00    +0.253 C 
ATOM      2  O   UNL     1      -3.634  -2.879  24.197  0.00  0.00    -0.468 OA
ENDBRANCH   3   2
BRANCH   8   9
ATOM      9  O   UNL     1      -1.997  -2.702  24.082  0.00  0.00    -0.468 OA
ATOM     10  C   UNL     1      -1.179  -2.718  24.182  0.00  0.00    +0.253 C 
ENDBRANCH   8   9
ENDBRANCH  11   6
TORSDOF 4
ENDMDL
MODEL 2
REMARK VINA RESULT:     -10.5      1.780      5.588
REMARK  Name = 
REMARK  4 active torsions:
REMARK  status: ('A' for Active; 'I' for Inactive)
REMARK    1  A    between atoms: O_2  and  C_3
REMARK    2  A    between atoms: C_6  and  C_11
REMARK    3  A    between atoms: C_8  and  O_9
REMARK    4  A    between atoms: C_16  and  C_18
REMARK                            x       y       z     vdW  Elec       q    Type
REMARK                         _______ _______ _______ _____ _____    ______ ____
ROOT
ATOM     11  C   UNL     1      -1.171   2.066  25.667  0.00  0.00    +0.249 C 
ATOM     12  O   UNL     1      -0.641   1.798  26.241  0.00  0.00    -0.270 OA
ATOM     13  N   UNL     1      -1.649   1.529  25.264  0.00  0.00    -0.276 N 
ATOM     14  C   UNL     1      -2.201   1.714  24.679  0.00  0.00    +0.094 C 
ATOM     15  C   UNL     1      -2.552   1.011  24.428  0.00  0.00    +0.031 C 
ATOM     16  C   UNL     1      -2.216   0.390  24.857  0.00  0.00    +0.078 C 
ATOM     17  C   UNL     1      -1.658   0.711  25.373  0.00  0.00    +0.101 C 
ENDROOT
BRANCH  16  18
ATOM     18  C   UNL     1      -2.405  -0.409  24.782  0.00  0.00    +0.122 A 
ATOM     19  N   UNL     1      -1.893  -1.008  24.540  0.00  0.00    -0.231 NA
ATOM     20  C   UNL     1      -2.311  -1.719  24.545  0.00  0.00    +0.098 A 
ATOM     21  C   UNL     1      -3.083  -1.559  24.790  0.00  0.00    +0.079 A 
ATOM     22  C   UNL     1      -3.632  -2.172  24.848  0.00  0.00    +0.019 A 
ATOM     23  C   UNL     1      -3.411  -2.944  24.661  0.00  0.00    +0.002 A 
ATOM     24  C   UNL     1      -2.639  -3.103  24.416  0.00  0.00    +0.002 A 
ATOM     25  C   UNL     1      -2.089  -2.492  24.358  0.00  0.00    +0.021 A 
ATOM     26  N   UNL     1      -3.141  -0.750  24.937  0.00  0.00    -0.313 N 
ATOM     27  C   UNL     1      -3.816  -0.351  25.193  0.00  0.00    +0.132 C 
ENDBRANCH  16  18
BRANCH  11   6
ATOM      3  C   UNL     1      -1.323   4.483  25.160  0.00  0.00    +0.172 A 
ATOM      4  C   UNL     1      -0.720   4.029  24.828  0.00  0.00    +0.040 A 
ATOM      5  C   UNL     1      -0.669   3.224  24.997  0.00  0.00    +0.008 A 
ATOM      6  C   UNL     1      -1.222   2.872  25.498  0.00  0.00    +0.057 A 
ATOM      7  C   UNL     1      -1.825   3.326  25.830  0.00  0.00    +0.045 A 
ATOM      8  C   UNL     1      -1.876   4.132  25.660  0.00  0.00    +0.173 A 
BRANCH   3   2
ATOM      1  C   UNL     1      -0.748   5.671  24.608  0.00  0.00    +0.253 C 
ATOM      2  O   UNL     1      -1.373   5.290  24.990  0.00  0.00    -0.468 OA
ENDBRANCH   3   2
BRANCH   8   9
ATOM      9  O   UNL     1      -2.479   4.587  25.992  0.00  0.00    -0.468 OA
ATOM     10  C   UNL     1      -3.119   4.218  26.360  0.00  0.00    +0.253 C 
ENDBRANCH   8   9
ENDBRANCH  11   6
TORSDOF 4
ENDMDL
MODEL 3
REMARK VINA RESULT:      -9.5      2.340      3.442
REMARK  Name = 
REMARK  4 active torsions:
REMARK  status: ('A' for Active; 'I' for Inactive)
REMARK    1  A    between atoms: O_2  and  C_3
REMARK    2  A    between atoms: C_6  and  C_11
REMARK    3  A    between atoms: C_8  and  O_9
REMARK    4  A    between atoms: C_16  and  C_18
REMARK                            x       y       z     vdW  Elec       q    Type
REMARK                         _______ _______ _______ _____ _____    ______ ____
ROOT
ATOM     11  C   UNL     1      -0.985   1.210  24.988  0.00  0.00    +0.249 C 
ATOM     12  O   UNL     1      -0.738   1.416  25.748  0.00  0.00    -0.270 OA
ATOM     13  N   UNL     1      -1.741   1.415  24.730  0.00  0.00    -0.276 N 
ATOM     14  C   UNL     1      -2.063   1.248  23.990  0.00  0.00    +0.094 C 
ATOM     15  C   UNL     1      -2.829   1.554  23.969  0.00  0.00    +0.031 C 
ATOM     16  C   UNL     1      -2.980   1.911  24.698  0.00  0.00    +0.078 C 
ATOM     17  C   UNL     1      -2.308   1.826  25.168  0.00  0.00    +0.101 C 
ENDROOT
BRANCH  16  18
ATOM     18  C   UNL     1      -3.681   2.288  24.917  0.00  0.00    +0.122 A 
ATOM     19  N   UNL     1      -3.786   3.101  25.008  0.00  0.00    -0.231 NA
ATOM     20  C   UNL     1      -4.569   3.233  25.231  0.00  0.00    +0.098 A 
ATOM     21  C   UNL     1      -4.948   2.501  25.278  0.00  0.00    +0.079 A 
ATOM     22  C   UNL     1      -5.744   2.463  25.492  0.00  0.00    +0.019 A 
ATOM     23  C   UNL     1      -6.161   3.154  25.658  0.00  0.00    +0.002 A 
ATOM     24  C   UNL     1      -5.782   3.885  25.611  0.00  0.00    +0.002 A 
ATOM     25  C   UNL     1      -4.987   3.925  25.398  0.00  0.00    +0.021 A 
ATOM     26  N   UNL     1      -4.399   1.917  25.085  0.00  0.00    -0.313 N 
ATOM     27  C   UNL     1      -4.542   1.106  25.062  0.00  0.00    +0.132 C 
ENDBRANCH  16  18
BRANCH  11   6
ATOM      3  C   UNL     1       0.543  -0.026  23.485  0.00  0.00    +0.172 A 
ATOM      4  C   UNL     1       0.543   0.798  23.486  0.00  0.00    +0.040 A 
ATOM      5  C   UNL     1       0.034   1.211  23.987  0.00  0.00    +0.008 A 
ATOM      6  C   UNL     1      -0.476   0.797  24.487  0.00  0.00    +0.057 A 
ATOM      7  C   UNL     1      -0.477  -0.028  24.486  0.00  0.00    +0.045 A 
ATOM      8  C   UNL     1       0.033  -0.439  23.984  0.00  0.00    +0.173 A 
BRANCH   3   2
ATOM      1  C   UNL     1       1.634  -0.032  22.561  0.00  0.00    +0.253 C 
ATOM      2  O   UNL     1       1.053  -0.438  22.983  0.00  0.00    -0.468 OA
ENDBRANCH   3   2
BRANCH   8   9
ATOM      9  O   UNL     1       0.033  -1.265  23.983  0.00  0.00    -0.468 OA
ATOM     10  C   UNL     1      -0.347  -1.678  24.586  0.00  0.00    +0.253 C 
ENDBRANCH   8   9
ENDBRANCH  11   6
TORSDOF 4
ENDMDL
MODEL 4
REMARK VINA RESULT:      -9.3      2.258      5.723
REMARK  Name = 
REMARK  4 active torsions:
REMARK  status: ('A' for Active; 'I' for Inactive)
REMARK    1  A    between atoms: O_2  and  C_3
REMARK    2  A    between atoms: C_6  and  C_11
REMARK    3  A    between atoms: C_8  and  O_9
REMARK    4  A    between atoms: C_16  and  C_18
REMARK                            x       y       z     vdW  Elec       q    Type
REMARK                         _______ _______ _______ _____ _____    ______ ____
ROOT
ATOM     11  C   UNL     1      -3.898   1.991  24.261  0.00  0.00    +0.249 C 
ATOM     12  O   UNL     1      -3.485   2.119  23.558  0.00  0.00    -0.270 OA
ATOM     13  N   UNL     1      -3.968   1.227  24.565  0.00  0.00    -0.276 N 
ATOM     14  C   UNL     1      -4.362   1.015  25.258  0.00  0.00    +0.094 C 
ATOM     15  C   UNL     1      -4.295   0.198  25.350  0.00  0.00    +0.031 C 
ATOM     16  C   UNL     1      -3.858  -0.095  24.714  0.00  0.00    +0.078 C 
ATOM     17  C   UNL     1      -3.657   0.541  24.229  0.00  0.00    +0.101 C 
ENDROOT
BRANCH  16  18
ATOM     18  C   UNL     1      -3.659  -0.885  24.585  0.00  0.00    +0.122 A 
ATOM     19  N   UNL     1      -4.154  -1.466  24.272  0.00  0.00    -0.231 NA
ATOM     20  C   UNL     1      -3.730  -2.172  24.241  0.00  0.00    +0.098 A 
ATOM     21  C   UNL     1      -2.973  -2.029  24.535  0.00  0.00    +0.079 A 
ATOM     22  C   UNL     1      -2.422  -2.642  24.571  0.00  0.00    +0.019 A 
ATOM     23  C   UNL     1      -2.628  -3.398  24.313  0.00  0.00    +0.002 A 
ATOM     24  C   UNL     1      -3.385  -3.541  24.019  0.00  0.00    +0.002 A 
ATOM     25  C   UNL     1      -3.937  -2.929  23.983  0.00  0.00    +0.021 A 
ATOM     26  N   UNL     1      -2.928  -1.234  24.748  0.00  0.00    -0.313 N 
ATOM     27  C   UNL     1      -2.270  -0.853  25.067  0.00  0.00    +0.132 C 
ENDBRANCH  16  18
BRANCH  11   6
ATOM      3  C   UNL     1      -4.926   3.898  25.457  0.00  0.00    +0.172 A 
ATOM      4  C   UNL     1      -5.393   3.404  24.990  0.00  0.00    +0.040 A 
ATOM      5  C   UNL     1      -5.051   2.768  24.591  0.00  0.00    +0.008 A 
ATOM      6  C   UNL     1      -4.240   2.627  24.660  0.00  0.00    +0.057 A 
ATOM      7  C   UNL     1      -3.773   3.121  25.127  0.00  0.00    +0.045 A 
ATOM      8  C   UNL     1      -4.116   3.757  25.526  0.00  0.00    +0.173 A 
BRANCH   3   2
ATOM      1  C   UNL     1      -6.069   4.706  25.748  0.00  0.00    +0.253 C 
ATOM      2  O   UNL     1      -5.269   4.535  25.856  0.00  0.00    -0.468 OA
ENDBRANCH   3   2
BRANCH   8   9
ATOM      9  O   UNL     1      -3.649   4.252  25.993  0.00  0.00    -0.468 OA
ATOM     10  C   UNL     1      -2.841   4.106  26.067  0.00  0.00    +0.253 C 
ENDBRANCH   8   9
ENDBRANCH  11   6
TORSDOF 4
ENDMDL
MODEL 5
REMARK VINA RESULT:      -7.8     17.356     19.278
REMARK  Name = 
REMARK  4 active torsions:
REMARK  status: ('A' for Active; 'I' for Inactive)
REMARK    1  A    between atoms: O_2  and  C_3
REMARK    2  A    between atoms: C_6  and  C_11
REMARK    3  A    between atoms: C_8  and  O_9
REMARK    4  A    between atoms: C_16  and  C_18
REMARK                            x       y       z     vdW  Elec       q    Type
REMARK                         _______ _______ _______ _____ _____    ______ ____
ROOT
ATOM     11  C   UNL     1      14.419   7.117  19.524  0.00  0.00    +0.249 C 
ATOM     12  O   UNL     1      13.966   6.459  19.732  0.00  0.00    -0.270 OA
ATOM     13  N   UNL     1      14.136   7.652  18.962  0.00  0.00    -0.276 N 
ATOM     14  C   UNL     1      14.525   8.331  18.700  0.00  0.00    +0.094 C 
ATOM     15  C   UNL     1      14.044   8.699  18.140  0.00  0.00    +0.031 C 
ATOM     16  C   UNL     1      13.358   8.248  18.056  0.00  0.00    +0.078 C 
ATOM     17  C   UNL     1      13.415   7.600  18.564  0.00  0.00    +0.101 C 
ENDROOT
BRANCH  16  18
ATOM     18  C   UNL     1      12.727   8.415  17.552  0.00  0.00    +0.122 A 
ATOM     19  N   UNL     1      11.928   8.298  17.720  0.00  0.00    -0.231 NA
ATOM     20  C   UNL     1      11.491   8.539  17.063  0.00  0.00    +0.098 A 
ATOM     21  C   UNL     1      12.020   8.804  16.489  0.00  0.00    +0.079 A 
ATOM     22  C   UNL     1      11.737   9.081  15.765  0.00  0.00    +0.019 A 
ATOM     23  C   UNL     1      10.927   9.093  15.616  0.00  0.00    +0.002 A 
ATOM     24  C   UNL     1      10.398   8.828  16.191  0.00  0.00    +0.002 A 
ATOM     25  C   UNL     1      10.679   8.551  16.914  0.00  0.00    +0.021 A 
ATOM     26  N   UNL     1      12.784   8.728  16.790  0.00  0.00    -0.313 N 
ATOM     27  C   UNL     1      13.482   8.928  16.399  0.00  0.00    +0.132 C 
ENDBRANCH  16  18
BRANCH  11   6
ATOM      3  C   UNL     1      16.622   7.488  20.587  0.00  0.00    +0.172 A 
ATOM      4  C   UNL     1      15.952   7.864  20.886  0.00  0.00    +0.040 A 
ATOM      5  C   UNL     1      15.217   7.741  20.531  0.00  0.00    +0.008 A 
ATOM      6  C   UNL     1      15.153   7.240  19.878  0.00  0.00    +0.057 A 
ATOM      7  C   UNL     1      15.824   6.864  19.580  0.00  0.00    +0.045 A 
ATOM      8  C   UNL     1      16.558   6.988  19.935  0.00  0.00    +0.173 A 
BRANCH   3   2
ATOM      1  C   UNL     1      17.405   8.008  21.665  0.00  0.00    +0.253 C 
ATOM      2  O   UNL     1      17.357   7.611  20.942  0.00  0.00    -0.468 OA
ENDBRANCH   3   2
BRANCH   8   9
ATOM      9  O   UNL     1      17.230   6.611  19.636  0.00  0.00    -0.468 OA
ATOM     10  C   UNL     1      17.151   5.921  19.191  0.00  0.00    +0.253 C 
ENDBRANCH   8   9
ENDBRANCH  11   6
TORSDOF 4
ENDMDL
