MODEL 1
REMARK VINA RESULT:      -9.4      0.000      0.000
REMARK  Name = 
REMARK  6 active torsions:
REMARK  status: ('A' for Active; 'I' for Inactive)
REMARK    1  A    between atoms: C_5  and  C_6
REMARK    2  A    between atoms: C_6  and  C_7
REMARK    3  A    between atoms: C_22  and  C_23
REMARK    4  A    between atoms: C_23  and  N_24
REMARK    5  A    between atoms: N_24  and  S_25
REMARK    6  A    between atoms: S_25  and  C_28
REMARK                            x       y       z     vdW  Elec       q    Type
REMARK                         _______ _______ _______ _____ _____    ______ ____
ROOT
ATOM      1  O   UNL     1      -3.731  -1.723  25.100  0.00  0.00    -0.218 OA
ATOM      2  C   UNL     1      -3.131  -1.205  24.873  0.00  0.00    +0.213 C 
ATOM      3  C   UNL     1      -2.363  -1.416  24.657  0.00  0.00    +0.212 C 
ATOM      4  O   UNL     1      -2.062  -2.184  24.630  0.00  0.00    -0.218 OA
ATOM      5  C   UNL     1      -1.951  -0.727  24.473  0.00  0.00    +0.157 C 
ATOM     21  O   UNL     1      -2.463  -0.088  24.576  0.00  0.00    -0.351 OA
ATOM     22  C   UNL     1      -3.192  -0.383  24.823  0.00  0.00    +0.167 C 
ENDROOT
BRANCH   5   6
ATOM      6  C   UNL     1      -1.164  -0.682  24.229  0.00  0.00    +0.117 C 
BRANCH   6   7
ATOM      7  C   UNL     1      -0.710  -0.019  24.417  0.00  0.00    +0.228 C 
ATOM      8  O   UNL     1      -0.987   0.526  24.971  0.00  0.00    -0.275 OA
ATOM      9  N   UNL     1       0.019   0.100  24.050  0.00  0.00    -0.276 N 
ATOM     10  C   UNL     1       0.472   0.763  24.237  0.00  0.00    +0.115 C 
ATOM     11  C   UNL     1       1.201   0.882  23.871  0.00  0.00    +0.114 C 
ATOM     12  N   UNL     1       1.478   0.337  23.316  0.00  0.00    -0.290 N 
ATOM     13  C   UNL     1       1.025  -0.327  23.129  0.00  0.00    +0.114 C 
ATOM     14  C   UNL     1       0.295  -0.445  23.496  0.00  0.00    +0.115 C 
ATOM     15  C   UNL     1       2.208   0.455  22.949  0.00  0.00    +0.132 A 
ATOM     16  N   UNL     1       2.660   1.119  23.137  0.00  0.00    -0.229 NA
ATOM     17  C   UNL     1       3.390   1.237  22.770  0.00  0.00    +0.100 A 
ATOM     18  C   UNL     1       3.666   0.692  22.216  0.00  0.00    +0.021 A 
ATOM     19  C   UNL     1       3.213   0.029  22.028  0.00  0.00    +0.004 A 
ATOM     20  C   UNL     1       2.484  -0.090  22.395  0.00  0.00    +0.034 A 
ENDBRANCH   6   7
ENDBRANCH   5   6
BRANCH  22  23
ATOM     23  C   UNL     1      -3.865   0.063  24.991  0.00  0.00    +0.148 C 
BRANCH  23  24
ATOM     24  N   UNL     1      -4.137   0.620  24.445  0.00  0.00    -0.075 NA
BRANCH  24  25
ATOM     25  S   UNL     1      -4.476   1.324  24.709  0.00  0.00    +0.077 S 
ATOM     26  O   UNL     1      -4.862   0.913  25.312  0.00  0.00    -0.152 OA
ATOM     27  O   UNL     1      -4.090   1.735  24.106  0.00  0.00    -0.152 OA
BRANCH  25  28
ATOM     28  C   UNL     1      -4.815   2.028  24.972  0.00  0.00    +0.124 A 
ATOM     29  C   UNL     1      -4.378   2.728  24.957  0.00  0.00    +0.021 A 
ATOM     30  C   UNL     1      -4.718   3.432  25.220  0.00  0.00    +0.013 A 
ATOM     31  C   UNL     1      -5.494   3.437  25.499  0.00  0.00    +0.058 A 
ATOM     32 CL   UNL     1      -5.833   4.141  25.763  0.00  0.00    -0.082 Cl
ATOM     33  C   UNL     1      -5.931   2.738  25.515  0.00  0.00    +0.013 A 
ATOM     34  C   UNL     1      -5.592   2.033  25.252  0.00  0.00    +0.021 A 
ENDBRANCH  25  28
ENDBRANCH  24  25
ENDBRANCH  23  24
ENDBRANCH  22  23
TORSDOF 6
ENDMDL
MODEL 2
REMARK VINA RESULT:      -9.0      3.535      5.111
REMARK  Name = 
REMARK  6 active torsions:
REMARK  status: ('A' for Active; 'I' for Inactive)
REMARK    1  A    between atoms: C_5  and  C_6
REMARK    2  A    between atoms: C_6  and  C_7
REMARK    3  A    between atoms: C_22  and  C_23
REMARK    4  A    between atoms: C_23  and  N_24
REMARK    5  A    between atoms: N_24  and  S_25
REMARK    6  A    between atoms: S_25  and  C_28
REMARK                            x       y       z     vdW  Elec       q    Type
REMARK                         _______ _______ _______ _____ _____    ______ ____
ROOT
ATOM      1  O   UNL     1      -5.878   3.895  26.076  0.00  0.00    -0.218 OA
ATOM      2  C   UNL     1      -5.421   3.301  25.731  0.00  0.00    +0.213 C 
ATOM      3  C   UNL     1      -5.695   2.566  25.476  0.00  0.00    +0.212 C 
ATOM      4  O   UNL     1      -6.473   2.296  25.521  0.00  0.00    -0.218 OA
ATOM      5  C   UNL     1      -5.054   2.149  25.168  0.00  0.00    +0.157 C 
ATOM     21  O   UNL     1      -4.384   2.626  25.233  0.00  0.00    -0.351 OA
ATOM     22  C   UNL     1      -4.611   3.338  25.581  0.00  0.00    +0.167 C 
ENDROOT
BRANCH   5   6
ATOM      6  C   UNL     1      -5.078   1.387  24.851  0.00  0.00    +0.117 C 
BRANCH   6   7
ATOM      7  C   UNL     1      -4.493   1.141  24.323  0.00  0.00    +0.228 C 
ATOM      8  O   UNL     1      -4.245   1.645  23.719  0.00  0.00    -0.275 OA
ATOM      9  N   UNL     1      -4.156   0.392  24.400  0.00  0.00    -0.276 N 
ATOM     10  C   UNL     1      -3.572   0.146  23.873  0.00  0.00    +0.115 C 
ATOM     11  C   UNL     1      -3.236  -0.603  23.949  0.00  0.00    +0.114 C 
ATOM     12  N   UNL     1      -3.484  -1.107  24.554  0.00  0.00    -0.290 N 
ATOM     13  C   UNL     1      -4.069  -0.861  25.081  0.00  0.00    +0.114 C 
ATOM     14  C   UNL     1      -4.405  -0.112  25.004  0.00  0.00    +0.115 C 
ATOM     15  C   UNL     1      -3.147  -1.857  24.631  0.00  0.00    +0.132 A 
ATOM     16  N   UNL     1      -2.563  -2.102  24.103  0.00  0.00    -0.229 NA
ATOM     17  C   UNL     1      -2.226  -2.852  24.180  0.00  0.00    +0.100 A 
ATOM     18  C   UNL     1      -2.475  -3.355  24.785  0.00  0.00    +0.021 A 
ATOM     19  C   UNL     1      -3.060  -3.110  25.312  0.00  0.00    +0.004 A 
ATOM     20  C   UNL     1      -3.396  -2.360  25.235  0.00  0.00    +0.034 A 
ENDBRANCH   6   7
ENDBRANCH   5   6
BRANCH  22  23
ATOM     23  C   UNL     1      -4.115   3.975  25.749  0.00  0.00    +0.148 C 
BRANCH  23  24
ATOM     24  N   UNL     1      -3.393   3.847  26.127  0.00  0.00    -0.075 NA
BRANCH  24  25
ATOM     25  S   UNL     1      -2.695   4.134  25.791  0.00  0.00    +0.077 S 
ATOM     26  O   UNL     1      -2.297   3.454  26.040  0.00  0.00    -0.152 OA
ATOM     27  O   UNL     1      -3.093   4.813  25.543  0.00  0.00    -0.152 OA
BRANCH  25  28
ATOM     28  C   UNL     1      -1.998   4.419  25.457  0.00  0.00    +0.124 A 
ATOM     29  C   UNL     1      -1.379   3.901  25.285  0.00  0.00    +0.021 A 
ATOM     30  C   UNL     1      -0.682   4.187  24.950  0.00  0.00    +0.013 A 
ATOM     31  C   UNL     1      -0.602   4.991  24.787  0.00  0.00    +0.058 A 
ATOM     32 CL   UNL     1       0.095   5.277  24.452  0.00  0.00    -0.082 Cl
ATOM     33  C   UNL     1      -1.220   5.510  24.958  0.00  0.00    +0.013 A 
ATOM     34  C   UNL     1      -1.918   5.224  25.293  0.00  0.00    +0.021 A 
ENDBRANCH  25  28
ENDBRANCH  24  25
ENDBRANCH  23  24
ENDBRANCH  22  23
TORSDOF 6
ENDMDL
MODEL 3
REMARK VINA RESULT:      -8.9      2.436      5.396
REMARK  Name = 
REMARK  6 active torsions:
REMARK  status: ('A' for Active; 'I' for Inactive)
REMARK    1  A    between atoms: C_5  and  C_6
REMARK    2  A    between atoms: C_6  and  C_7
REMARK    3  A    between atoms: C_22  and  C_23
REMARK    4  A    between atoms: C_23  and  N_24
REMARK    5  A    between atoms: N_24  and  S_25
REMARK    6  A    between atoms: S_25  and  C_28
REMARK                            x       y       z     vdW  Elec       q    Type
REMARK                         _______ _______ _______ _____ _____    ______ ____
ROOT
ATOM      1  O   UNL     1       1.183  -0.248  23.379  0.00  0.00    -0.218 OA
ATOM      2  C   UNL     1       0.666   0.285  23.738  0.00  0.00    +0.213 C 
ATOM      3  C   UNL     1       0.768   1.102  23.789  0.00  0.00    +0.212 C 
ATOM      4  O   UNL     1       1.408   1.529  23.490  0.00  0.00    -0.218 OA
ATOM      5  C   UNL     1       0.121   1.416  24.191  0.00  0.00    +0.157 C 
ATOM     21  O   UNL     1      -0.383   0.793  24.389  0.00  0.00    -0.351 OA
ATOM     22  C   UNL     1      -0.047   0.094  24.110  0.00  0.00    +0.167 C 
ENDROOT
BRANCH   5   6
ATOM      6  C   UNL     1      -0.002   2.213  24.366  0.00  0.00    +0.117 C 
BRANCH   6   7
ATOM      7  C   UNL     1      -0.321   2.432  25.095  0.00  0.00    +0.228 C 
ATOM      8  O   UNL     1       0.138   2.377  25.778  0.00  0.00    -0.275 OA
ATOM      9  N   UNL     1      -1.098   2.705  25.141  0.00  0.00    -0.276 N 
ATOM     10  C   UNL     1      -1.416   2.923  25.869  0.00  0.00    +0.115 C 
ATOM     11  C   UNL     1      -2.193   3.196  25.915  0.00  0.00    +0.114 C 
ATOM     12  N   UNL     1      -2.652   3.251  25.232  0.00  0.00    -0.290 N 
ATOM     13  C   UNL     1      -2.334   3.032  24.502  0.00  0.00    +0.114 C 
ATOM     14  C   UNL     1      -1.557   2.759  24.457  0.00  0.00    +0.115 C 
ATOM     15  C   UNL     1      -3.430   3.524  25.277  0.00  0.00    +0.132 A 
ATOM     16  N   UNL     1      -3.748   3.743  26.006  0.00  0.00    -0.229 NA
ATOM     17  C   UNL     1      -4.525   4.016  26.051  0.00  0.00    +0.100 A 
ATOM     18  C   UNL     1      -4.983   4.070  25.368  0.00  0.00    +0.021 A 
ATOM     19  C   UNL     1      -4.666   3.852  24.639  0.00  0.00    +0.004 A 
ATOM     20  C   UNL     1      -3.888   3.578  24.594  0.00  0.00    +0.034 A 
ENDBRANCH   6   7
ENDBRANCH   5   6
BRANCH  22  23
ATOM     23  C   UNL     1      -0.365  -0.662  24.187  0.00  0.00    +0.148 C 
BRANCH  23  24
ATOM     24  N   UNL     1      -0.860  -0.838  24.823  0.00  0.00    -0.075 NA
BRANCH  24  25
ATOM     25  S   UNL     1      -1.541  -1.290  24.704  0.00  0.00    +0.077 S 
ATOM     26  O   UNL     1      -1.973  -0.760  25.166  0.00  0.00    -0.152 OA
ATOM     27  O   UNL     1      -1.108  -1.820  24.242  0.00  0.00    -0.152 OA
BRANCH  25  28
ATOM     28  C   UNL     1      -2.220  -1.741  24.585  0.00  0.00    +0.124 A 
ATOM     29  C   UNL     1      -2.942  -1.369  24.437  0.00  0.00    +0.021 A 
ATOM     30  C   UNL     1      -3.622  -1.820  24.318  0.00  0.00    +0.013 A 
ATOM     31  C   UNL     1      -3.582  -2.644  24.347  0.00  0.00    +0.058 A 
ATOM     32 CL   UNL     1      -4.261  -3.095  24.228  0.00  0.00    -0.082 Cl
ATOM     33  C   UNL     1      -2.861  -3.016  24.495  0.00  0.00    +0.013 A 
ATOM     34  C   UNL     1      -2.180  -2.565  24.614  0.00  0.00    +0.021 A 
ENDBRANCH  25  28
ENDBRANCH  24  25
ENDBRANCH  23  24
ENDBRANCH  22  23
TORSDOF 6
ENDMDL
MODEL 4
REMARK VINA RESULT:      -8.7      2.898      6.840
REMARK  Name = 
REMARK  6 active torsions:
REMARK  status: ('A' for Active; 'I' for Inactive)
REMARK    1  A    between atoms: C_5  and  C_6
REMARK    2  A    between atoms: C_6  and  C_7
REMARK    3  A    between atoms: C_22  and  C_23
REMARK    4  A    between atoms: C_23  and  N_24
REMARK    5  A    between atoms: N_24  and  S_25
REMARK    6  A    between atoms: S_25  and  C_28
REMARK                            x       y       z     vdW  Elec       q    Type
REMARK                         _______ _______ _______ _____ _____    ______ ____
ROOT
ATOM      1  O   UNL     1       0.127  -1.445  24.529  0.00  0.00    -0.218 OA
ATOM      2  C   UNL     1      -0.184  -0.765  24.180  0.00  0.00    +0.213 C 
ATOM      3  C   UNL     1      -0.946  -0.470  24.288  0.00  0.00    +0.212 C 
ATOM      4  O   UNL     1      -1.532  -0.802  24.765  0.00  0.00    -0.218 OA
ATOM      5  C   UNL     1      -1.020   0.216  23.837  0.00  0.00    +0.157 C 
ATOM     21  O   UNL     1      -0.303   0.345  23.449  0.00  0.00    -0.351 OA
ATOM     22  C   UNL     1       0.214  -0.261  23.661  0.00  0.00    +0.167 C 
ENDROOT
BRANCH   5   6
ATOM      6  C   UNL     1      -1.693   0.691  23.783  0.00  0.00    +0.117 C 
BRANCH   6   7
ATOM      7  C   UNL     1      -1.674   1.467  24.063  0.00  0.00    +0.228 C 
ATOM      8  O   UNL     1      -0.962   1.884  24.075  0.00  0.00    -0.275 OA
ATOM      9  N   UNL     1      -2.367   1.827  24.330  0.00  0.00    -0.276 N 
ATOM     10  C   UNL     1      -2.348   2.602  24.610  0.00  0.00    +0.115 C 
ATOM     11  C   UNL     1      -3.040   2.962  24.877  0.00  0.00    +0.114 C 
ATOM     12  N   UNL     1      -3.753   2.546  24.865  0.00  0.00    -0.290 N 
ATOM     13  C   UNL     1      -3.771   1.769  24.585  0.00  0.00    +0.114 C 
ATOM     14  C   UNL     1      -3.079   1.410  24.318  0.00  0.00    +0.115 C 
ATOM     15  C   UNL     1      -4.446   2.905  25.132  0.00  0.00    +0.132 A 
ATOM     16  N   UNL     1      -4.426   3.680  25.412  0.00  0.00    -0.229 NA
ATOM     17  C   UNL     1      -5.120   4.040  25.679  0.00  0.00    +0.100 A 
ATOM     18  C   UNL     1      -5.831   3.623  25.667  0.00  0.00    +0.021 A 
ATOM     19  C   UNL     1      -5.851   2.847  25.387  0.00  0.00    +0.004 A 
ATOM     20  C   UNL     1      -5.157   2.488  25.120  0.00  0.00    +0.034 A 
ENDBRANCH   6   7
ENDBRANCH   5   6
BRANCH  22  23
ATOM     23  C   UNL     1       0.991  -0.349  23.400  0.00  0.00    +0.148 C 
BRANCH  23  24
ATOM     24  N   UNL     1       1.383   0.288  23.052  0.00  0.00    -0.075 NA
BRANCH  24  25
ATOM     25  S   UNL     1       2.208   0.302  23.031  0.00  0.00    +0.077 S 
ATOM     26  O   UNL     1       2.208  -0.365  22.545  0.00  0.00    -0.152 OA
ATOM     27  O   UNL     1       2.209   0.969  23.517  0.00  0.00    -0.152 OA
BRANCH  25  28
ATOM     28  C   UNL     1       3.032   0.316  23.010  0.00  0.00    +0.124 A 
ATOM     29  C   UNL     1       3.427   0.992  22.748  0.00  0.00    +0.021 A 
ATOM     30  C   UNL     1       4.251   1.006  22.726  0.00  0.00    +0.013 A 
ATOM     31  C   UNL     1       4.682   0.345  22.967  0.00  0.00    +0.058 A 
ATOM     32 CL   UNL     1       5.506   0.359  22.946  0.00  0.00    -0.082 Cl
ATOM     33  C   UNL     1       4.288  -0.331  23.230  0.00  0.00    +0.013 A 
ATOM     34  C   UNL     1       3.463  -0.345  23.251  0.00  0.00    +0.021 A 
ENDBRANCH  25  28
ENDBRANCH  24  25
ENDBRANCH  23  24
ENDBRANCH  22  23
TORSDOF 6
ENDMDL
MODEL 5
REMARK VINA RESULT:      -8.5      2.465      4.143
REMARK  Name = 
REMARK  6 active torsions:
REMARK  status: ('A' for Active; 'I' for Inactive)
REMARK    1  A    between atoms: C_5  and  C_6
REMARK    2  A    between atoms: C_6  and  C_7
REMARK    3  A    between atoms: C_22  and  C_23
REMARK    4  A    between atoms: C_23  and  N_24
REMARK    5  A    between atoms: N_24  and  S_25
REMARK    6  A    between atoms: S_25  and  C_28
REMARK                            x       y       z     vdW  Elec       q    Type
REMARK                         _______ _______ _______ _____ _____    ______ ____
ROOT
ATOM      1  O   UNL     1      -0.736   4.475  25.382  0.00  0.00    -0.218 OA
ATOM      2  C   UNL     1      -0.886   3.664  25.380  0.00  0.00    +0.213 C 
ATOM      3  C   UNL     1      -0.325   3.066  25.463  0.00  0.00    +0.212 C 
ATOM      4  O   UNL     1       0.487   3.174  25.564  0.00  0.00    -0.218 OA
ATOM      5  C   UNL     1      -0.716   2.342  25.428  0.00  0.00    +0.157 C 
ATOM     21  O   UNL     1      -1.521   2.491  25.323  0.00  0.00    -0.351 OA
ATOM     22  C   UNL     1      -1.626   3.309  25.293  0.00  0.00    +0.167 C 
ENDROOT
BRANCH   5   6
ATOM      6  C   UNL     1      -0.366   1.597  25.488  0.00  0.00    +0.117 C 
BRANCH   6   7
ATOM      7  C   UNL     1      -0.382   1.080  24.844  0.00  0.00    +0.228 C 
ATOM      8  O   UNL     1       0.093   1.228  24.186  0.00  0.00    -0.275 OA
ATOM      9  N   UNL     1      -0.872   0.417  24.859  0.00  0.00    -0.276 N 
ATOM     10  C   UNL     1      -0.888  -0.098  24.216  0.00  0.00    +0.115 C 
ATOM     11  C   UNL     1      -1.379  -0.761  24.230  0.00  0.00    +0.114 C 
ATOM     12  N   UNL     1      -1.854  -0.909  24.889  0.00  0.00    -0.290 N 
ATOM     13  C   UNL     1      -1.838  -0.392  25.532  0.00  0.00    +0.114 C 
ATOM     14  C   UNL     1      -1.347   0.271  25.518  0.00  0.00    +0.115 C 
ATOM     15  C   UNL     1      -2.345  -1.572  24.904  0.00  0.00    +0.132 A 
ATOM     16  N   UNL     1      -2.360  -2.087  24.260  0.00  0.00    -0.229 NA
ATOM     17  C   UNL     1      -2.852  -2.751  24.275  0.00  0.00    +0.100 A 
ATOM     18  C   UNL     1      -3.326  -2.897  24.934  0.00  0.00    +0.021 A 
ATOM     19  C   UNL     1      -3.311  -2.382  25.577  0.00  0.00    +0.004 A 
ATOM     20  C   UNL     1      -2.819  -1.718  25.562  0.00  0.00    +0.034 A 
ENDBRANCH   6   7
ENDBRANCH   5   6
BRANCH  22  23
ATOM     23  C   UNL     1      -2.344   3.702  25.194  0.00  0.00    +0.148 C 
BRANCH  23  24
ATOM     24  N   UNL     1      -2.847   3.491  24.575  0.00  0.00    -0.075 NA
BRANCH  24  25
ATOM     25  S   UNL     1      -3.606   3.209  24.738  0.00  0.00    +0.077 S 
ATOM     26  O   UNL     1      -3.539   2.670  24.116  0.00  0.00    -0.152 OA
ATOM     27  O   UNL     1      -3.673   3.747  25.360  0.00  0.00    -0.152 OA
BRANCH  25  28
ATOM     28  C   UNL     1      -4.363   2.927  24.900  0.00  0.00    +0.124 A 
ATOM     29  C   UNL     1      -4.591   2.178  24.635  0.00  0.00    +0.021 A 
ATOM     30  C   UNL     1      -5.348   1.896  24.797  0.00  0.00    +0.013 A 
ATOM     31  C   UNL     1      -5.880   2.361  25.224  0.00  0.00    +0.058 A 
ATOM     32 CL   UNL     1      -6.637   2.079  25.386  0.00  0.00    -0.082 Cl
ATOM     33  C   UNL     1      -5.653   3.109  25.488  0.00  0.00    +0.013 A 
ATOM     34  C   UNL     1      -4.895   3.392  25.326  0.00  0.00    +0.021 A 
ENDBRANCH  25  28
ENDBRANCH  24  25
ENDBRANCH  23  24
ENDBRANCH  22  23
TORSDOF 6
ENDMDL
MODEL 6
REMARK VINA RESULT:      -7.7     14.292     15.436
REMARK  Name = 
REMARK  6 active torsions:
REMARK  status: ('A' for Active; 'I' for Inactive)
REMARK    1  A    between atoms: C_5  and  C_6
REMARK    2  A    between atoms: C_6  and  C_7
REMARK    3  A    between atoms: C_22  and  C_23
REMARK    4  A    between atoms: C_23  and  N_24
REMARK    5  A    between atoms: N_24  and  S_25
REMARK    6  A    between atoms: S_25  and  C_28
REMARK                            x       y       z     vdW  Elec       q    Type
REMARK                         _______ _______ _______ _____ _____    ______ ____
ROOT
ATOM      1  O   UNL     1      -2.372 -10.733  16.202  0.00  0.00    -0.218 OA
ATOM      2  C   UNL     1      -2.971 -10.749  15.636  0.00  0.00    +0.213 C 
ATOM      3  C   UNL     1      -2.866 -10.751  14.818  0.00  0.00    +0.212 C 
ATOM      4  O   UNL     1      -2.142 -10.737  14.422  0.00  0.00    -0.218 OA
ATOM      5  C   UNL     1      -3.611 -10.770  14.465  0.00  0.00    +0.157 C 
ATOM     21  O   UNL     1      -4.178 -10.780  15.065  0.00  0.00    -0.351 OA
ATOM     22  C   UNL     1      -3.782 -10.767  15.789  0.00  0.00    +0.167 C 
ENDROOT
BRANCH   5   6
ATOM      6  C   UNL     1      -3.764 -10.778  13.654  0.00  0.00    +0.117 C 
BRANCH   6   7
ATOM      7  C   UNL     1      -4.436 -10.402  13.357  0.00  0.00    +0.228 C 
ATOM      8  O   UNL     1      -5.095 -10.292  13.842  0.00  0.00    -0.275 OA
ATOM      9  N   UNL     1      -4.450 -10.135  12.577  0.00  0.00    -0.276 N 
ATOM     10  C   UNL     1      -5.121  -9.759  12.280  0.00  0.00    +0.115 C 
ATOM     11  C   UNL     1      -5.134  -9.493  11.499  0.00  0.00    +0.114 C 
ATOM     12  N   UNL     1      -4.475  -9.603  11.015  0.00  0.00    -0.290 N 
ATOM     13  C   UNL     1      -3.804  -9.980  11.312  0.00  0.00    +0.114 C 
ATOM     14  C   UNL     1      -3.790 -10.246  12.092  0.00  0.00    +0.115 C 
ATOM     15  C   UNL     1      -4.488  -9.337  10.233  0.00  0.00    +0.132 A 
ATOM     16  N   UNL     1      -5.160  -8.961   9.938  0.00  0.00    -0.229 NA
ATOM     17  C   UNL     1      -5.173  -8.695   9.156  0.00  0.00    +0.100 A 
ATOM     18  C   UNL     1      -4.514  -8.806   8.673  0.00  0.00    +0.021 A 
ATOM     19  C   UNL     1      -3.842  -9.181   8.969  0.00  0.00    +0.004 A 
ATOM     20  C   UNL     1      -3.829  -9.448   9.750  0.00  0.00    +0.034 A 
ENDBRANCH   6   7
ENDBRANCH   5   6
BRANCH  22  23
ATOM     23  C   UNL     1      -4.135 -10.771  16.534  0.00  0.00    +0.148 C 
BRANCH  23  24
ATOM     24  N   UNL     1      -4.745 -10.242  16.704  0.00  0.00    -0.075 NA
BRANCH  24  25
ATOM     25  S   UNL     1      -5.200 -10.342  17.386  0.00  0.00    +0.077 S 
ATOM     26  O   UNL     1      -5.809  -9.903  17.043  0.00  0.00    -0.152 OA
ATOM     27  O   UNL     1      -4.590 -10.781  17.728  0.00  0.00    -0.152 OA
BRANCH  25  28
ATOM     28  C   UNL     1      -5.654 -10.442  18.066  0.00  0.00    +0.124 A 
ATOM     29  C   UNL     1      -6.471 -10.550  18.005  0.00  0.00    +0.021 A 
ATOM     30  C   UNL     1      -6.925 -10.650  18.686  0.00  0.00    +0.013 A 
ATOM     31  C   UNL     1      -6.565 -10.642  19.428  0.00  0.00    +0.058 A 
ATOM     32 CL   UNL     1      -7.020 -10.742  20.109  0.00  0.00    -0.082 Cl
ATOM     33  C   UNL     1      -5.750 -10.534  19.490  0.00  0.00    +0.013 A 
ATOM     34  C   UNL     1      -5.294 -10.434  18.809  0.00  0.00    +0.021 A 
ENDBRANCH  25  28
ENDBRANCH  24  25
ENDBRANCH  23  24
ENDBRANCH  22  23
TORSDOF 6
ENDMDL
MODEL 7
REMARK VINA RESULT:      -7.7     14.899     16.254
REMARK  Name = 
REMARK  6 active torsions:
REMARK  status: ('A' for Active; 'I' for Inactive)
REMARK    1  A    between atoms: C_5  and  C_6
REMARK    2  A    between atoms: C_6  and  C_7
REMARK    3  A    between atoms: C_22  and  C_23
REMARK    4  A    between atoms: C_23  and  N_24
REMARK    5  A    between atoms: N_24  and  S_25
REMARK    6  A    between atoms: S_25  and  C_28
REMARK                            x       y       z     vdW  Elec       q    Type
REMARK                         _______ _______ _______ _____ _____    ______ ____
ROOT
ATOM      1  O   UNL     1      -3.511 -10.781  14.597  0.00  0.00    -0.218 OA
ATOM      2  C   UNL     1      -4.204 -10.522  14.232  0.00  0.00    +0.213 C 
ATOM      3  C   UNL     1      -4.286 -10.309  13.440  0.00  0.00    +0.212 C 
ATOM      4  O   UNL     1      -3.687 -10.319  12.871  0.00  0.00    -0.218 OA
ATOM      5  C   UNL     1      -5.069 -10.085  13.315  0.00  0.00    +0.157 C 
ATOM     21  O   UNL     1      -5.473 -10.159  14.031  0.00  0.00    -0.351 OA
ATOM     22  C   UNL     1      -4.939 -10.428  14.598  0.00  0.00    +0.167 C 
ENDROOT
BRANCH   5   6
ATOM      6  C   UNL     1      -5.393  -9.832  12.599  0.00  0.00    +0.117 C 
BRANCH   6   7
ATOM      7  C   UNL     1      -6.207  -9.887  12.472  0.00  0.00    +0.228 C 
ATOM      8  O   UNL     1      -6.686 -10.261  13.030  0.00  0.00    -0.275 OA
ATOM      9  N   UNL     1      -6.540  -9.569  11.788  0.00  0.00    -0.276 N 
ATOM     10  C   UNL     1      -7.353  -9.625  11.661  0.00  0.00    +0.115 C 
ATOM     11  C   UNL     1      -7.687  -9.307  10.977  0.00  0.00    +0.114 C 
ATOM     12  N   UNL     1      -7.207  -8.933  10.419  0.00  0.00    -0.290 N 
ATOM     13  C   UNL     1      -6.394  -8.877  10.547  0.00  0.00    +0.114 C 
ATOM     14  C   UNL     1      -6.060  -9.195  11.231  0.00  0.00    +0.115 C 
ATOM     15  C   UNL     1      -7.541  -8.614   9.735  0.00  0.00    +0.132 A 
ATOM     16  N   UNL     1      -8.354  -8.670   9.608  0.00  0.00    -0.229 NA
ATOM     17  C   UNL     1      -8.687  -8.352   8.924  0.00  0.00    +0.100 A 
ATOM     18  C   UNL     1      -8.207  -7.979   8.367  0.00  0.00    +0.021 A 
ATOM     19  C   UNL     1      -7.394  -7.923   8.493  0.00  0.00    +0.004 A 
ATOM     20  C   UNL     1      -7.061  -8.241   9.178  0.00  0.00    +0.034 A 
ENDBRANCH   6   7
ENDBRANCH   5   6
BRANCH  22  23
ATOM     23  C   UNL     1      -5.108 -10.579  15.391  0.00  0.00    +0.148 C 
BRANCH  23  24
ATOM     24  N   UNL     1      -5.531 -10.026  15.834  0.00  0.00    -0.075 NA
BRANCH  24  25
ATOM     25  S   UNL     1      -5.669 -10.160  16.637  0.00  0.00    +0.077 S 
ATOM     26  O   UNL     1      -5.159  -9.540  16.828  0.00  0.00    -0.152 OA
ATOM     27  O   UNL     1      -6.179 -10.780  16.446  0.00  0.00    -0.152 OA
BRANCH  25  28
ATOM     28  C   UNL     1      -5.807 -10.293  17.439  0.00  0.00    +0.124 A 
ATOM     29  C   UNL     1      -6.579 -10.294  17.730  0.00  0.00    +0.021 A 
ATOM     30  C   UNL     1      -6.717 -10.427  18.532  0.00  0.00    +0.013 A 
ATOM     31  C   UNL     1      -6.083 -10.559  19.044  0.00  0.00    +0.058 A 
ATOM     32 CL   UNL     1      -6.221 -10.692  19.846  0.00  0.00    -0.082 Cl
ATOM     33  C   UNL     1      -5.311 -10.558  18.753  0.00  0.00    +0.013 A 
ATOM     34  C   UNL     1      -5.173 -10.425  17.950  0.00  0.00    +0.021 A 
ENDBRANCH  25  28
ENDBRANCH  24  25
ENDBRANCH  23  24
ENDBRANCH  22  23
TORSDOF 6
ENDMDL
MODEL 8
REMARK VINA RESULT:      -7.4     14.377     15.365
REMARK  Name = 
REMARK  6 active torsions:
REMARK  status: ('A' for Active; 'I' for Inactive)
REMARK    1  A    between atoms: C_5  and  C_6
REMARK    2  A    between atoms: C_6  and  C_7
REMARK    3  A    between atoms: C_22  and  C_23
REMARK    4  A    between atoms: C_23  and  N_24
REMARK    5  A    between atoms: N_24  and  S_25
REMARK    6  A    between atoms: S_25  and  C_28
REMARK                            x       y       z     vdW  Elec       q    Type
REMARK                         _______ _______ _______ _____ _____    ______ ____
ROOT
ATOM      1  O   UNL     1      -4.928 -10.502  17.129  0.00  0.00    -0.218 OA
ATOM      2  C   UNL     1      -5.170 -10.452  16.342  0.00  0.00    +0.213 C 
ATOM      3  C   UNL     1      -4.690 -10.551  15.679  0.00  0.00    +0.212 C 
ATOM      4  O   UNL     1      -3.881 -10.717  15.687  0.00  0.00    -0.218 OA
ATOM      5  C   UNL     1      -5.158 -10.454  15.008  0.00  0.00    +0.157 C 
ATOM     21  O   UNL     1      -5.929 -10.296  15.255  0.00  0.00    -0.351 OA
ATOM     22  C   UNL     1      -5.937 -10.294  16.079  0.00  0.00    +0.167 C 
ENDROOT
BRANCH   5   6
ATOM      6  C   UNL     1      -4.901 -10.507  14.225  0.00  0.00    +0.117 C 
BRANCH   6   7
ATOM      7  C   UNL     1      -5.452 -10.525  13.610  0.00  0.00    +0.228 C 
ATOM      8  O   UNL     1      -6.224 -10.777  13.756  0.00  0.00    -0.275 OA
ATOM      9  N   UNL     1      -5.230 -10.293  12.850  0.00  0.00    -0.276 N 
ATOM     10  C   UNL     1      -5.780 -10.311  12.236  0.00  0.00    +0.115 C 
ATOM     11  C   UNL     1      -5.559 -10.078  11.477  0.00  0.00    +0.114 C 
ATOM     12  N   UNL     1      -4.787  -9.827  11.331  0.00  0.00    -0.290 N 
ATOM     13  C   UNL     1      -4.236  -9.809  11.946  0.00  0.00    +0.114 C 
ATOM     14  C   UNL     1      -4.458 -10.041  12.705  0.00  0.00    +0.115 C 
ATOM     15  C   UNL     1      -4.565  -9.594  10.571  0.00  0.00    +0.132 A 
ATOM     16  N   UNL     1      -5.116  -9.612   9.957  0.00  0.00    -0.229 NA
ATOM     17  C   UNL     1      -4.893  -9.379   9.197  0.00  0.00    +0.100 A 
ATOM     18  C   UNL     1      -4.121  -9.128   9.052  0.00  0.00    +0.021 A 
ATOM     19  C   UNL     1      -3.571  -9.110   9.666  0.00  0.00    +0.004 A 
ATOM     20  C   UNL     1      -3.793  -9.343  10.426  0.00  0.00    +0.034 A 
ENDBRANCH   6   7
ENDBRANCH   5   6
BRANCH  22  23
ATOM     23  C   UNL     1      -6.595 -10.159  16.558  0.00  0.00    +0.148 C 
BRANCH  23  24
ATOM     24  N   UNL     1      -7.117  -9.547  16.377  0.00  0.00    -0.075 NA
BRANCH  24  25
ATOM     25  S   UNL     1      -7.838  -9.488  16.775  0.00  0.00    +0.077 S 
ATOM     26  O   UNL     1      -7.517  -8.912  17.272  0.00  0.00    -0.152 OA
ATOM     27  O   UNL     1      -8.158 -10.064  16.278  0.00  0.00    -0.152 OA
BRANCH  25  28
ATOM     28  C   UNL     1      -8.558  -9.430  17.172  0.00  0.00    +0.124 A 
ATOM     29  C   UNL     1      -9.092  -8.832  16.974  0.00  0.00    +0.021 A 
ATOM     30  C   UNL     1      -9.812  -8.773  17.371  0.00  0.00    +0.013 A 
ATOM     31  C   UNL     1     -10.000  -9.312  17.967  0.00  0.00    +0.058 A 
ATOM     32 CL   UNL     1     -10.720  -9.254  18.365  0.00  0.00    -0.082 Cl
ATOM     33  C   UNL     1      -9.467  -9.910  18.166  0.00  0.00    +0.013 A 
ATOM     34  C   UNL     1      -8.746  -9.968  17.768  0.00  0.00    +0.021 A 
ENDBRANCH  25  28
ENDBRANCH  24  25
ENDBRANCH  23  24
ENDBRANCH  22  23
TORSDOF 6
ENDMDL
MODEL 9
REMARK VINA RESULT:      -7.3     14.487     16.405
REMARK  Name = 
REMARK  6 active torsions:
REMARK  status: ('A' for Active; 'I' for Inactive)
REMARK    1  A    between atoms: C_5  and  C_6
REMARK    2  A    between atoms: C_6  and  C_7
REMARK    3  A    between atoms: C_22  and  C_23
REMARK    4  A    between atoms: C_23  and  N_24
REMARK    5  A    between atoms: N_24  and  S_25
REMARK    6  A    between atoms: S_25  and  C_28
REMARK                            x       y       z     vdW  Elec       q    Type
REMARK                         _______ _______ _______ _____ _____    ______ ____
ROOT
ATOM      1  O   UNL     1      -3.413 -10.600  14.451  0.00  0.00    -0.218 OA
ATOM      2  C   UNL     1      -4.228 -10.543  14.561  0.00  0.00    +0.213 C 
ATOM      3  C   UNL     1      -4.627 -10.626  15.278  0.00  0.00    +0.212 C 
ATOM      4  O   UNL     1      -4.281 -10.781  16.011  0.00  0.00    -0.218 OA
ATOM      5  C   UNL     1      -5.433 -10.527  15.134  0.00  0.00    +0.157 C 
ATOM     21  O   UNL     1      -5.533 -10.383  14.328  0.00  0.00    -0.351 OA
ATOM     22  C   UNL     1      -4.788 -10.393  13.974  0.00  0.00    +0.167 C 
ENDROOT
BRANCH   5   6
ATOM      6  C   UNL     1      -6.035 -10.566  15.698  0.00  0.00    +0.117 C 
BRANCH   6   7
ATOM      7  C   UNL     1      -6.392  -9.873  15.968  0.00  0.00    +0.228 C 
ATOM      8  O   UNL     1      -6.028  -9.144  15.839  0.00  0.00    -0.275 OA
ATOM      9  N   UNL     1      -7.113  -9.908  16.367  0.00  0.00    -0.276 N 
ATOM     10  C   UNL     1      -7.470  -9.216  16.637  0.00  0.00    +0.115 C 
ATOM     11  C   UNL     1      -8.191  -9.251  17.036  0.00  0.00    +0.114 C 
ATOM     12  N   UNL     1      -8.556  -9.980  17.166  0.00  0.00    -0.290 N 
ATOM     13  C   UNL     1      -8.199 -10.673  16.895  0.00  0.00    +0.114 C 
ATOM     14  C   UNL     1      -7.478 -10.638  16.496  0.00  0.00    +0.115 C 
ATOM     15  C   UNL     1      -9.277 -10.016  17.565  0.00  0.00    +0.132 A 
ATOM     16  N   UNL     1      -9.634  -9.323  17.835  0.00  0.00    -0.229 NA
ATOM     17  C   UNL     1     -10.355  -9.359  18.234  0.00  0.00    +0.100 A 
ATOM     18  C   UNL     1     -10.719 -10.088  18.363  0.00  0.00    +0.021 A 
ATOM     19  C   UNL     1     -10.363 -10.781  18.093  0.00  0.00    +0.004 A 
ATOM     20  C   UNL     1      -9.641 -10.745  17.694  0.00  0.00    +0.034 A 
ENDBRANCH   6   7
ENDBRANCH   5   6
BRANCH  22  23
ATOM     23  C   UNL     1      -4.631 -10.274  13.173  0.00  0.00    +0.148 C 
BRANCH  23  24
ATOM     24  N   UNL     1      -5.245 -10.086  12.656  0.00  0.00    -0.075 NA
BRANCH  24  25
ATOM     25  S   UNL     1      -5.075  -9.811  11.896  0.00  0.00    +0.077 S 
ATOM     26  O   UNL     1      -5.209  -9.036  12.147  0.00  0.00    -0.152 OA
ATOM     27  O   UNL     1      -4.942 -10.587  11.646  0.00  0.00    -0.152 OA
BRANCH  25  28
ATOM     28  C   UNL     1      -4.906  -9.537  11.138  0.00  0.00    +0.124 A 
ATOM     29  C   UNL     1      -5.471  -9.103  10.719  0.00  0.00    +0.021 A 
ATOM     30  C   UNL     1      -5.301  -8.829   9.961  0.00  0.00    +0.013 A 
ATOM     31  C   UNL     1      -4.567  -8.987   9.618  0.00  0.00    +0.058 A 
ATOM     32 CL   UNL     1      -4.398  -8.712   8.860  0.00  0.00    -0.082 Cl
ATOM     33  C   UNL     1      -4.003  -9.420  10.036  0.00  0.00    +0.013 A 
ATOM     34  C   UNL     1      -4.172  -9.695  10.795  0.00  0.00    +0.021 A 
ENDBRANCH  25  28
ENDBRANCH  24  25
ENDBRANCH  23  24
ENDBRANCH  22  23
TORSDOF 6
ENDMDL
MODEL 10
REMARK VINA RESULT:      -7.3     16.147     17.646
REMARK  Name = 
REMARK  6 active torsions:
REMARK  status: ('A' for Active; 'I' for Inactive)
REMARK    1  A    between atoms: C_5  and  C_6
REMARK    2  A    between atoms: C_6  and  C_7
REMARK    3  A    between atoms: C_22  and  C_23
REMARK    4  A    between atoms: C_23  and  N_24
REMARK    5  A    between atoms: N_24  and  S_25
REMARK    6  A    between atoms: S_25  and  C_28
REMARK                            x       y       z     vdW  Elec       q    Type
REMARK                         _______ _______ _______ _____ _____    ______ ____
ROOT
ATOM      1  O   UNL     1      -1.564  -9.581  11.078  0.00  0.00    -0.218 OA
ATOM      2  C   UNL     1      -2.386  -9.650  11.070  0.00  0.00    +0.213 C 
ATOM      3  C   UNL     1      -2.889  -9.386  10.472  0.00  0.00    +0.212 C 
ATOM      4  O   UNL     1      -2.658  -9.006   9.776  0.00  0.00    -0.218 OA
ATOM      5  C   UNL     1      -3.663  -9.569  10.691  0.00  0.00    +0.157 C 
ATOM     21  O   UNL     1      -3.638  -9.946  11.424  0.00  0.00    -0.351 OA
ATOM     22  C   UNL     1      -2.849  -9.996  11.659  0.00  0.00    +0.167 C 
ENDROOT
BRANCH   5   6
ATOM      6  C   UNL     1      -4.343  -9.403  10.253  0.00  0.00    +0.117 C 
BRANCH   6   7
ATOM      7  C   UNL     1      -4.993  -9.910  10.294  0.00  0.00    +0.228 C 
ATOM      8  O   UNL     1      -4.890 -10.695  10.525  0.00  0.00    -0.275 OA
ATOM      9  N   UNL     1      -5.746  -9.632  10.103  0.00  0.00    -0.276 N 
ATOM     10  C   UNL     1      -6.395 -10.138  10.143  0.00  0.00    +0.115 C 
ATOM     11  C   UNL     1      -7.148  -9.860   9.952  0.00  0.00    +0.114 C 
ATOM     12  N   UNL     1      -7.251  -9.075   9.720  0.00  0.00    -0.290 N 
ATOM     13  C   UNL     1      -6.601  -8.568   9.680  0.00  0.00    +0.114 C 
ATOM     14  C   UNL     1      -5.848  -8.846   9.871  0.00  0.00    +0.115 C 
ATOM     15  C   UNL     1      -8.004  -8.796   9.529  0.00  0.00    +0.132 A 
ATOM     16  N   UNL     1      -8.653  -9.303   9.570  0.00  0.00    -0.229 NA
ATOM     17  C   UNL     1      -9.406  -9.025   9.378  0.00  0.00    +0.100 A 
ATOM     18  C   UNL     1      -9.509  -8.240   9.147  0.00  0.00    +0.021 A 
ATOM     19  C   UNL     1      -8.860  -7.733   9.106  0.00  0.00    +0.004 A 
ATOM     20  C   UNL     1      -8.107  -8.012   9.297  0.00  0.00    +0.034 A 
ENDBRANCH   6   7
ENDBRANCH   5   6
BRANCH  22  23
ATOM     23  C   UNL     1      -2.572 -10.333  12.358  0.00  0.00    +0.148 C 
BRANCH  23  24
ATOM     24  N   UNL     1      -3.100 -10.519  12.964  0.00  0.00    -0.075 NA
BRANCH  24  25
ATOM     25  S   UNL     1      -2.833 -10.571  13.743  0.00  0.00    +0.077 S 
ATOM     26  O   UNL     1      -2.058 -10.656  13.472  0.00  0.00    -0.152 OA
ATOM     27  O   UNL     1      -3.608 -10.486  14.015  0.00  0.00    -0.152 OA
BRANCH  25  28
ATOM     28  C   UNL     1      -2.566 -10.624  14.521  0.00  0.00    +0.124 A 
ATOM     29  C   UNL     1      -3.108 -10.698  15.140  0.00  0.00    +0.021 A 
ATOM     30  C   UNL     1      -2.840 -10.751  15.918  0.00  0.00    +0.013 A 
ATOM     31  C   UNL     1      -2.032 -10.728  16.080  0.00  0.00    +0.058 A 
ATOM     32 CL   UNL     1      -1.764 -10.780  16.858  0.00  0.00    -0.082 Cl
ATOM     33  C   UNL     1      -1.490 -10.654  15.462  0.00  0.00    +0.013 A 
ATOM     34  C   UNL     1      -1.757 -10.601  14.683  0.00  0.00    +0.021 A 
ENDBRANCH  25  28
ENDBRANCH  24  25
ENDBRANCH  23  24
ENDBRANCH  22  23
TORSDOF 6
ENDMDL
