REMARK  Name = 
REMARK  2 active torsions:
REMARK  status: ('A' for Active; 'I' for Inactive)
REMARK    1  A    between atoms: C_7  and  C_9
REMARK    2  A    between atoms: C_14  and  C_16
REMARK                            x       y       z     vdW  Elec       q    Type
REMARK                         _______ _______ _______ _____ _____    ______ ____
ROOT
ATOM      9  C   UNL     1      -1.453   1.523   0.000  0.00  0.00    +0.098 C 
ATOM     10  C   UNL     1      -1.938   0.856   0.000  0.00  0.00    +0.032 C 
ATOM     11  C   UNL     1      -2.723   1.110   0.000  0.00  0.00    +0.094 C 
ATOM     12  N   UNL     1      -2.723   1.935   0.000  0.00  0.00    -0.276 N 
ATOM     13  C   UNL     1      -1.938   2.190   0.000  0.00  0.00    +0.103 C 
ATOM     14  C   UNL     1      -3.390   2.420   0.000  0.00  0.00    +0.249 C 
ATOM     15  O   UNL     1      -4.144   2.085   0.000  0.00  0.00    -0.270 OA
ENDROOT
BRANCH   9   7
ATOM      1 CL   UNL     1       2.784   0.698   0.000  0.00  0.00    -0.082 Cl
ATOM      2  C   UNL     1       2.070   1.110   0.000  0.00  0.00    +0.059 A 
ATOM      3  C   UNL     1       1.356   0.698   0.000  0.00  0.00    +0.034 A 
ATOM      4  C   UNL     1       0.641   1.110   0.000  0.00  0.00    +0.119 A 
ATOM      5  C   UNL     1       0.641   1.935   0.000  0.00  0.00    +0.164 A 
ATOM      6  O   UNL     1      -0.143   2.190   0.000  0.00  0.00    -0.438 OA
ATOM      7  C   UNL     1      -0.628   1.523   0.000  0.00  0.00    +0.207 A 
ATOM      8  N   UNL     1      -0.143   0.856   0.000  0.00  0.00    -0.212 NA
ATOM     22  C   UNL     1       1.356   2.348   0.000  0.00  0.00    +0.040 A 
ATOM     23  C   UNL     1       2.070   1.935   0.000  0.00  0.00    +0.015 A 
ENDBRANCH   9   7
BRANCH  14  16
ATOM     16  C   UNL     1      -3.304   3.241   0.000  0.00  0.00    +0.054 A 
ATOM     17  C   UNL     1      -3.972   3.726   0.000  0.00  0.00    +0.005 A 
ATOM     18  C   UNL     1      -3.885   4.546   0.000  0.00  0.00    +0.000 A 
ATOM     19  C   UNL     1      -3.132   4.882   0.000  0.00  0.00    +0.000 A 
ATOM     20  C   UNL     1      -2.464   4.397   0.000  0.00  0.00    +0.000 A 
ATOM     21  C   UNL     1      -2.550   3.576   0.000  0.00  0.00    +0.005 A 
ENDBRANCH  14  16
TORSDOF 2
