MODEL 1
REMARK VINA RESULT:     -13.5      0.000      0.000
REMARK  Name = 
REMARK  5 active torsions:
REMARK  status: ('A' for Active; 'I' for Inactive)
REMARK    1  A    between atoms: C_3  and  N_4
REMARK    2  A    between atoms: N_7  and  C_8
REMARK    3  A    between atoms: C_10  and  C_14
REMARK    4  A    between atoms: C_23  and  N_24
REMARK    5  A    between atoms: N_27  and  C_30
REMARK                            x       y       z     vdW  Elec       q    Type
REMARK                         _______ _______ _______ _____ _____    ______ ____
ROOT
ATOM      1  O   UNL     1      -2.686   1.699  25.478  0.00  0.00    -0.220 OA
ATOM      2  C   UNL     1      -3.449   1.667  25.164  0.00  0.00    +0.194 C 
ATOM      3  C   UNL     1      -4.191   1.363  24.956  0.00  0.00    +0.158 C 
ATOM     18  C   UNL     1      -4.538   2.117  24.537  0.00  0.00    +0.170 C 
ATOM     19  C   UNL     1      -4.064   2.733  24.518  0.00  0.00    +0.176 C 
ATOM     20  O   UNL     1      -3.985   3.422  24.303  0.00  0.00    -0.327 OA
ATOM     21  C   UNL     1      -4.386   2.643  24.412  0.00  0.00    +0.253 C 
ATOM     22  O   UNL     1      -5.125   2.343  24.204  0.00  0.00    -0.327 OA
ATOM     23  C   UNL     1      -4.010   1.864  24.853  0.00  0.00    +0.147 C 
ENDROOT
BRANCH  23  24
ATOM     24  N   UNL     1      -3.464   2.482  24.864  0.00  0.00    -0.265 NA
ATOM     25  C   UNL     1      -3.443   3.003  25.504  0.00  0.00    +0.094 C 
ATOM     26  C   UNL     1      -2.897   3.621  25.515  0.00  0.00    +0.108 C 
ATOM     27  N   UNL     1      -2.372   3.719  24.887  0.00  0.00    -0.305 N 
ATOM     28  C   UNL     1      -2.392   3.198  24.247  0.00  0.00    +0.108 C 
ATOM     29  C   UNL     1      -2.938   2.580  24.236  0.00  0.00    +0.094 C 
BRANCH  27  30
ATOM     30  C   UNL     1      -1.825   4.337  24.897  0.00  0.00    +0.048 A 
ATOM     31  C   UNL     1      -1.032   4.189  24.722  0.00  0.00    +0.015 A 
ATOM     32  C   UNL     1      -0.485   4.806  24.732  0.00  0.00    +0.001 A 
ATOM     33  C   UNL     1      -0.731   5.572  24.917  0.00  0.00    +0.000 A 
ATOM     34  C   UNL     1      -1.524   5.720  25.092  0.00  0.00    +0.001 A 
ATOM     35  C   UNL     1      -2.070   5.103  25.081  0.00  0.00    +0.015 A 
ENDBRANCH  27  30
ENDBRANCH  23  24
BRANCH   3   4
ATOM      4  N   UNL     1      -4.522   0.618  25.082  0.00  0.00    -0.183 NA
ATOM      5  C   UNL     1      -4.181  -0.049  24.736  0.00  0.00    +0.344 C 
ATOM      6  O   UNL     1      -3.508   0.030  24.263  0.00  0.00    -0.249 OA
ATOM      7  N   UNL     1      -4.511  -0.794  24.863  0.00  0.00    -0.161 NA
BRANCH   7   8
ATOM      8  C   UNL     1      -4.170  -1.461  24.516  0.00  0.00    +0.075 A 
ATOM      9  C   UNL     1      -3.485  -1.788  24.839  0.00  0.00    +0.021 A 
ATOM     10  C   UNL     1      -3.144  -2.455  24.493  0.00  0.00    +0.073 A 
ATOM     11  C   UNL     1      -3.488  -2.794  23.824  0.00  0.00    +0.004 A 
ATOM     12  C   UNL     1      -4.173  -2.466  23.502  0.00  0.00    +0.001 A 
ATOM     13  C   UNL     1      -4.514  -1.800  23.847  0.00  0.00    +0.017 A 
BRANCH  10  14
ATOM     14  C   UNL     1      -2.459  -2.783  24.815  0.00  0.00    +0.419 C 
ATOM     15  F   UNL     1      -1.774  -3.110  25.137  0.00  0.00    -0.166 F 
ATOM     16  F   UNL     1      -2.021  -2.493  24.178  0.00  0.00    -0.166 F 
ATOM     17  F   UNL     1      -2.896  -3.073  25.452  0.00  0.00    -0.166 F 
ENDBRANCH  10  14
ENDBRANCH   7   8
ENDBRANCH   3   4
TORSDOF 5
ENDMDL
MODEL 2
REMARK VINA RESULT:     -12.4      1.921      2.588
REMARK  Name = 
REMARK  5 active torsions:
REMARK  status: ('A' for Active; 'I' for Inactive)
REMARK    1  A    between atoms: C_3  and  N_4
REMARK    2  A    between atoms: N_7  and  C_8
REMARK    3  A    between atoms: C_10  and  C_14
REMARK    4  A    between atoms: C_23  and  N_24
REMARK    5  A    between atoms: N_27  and  C_30
REMARK                            x       y       z     vdW  Elec       q    Type
REMARK                         _______ _______ _______ _____ _____    ______ ____
ROOT
ATOM      1  O   UNL     1      -1.656   1.753  23.898  0.00  0.00    -0.220 OA
ATOM      2  C   UNL     1      -1.294   1.258  24.450  0.00  0.00    +0.194 C 
ATOM      3  C   UNL     1      -1.020   0.562  24.807  0.00  0.00    +0.158 C 
ATOM     18  C   UNL     1      -0.636   0.936  25.565  0.00  0.00    +0.170 C 
ATOM     19  C   UNL     1      -0.691   1.711  25.617  0.00  0.00    +0.176 C 
ATOM     20  O   UNL     1      -0.532   2.297  26.014  0.00  0.00    -0.327 OA
ATOM     21  C   UNL     1      -0.560   1.441  25.799  0.00  0.00    +0.253 C 
ATOM     22  O   UNL     1      -0.285   0.750  26.157  0.00  0.00    -0.327 OA
ATOM     23  C   UNL     1      -0.965   1.064  25.002  0.00  0.00    +0.147 C 
ENDROOT
BRANCH  23  24
ATOM     24  N   UNL     1      -1.054   1.885  25.000  0.00  0.00    -0.265 NA
ATOM     25  C   UNL     1      -0.483   2.362  24.643  0.00  0.00    +0.094 C 
ATOM     26  C   UNL     1      -0.573   3.182  24.642  0.00  0.00    +0.108 C 
ATOM     27  N   UNL     1      -1.233   3.525  24.998  0.00  0.00    -0.305 N 
ATOM     28  C   UNL     1      -1.804   3.049  25.355  0.00  0.00    +0.108 C 
ATOM     29  C   UNL     1      -1.714   2.229  25.356  0.00  0.00    +0.094 C 
BRANCH  27  30
ATOM     30  C   UNL     1      -1.323   4.345  24.997  0.00  0.00    +0.048 A 
ATOM     31  C   UNL     1      -0.716   4.826  24.712  0.00  0.00    +0.015 A 
ATOM     32  C   UNL     1      -0.805   5.646  24.711  0.00  0.00    +0.001 A 
ATOM     33  C   UNL     1      -1.501   5.985  24.995  0.00  0.00    +0.000 A 
ATOM     34  C   UNL     1      -2.108   5.504  25.280  0.00  0.00    +0.001 A 
ATOM     35  C   UNL     1      -2.019   4.685  25.281  0.00  0.00    +0.015 A 
ENDBRANCH  27  30
ENDBRANCH  23  24
BRANCH   3   4
ATOM      4  N   UNL     1      -1.071  -0.225  24.562  0.00  0.00    -0.183 NA
ATOM      5  C   UNL     1      -1.743  -0.669  24.742  0.00  0.00    +0.344 C 
ATOM      6  O   UNL     1      -2.363  -0.327  25.166  0.00  0.00    -0.249 OA
ATOM      7  N   UNL     1      -1.795  -1.455  24.497  0.00  0.00    -0.161 NA
BRANCH   7   8
ATOM      8  C   UNL     1      -2.466  -1.899  24.677  0.00  0.00    +0.075 A 
ATOM      9  C   UNL     1      -3.066  -1.984  24.117  0.00  0.00    +0.021 A 
ATOM     10  C   UNL     1      -3.738  -2.429  24.297  0.00  0.00    +0.073 A 
ATOM     11  C   UNL     1      -3.810  -2.788  25.036  0.00  0.00    +0.004 A 
ATOM     12  C   UNL     1      -3.209  -2.703  25.595  0.00  0.00    +0.001 A 
ATOM     13  C   UNL     1      -2.538  -2.259  25.416  0.00  0.00    +0.017 A 
BRANCH  10  14
ATOM     14  C   UNL     1      -4.338  -2.514  23.738  0.00  0.00    +0.419 C 
ATOM     15  F   UNL     1      -4.939  -2.598  23.179  0.00  0.00    -0.166 F 
ATOM     16  F   UNL     1      -4.630  -1.768  23.938  0.00  0.00    -0.166 F 
ATOM     17  F   UNL     1      -4.047  -3.259  23.537  0.00  0.00    -0.166 F 
ENDBRANCH  10  14
ENDBRANCH   7   8
ENDBRANCH   3   4
TORSDOF 5
ENDMDL
MODEL 3
REMARK VINA RESULT:     -12.4      2.454      5.737
REMARK  Name = 
REMARK  5 active torsions:
REMARK  status: ('A' for Active; 'I' for Inactive)
REMARK    1  A    between atoms: C_3  and  N_4
REMARK    2  A    between atoms: N_7  and  C_8
REMARK    3  A    between atoms: C_10  and  C_14
REMARK    4  A    between atoms: C_23  and  N_24
REMARK    5  A    between atoms: N_27  and  C_30
REMARK                            x       y       z     vdW  Elec       q    Type
REMARK                         _______ _______ _______ _____ _____    ______ ____
ROOT
ATOM      1  O   UNL     1      -3.010   0.689  23.905  0.00  0.00    -0.220 OA
ATOM      2  C   UNL     1      -3.646   1.128  24.194  0.00  0.00    +0.194 C 
ATOM      3  C   UNL     1      -4.120   1.784  24.373  0.00  0.00    +0.158 C 
ATOM     18  C   UNL     1      -4.819   1.341  24.793  0.00  0.00    +0.170 C 
ATOM     19  C   UNL     1      -4.743   0.568  24.838  0.00  0.00    +0.176 C 
ATOM     20  O   UNL     1      -5.044  -0.052  25.066  0.00  0.00    -0.327 OA
ATOM     21  C   UNL     1      -4.970   0.817  24.931  0.00  0.00    +0.253 C 
ATOM     22  O   UNL     1      -5.444   1.469  25.110  0.00  0.00    -0.327 OA
ATOM     23  C   UNL     1      -4.232   1.267  24.489  0.00  0.00    +0.147 C 
ENDROOT
BRANCH  23  24
ATOM     24  N   UNL     1      -4.095   0.454  24.506  0.00  0.00    -0.265 NA
ATOM     25  C   UNL     1      -3.748   0.107  25.171  0.00  0.00    +0.094 C 
ATOM     26  C   UNL     1      -3.611  -0.706  25.188  0.00  0.00    +0.108 C 
ATOM     27  N   UNL     1      -3.820  -1.173  24.541  0.00  0.00    -0.305 N 
ATOM     28  C   UNL     1      -4.166  -0.827  23.877  0.00  0.00    +0.108 C 
ATOM     29  C   UNL     1      -4.303  -0.014  23.860  0.00  0.00    +0.094 C 
BRANCH  27  30
ATOM     30  C   UNL     1      -3.683  -1.986  24.557  0.00  0.00    +0.048 A 
ATOM     31  C   UNL     1      -3.252  -2.319  25.177  0.00  0.00    +0.015 A 
ATOM     32  C   UNL     1      -3.115  -3.133  25.194  0.00  0.00    +0.001 A 
ATOM     33  C   UNL     1      -3.408  -3.613  24.591  0.00  0.00    +0.000 A 
ATOM     34  C   UNL     1      -3.838  -3.280  23.970  0.00  0.00    +0.001 A 
ATOM     35  C   UNL     1      -3.975  -2.467  23.954  0.00  0.00    +0.015 A 
ENDBRANCH  27  30
ENDBRANCH  23  24
BRANCH   3   4
ATOM      4  N   UNL     1      -4.005   2.588  24.223  0.00  0.00    -0.183 NA
ATOM      5  C   UNL     1      -3.465   3.019  24.674  0.00  0.00    +0.344 C 
ATOM      6  O   UNL     1      -3.040   2.645  25.276  0.00  0.00    -0.249 OA
ATOM      7  N   UNL     1      -3.350   3.821  24.525  0.00  0.00    -0.161 NA
BRANCH   7   8
ATOM      8  C   UNL     1      -2.810   4.252  24.976  0.00  0.00    +0.075 A 
ATOM      9  C   UNL     1      -2.088   4.478  24.650  0.00  0.00    +0.021 A 
ATOM     10  C   UNL     1      -1.548   4.909  25.102  0.00  0.00    +0.073 A 
ATOM     11  C   UNL     1      -1.731   5.113  25.880  0.00  0.00    +0.004 A 
ATOM     12  C   UNL     1      -2.454   4.887  26.206  0.00  0.00    +0.001 A 
ATOM     13  C   UNL     1      -2.994   4.457  25.755  0.00  0.00    +0.017 A 
BRANCH  10  14
ATOM     14  C   UNL     1      -0.824   5.135  24.776  0.00  0.00    +0.419 C 
ATOM     15  F   UNL     1      -0.102   5.362  24.450  0.00  0.00    -0.166 F 
ATOM     16  F   UNL     1      -1.107   5.906  24.684  0.00  0.00    -0.166 F 
ATOM     17  F   UNL     1      -0.541   4.366  24.867  0.00  0.00    -0.166 F 
ENDBRANCH  10  14
ENDBRANCH   7   8
ENDBRANCH   3   4
TORSDOF 5
ENDMDL
MODEL 4
REMARK VINA RESULT:     -12.3      2.934      6.101
REMARK  Name = 
REMARK  5 active torsions:
REMARK  status: ('A' for Active; 'I' for Inactive)
REMARK    1  A    between atoms: C_3  and  N_4
REMARK    2  A    between atoms: N_7  and  C_8
REMARK    3  A    between atoms: C_10  and  C_14
REMARK    4  A    between atoms: C_23  and  N_24
REMARK    5  A    between atoms: N_27  and  C_30
REMARK                            x       y       z     vdW  Elec       q    Type
REMARK                         _______ _______ _______ _____ _____    ______ ____
ROOT
ATOM      1  O   UNL     1      -2.243   0.416  25.590  0.00  0.00    -0.220 OA
ATOM      2  C   UNL     1      -1.483   0.535  25.289  0.00  0.00    +0.194 C 
ATOM      3  C   UNL     1      -0.748   0.893  25.154  0.00  0.00    +0.158 C 
ATOM     18  C   UNL     1      -0.391   0.263  24.571  0.00  0.00    +0.170 C 
ATOM     19  C   UNL     1      -0.854  -0.341  24.412  0.00  0.00    +0.176 C 
ATOM     20  O   UNL     1      -0.921  -0.963  24.044  0.00  0.00    -0.327 OA
ATOM     21  C   UNL     1      -0.534  -0.223  24.329  0.00  0.00    +0.253 C 
ATOM     22  O   UNL     1       0.198   0.132  24.194  0.00  0.00    -0.327 OA
ATOM     23  C   UNL     1      -0.921   0.426  24.940  0.00  0.00    +0.147 C 
ENDROOT
BRANCH  23  24
ATOM     24  N   UNL     1      -1.455  -0.188  24.809  0.00  0.00    -0.265 NA
ATOM     25  C   UNL     1      -1.436  -0.861  25.287  0.00  0.00    +0.094 C 
ATOM     26  C   UNL     1      -1.971  -1.476  25.156  0.00  0.00    +0.108 C 
ATOM     27  N   UNL     1      -2.525  -1.418  24.548  0.00  0.00    -0.305 N 
ATOM     28  C   UNL     1      -2.544  -0.746  24.070  0.00  0.00    +0.108 C 
ATOM     29  C   UNL     1      -2.010  -0.131  24.201  0.00  0.00    +0.094 C 
BRANCH  27  30
ATOM     30  C   UNL     1      -3.060  -2.032  24.416  0.00  0.00    +0.048 A 
ATOM     31  C   UNL     1      -3.759  -1.888  24.003  0.00  0.00    +0.015 A 
ATOM     32  C   UNL     1      -4.295  -2.501  23.871  0.00  0.00    +0.001 A 
ATOM     33  C   UNL     1      -4.131  -3.259  24.153  0.00  0.00    +0.000 A 
ATOM     34  C   UNL     1      -3.431  -3.403  24.567  0.00  0.00    +0.001 A 
ATOM     35  C   UNL     1      -2.897  -2.790  24.698  0.00  0.00    +0.015 A 
ENDBRANCH  27  30
ENDBRANCH  23  24
BRANCH   3   4
ATOM      4  N   UNL     1      -0.430   1.595  25.449  0.00  0.00    -0.183 NA
ATOM      5  C   UNL     1      -0.793   2.316  25.278  0.00  0.00    +0.344 C 
ATOM      6  O   UNL     1      -1.475   2.334  24.812  0.00  0.00    -0.249 OA
ATOM      7  N   UNL     1      -0.475   3.018  25.572  0.00  0.00    -0.161 NA
BRANCH   7   8
ATOM      8  C   UNL     1      -0.838   3.739  25.401  0.00  0.00    +0.075 A 
ATOM      9  C   UNL     1      -1.605   3.887  25.666  0.00  0.00    +0.021 A 
ATOM     10  C   UNL     1      -1.968   4.608  25.495  0.00  0.00    +0.073 A 
ATOM     11  C   UNL     1      -1.565   5.180  25.059  0.00  0.00    +0.004 A 
ATOM     12  C   UNL     1      -0.798   5.031  24.794  0.00  0.00    +0.001 A 
ATOM     13  C   UNL     1      -0.435   4.311  24.965  0.00  0.00    +0.017 A 
BRANCH  10  14
ATOM     14  C   UNL     1      -2.735   4.757  25.760  0.00  0.00    +0.419 C 
ATOM     15  F   UNL     1      -3.502   4.907  26.025  0.00  0.00    -0.166 F 
ATOM     16  F   UNL     1      -2.449   4.868  26.526  0.00  0.00    -0.166 F 
ATOM     17  F   UNL     1      -3.022   4.647  24.994  0.00  0.00    -0.166 F 
ENDBRANCH  10  14
ENDBRANCH   7   8
ENDBRANCH   3   4
TORSDOF 5
ENDMDL
