MODEL 1
REMARK VINA RESULT:     -13.5      0.000      0.000
REMARK  Name = 
REMARK  5 active torsions:
REMARK  status: ('A' for Active; 'I' for Inactive)
REMARK    1  A    between atoms: C_2  and  C_4
REMARK    2  A    between atoms: C_11  and  C_13
REMARK    3  A    between atoms: N_16  and  C_17
REMARK    4  A    between atoms: C_17  and  C_18
REMARK    5  A    between atoms: C_21  and  C_24
REMARK                            x       y       z     vdW  Elec       q    Type
REMARK                         _______ _______ _______ _____ _____    ______ ____
ROOT
ATOM     13  C   UNL     1      -3.482   2.156  24.737  0.00  0.00    +0.076 C 
ATOM     14  C   UNL     1      -4.045   2.133  24.136  0.00  0.00    +0.026 C 
ATOM     15  C   UNL     1      -4.514   1.463  24.250  0.00  0.00    +0.073 C 
ATOM     16  N   UNL     1      -4.239   1.072  24.922  0.00  0.00    -0.269 NA
ATOM     28  C   UNL     1      -3.601   1.500  25.223  0.00  0.00    +0.080 C 
ENDROOT
BRANCH  13  11
ATOM      4  C   UNL     1      -0.917   3.539  25.026  0.00  0.00    +0.076 A 
ATOM      5  C   UNL     1      -0.706   4.329  25.135  0.00  0.00    +0.006 A 
ATOM      6  C   UNL     1      -1.290   4.909  25.181  0.00  0.00    +0.002 A 
ATOM      7  C   UNL     1      -2.085   4.700  25.119  0.00  0.00    +0.021 A 
ATOM      8  C   UNL     1      -2.298   3.910  25.011  0.00  0.00    +0.100 A 
ATOM      9  C   UNL     1      -1.713   3.329  24.964  0.00  0.00    +0.105 A 
ATOM     10  N   UNL     1      -2.085   2.602  24.856  0.00  0.00    -0.229 NA
ATOM     11  C   UNL     1      -2.900   2.733  24.836  0.00  0.00    +0.140 A 
ATOM     12  N   UNL     1      -3.031   3.541  24.931  0.00  0.00    -0.229 NA
BRANCH   4   2
ATOM      1  N   UNL     1      -0.026   2.626  25.668  0.00  0.00    -0.084 NA
ATOM      2  C   UNL     1      -0.334   2.959  24.979  0.00  0.00    +0.286 C 
ATOM      3  O   UNL     1      -0.057   2.710  24.242  0.00  0.00    -0.267 OA
ENDBRANCH   4   2
ENDBRANCH  13  11
BRANCH  16  17
ATOM     17  C   UNL     1      -4.548   0.375  25.237  0.00  0.00    +0.099 C 
BRANCH  17  18
ATOM     18  C   UNL     1      -4.208  -0.351  25.046  0.00  0.00    -0.006 A 
ATOM     19  C   UNL     1      -4.371  -0.705  24.319  0.00  0.00    -0.003 A 
ATOM     20  C   UNL     1      -4.031  -1.432  24.127  0.00  0.00    +0.004 A 
ATOM     21  C   UNL     1      -3.526  -1.804  24.664  0.00  0.00    +0.071 A 
ATOM     22  C   UNL     1      -3.363  -1.450  25.391  0.00  0.00    +0.004 A 
ATOM     23  C   UNL     1      -3.703  -0.724  25.582  0.00  0.00    -0.003 A 
BRANCH  21  24
ATOM     24  C   UNL     1      -3.186  -2.531  24.472  0.00  0.00    +0.419 C 
ATOM     25  F   UNL     1      -2.846  -3.257  24.280  0.00  0.00    -0.166 F 
ATOM     26  F   UNL     1      -2.597  -2.143  24.045  0.00  0.00    -0.166 F 
ATOM     27  F   UNL     1      -3.775  -2.920  24.899  0.00  0.00    -0.166 F 
ENDBRANCH  21  24
ENDBRANCH  17  18
ENDBRANCH  16  17
TORSDOF 5
ENDMDL
MODEL 2
REMARK VINA RESULT:     -13.4      1.536      2.266
REMARK  Name = 
REMARK  5 active torsions:
REMARK  status: ('A' for Active; 'I' for Inactive)
REMARK    1  A    between atoms: C_2  and  C_4
REMARK    2  A    between atoms: C_11  and  C_13
REMARK    3  A    between atoms: N_16  and  C_17
REMARK    4  A    between atoms: C_17  and  C_18
REMARK    5  A    between atoms: C_21  and  C_24
REMARK                            x       y       z     vdW  Elec       q    Type
REMARK                         _______ _______ _______ _____ _____    ______ ____
ROOT
ATOM     13  C   UNL     1      -1.092   1.299  25.078  0.00  0.00    +0.076 C 
ATOM     14  C   UNL     1      -0.592   0.875  24.577  0.00  0.00    +0.026 C 
ATOM     15  C   UNL     1      -0.680   0.072  24.748  0.00  0.00    +0.073 C 
ATOM     16  N   UNL     1      -1.235   0.000  25.355  0.00  0.00    -0.269 NA
ATOM     28  C   UNL     1      -1.490   0.758  25.559  0.00  0.00    +0.080 C 
ENDROOT
BRANCH  13  11
ATOM      4  C   UNL     1      -2.198   4.001  25.295  0.00  0.00    +0.076 A 
ATOM      5  C   UNL     1      -1.871   4.756  25.230  0.00  0.00    +0.006 A 
ATOM      6  C   UNL     1      -1.066   4.846  25.071  0.00  0.00    +0.002 A 
ATOM      7  C   UNL     1      -0.588   4.181  24.977  0.00  0.00    +0.021 A 
ATOM      8  C   UNL     1      -0.914   3.425  25.042  0.00  0.00    +0.100 A 
ATOM      9  C   UNL     1      -1.719   3.335  25.200  0.00  0.00    +0.105 A 
ATOM     10  N   UNL     1      -1.884   2.528  25.233  0.00  0.00    -0.229 NA
ATOM     11  C   UNL     1      -1.180   2.119  25.095  0.00  0.00    +0.140 A 
ATOM     12  N   UNL     1      -0.582   2.673  24.976  0.00  0.00    -0.229 NA
BRANCH   4   2
ATOM      1  N   UNL     1      -3.541   3.857  24.832  0.00  0.00    -0.084 NA
ATOM      2  C   UNL     1      -3.001   3.912  25.453  0.00  0.00    +0.286 C 
ATOM      3  O   UNL     1      -3.267   3.877  26.234  0.00  0.00    -0.267 OA
ENDBRANCH   4   2
ENDBRANCH  13  11
BRANCH  16  17
ATOM     17  C   UNL     1      -1.490  -0.705  25.698  0.00  0.00    +0.099 C 
BRANCH  17  18
ATOM     18  C   UNL     1      -2.085  -1.147  25.338  0.00  0.00    -0.006 A 
ATOM     19  C   UNL     1      -2.876  -1.001  25.520  0.00  0.00    -0.003 A 
ATOM     20  C   UNL     1      -3.472  -1.443  25.160  0.00  0.00    +0.004 A 
ATOM     21  C   UNL     1      -3.277  -2.033  24.617  0.00  0.00    +0.071 A 
ATOM     22  C   UNL     1      -2.486  -2.180  24.435  0.00  0.00    +0.004 A 
ATOM     23  C   UNL     1      -1.890  -1.738  24.794  0.00  0.00    -0.003 A 
BRANCH  21  24
ATOM     24  C   UNL     1      -3.873  -2.475  24.257  0.00  0.00    +0.419 C 
ATOM     25  F   UNL     1      -4.469  -2.917  23.897  0.00  0.00    -0.166 F 
ATOM     26  F   UNL     1      -4.015  -1.856  23.731  0.00  0.00    -0.166 F 
ATOM     27  F   UNL     1      -3.731  -3.095  24.783  0.00  0.00    -0.166 F 
ENDBRANCH  21  24
ENDBRANCH  17  18
ENDBRANCH  16  17
TORSDOF 5
ENDMDL
MODEL 3
REMARK VINA RESULT:     -13.0      2.874      5.290
REMARK  Name = 
REMARK  5 active torsions:
REMARK  status: ('A' for Active; 'I' for Inactive)
REMARK    1  A    between atoms: C_2  and  C_4
REMARK    2  A    between atoms: C_11  and  C_13
REMARK    3  A    between atoms: N_16  and  C_17
REMARK    4  A    between atoms: C_17  and  C_18
REMARK    5  A    between atoms: C_21  and  C_24
REMARK                            x       y       z     vdW  Elec       q    Type
REMARK                         _______ _______ _______ _____ _____    ______ ____
ROOT
ATOM     13  C   UNL     1      -3.688   1.048  24.550  0.00  0.00    +0.076 C 
ATOM     14  C   UNL     1      -4.005   1.501  23.937  0.00  0.00    +0.026 C 
ATOM     15  C   UNL     1      -4.033   2.287  24.188  0.00  0.00    +0.073 C 
ATOM     16  N   UNL     1      -3.733   2.320  24.956  0.00  0.00    -0.269 NA
ATOM     28  C   UNL     1      -3.520   1.554  25.180  0.00  0.00    +0.080 C 
ENDROOT
BRANCH  13  11
ATOM      4  C   UNL     1      -2.464  -1.607  24.699  0.00  0.00    +0.076 A 
ATOM      5  C   UNL     1      -2.751  -2.372  24.588  0.00  0.00    +0.006 A 
ATOM      6  C   UNL     1      -3.543  -2.492  24.391  0.00  0.00    +0.002 A 
ATOM      7  C   UNL     1      -4.048  -1.846  24.305  0.00  0.00    +0.021 A 
ATOM      8  C   UNL     1      -3.762  -1.080  24.415  0.00  0.00    +0.100 A 
ATOM      9  C   UNL     1      -2.970  -0.961  24.613  0.00  0.00    +0.105 A 
ATOM     10  N   UNL     1      -2.846  -0.149  24.687  0.00  0.00    -0.229 NA
ATOM     11  C   UNL     1      -3.562   0.233  24.536  0.00  0.00    +0.140 A 
ATOM     12  N   UNL     1      -4.128  -0.343  24.368  0.00  0.00    -0.229 NA
BRANCH   4   2
ATOM      1  N   UNL     1      -1.098  -1.473  24.305  0.00  0.00    -0.084 NA
ATOM      2  C   UNL     1      -1.673  -1.488  24.896  0.00  0.00    +0.286 C 
ATOM      3  O   UNL     1      -1.455  -1.382  25.685  0.00  0.00    -0.267 OA
ENDBRANCH   4   2
ENDBRANCH  13  11
BRANCH  16  17
ATOM     17  C   UNL     1      -3.659   2.998  25.419  0.00  0.00    +0.099 C 
BRANCH  17  18
ATOM     18  C   UNL     1      -3.006   3.493  25.325  0.00  0.00    -0.006 A 
ATOM     19  C   UNL     1      -3.028   4.105  24.773  0.00  0.00    -0.003 A 
ATOM     20  C   UNL     1      -2.375   4.600  24.679  0.00  0.00    +0.004 A 
ATOM     21  C   UNL     1      -1.699   4.482  25.138  0.00  0.00    +0.071 A 
ATOM     22  C   UNL     1      -1.677   3.870  25.690  0.00  0.00    +0.004 A 
ATOM     23  C   UNL     1      -2.330   3.375  25.784  0.00  0.00    -0.003 A 
BRANCH  21  24
ATOM     24  C   UNL     1      -1.045   4.977  25.044  0.00  0.00    +0.419 C 
ATOM     25  F   UNL     1      -0.392   5.472  24.950  0.00  0.00    -0.166 F 
ATOM     26  F   UNL     1      -1.449   5.584  25.430  0.00  0.00    -0.166 F 
ATOM     27  F   UNL     1      -0.641   4.370  24.658  0.00  0.00    -0.166 F 
ENDBRANCH  21  24
ENDBRANCH  17  18
ENDBRANCH  16  17
TORSDOF 5
ENDMDL
MODEL 4
REMARK VINA RESULT:     -12.8      3.075      5.770
REMARK  Name = 
REMARK  5 active torsions:
REMARK  status: ('A' for Active; 'I' for Inactive)
REMARK    1  A    between atoms: C_2  and  C_4
REMARK    2  A    between atoms: C_11  and  C_13
REMARK    3  A    between atoms: N_16  and  C_17
REMARK    4  A    between atoms: C_17  and  C_18
REMARK    5  A    between atoms: C_21  and  C_24
REMARK                            x       y       z     vdW  Elec       q    Type
REMARK                         _______ _______ _______ _____ _____    ______ ____
ROOT
ATOM     13  C   UNL     1      -0.992   0.314  24.637  0.00  0.00    +0.076 C 
ATOM     14  C   UNL     1      -0.500   0.520  24.008  0.00  0.00    +0.026 C 
ATOM     15  C   UNL     1      -0.079   1.196  24.225  0.00  0.00    +0.073 C 
ATOM     16  N   UNL     1      -0.311   1.407  24.987  0.00  0.00    -0.269 NA
ATOM     28  C   UNL     1      -0.875   0.862  25.243  0.00  0.00    +0.080 C 
ENDROOT
BRANCH  13  11
ATOM      4  C   UNL     1      -3.397  -1.352  24.764  0.00  0.00    +0.076 A 
ATOM      5  C   UNL     1      -3.526  -2.166  24.753  0.00  0.00    +0.006 A 
ATOM      6  C   UNL     1      -2.886  -2.685  24.696  0.00  0.00    +0.002 A 
ATOM      7  C   UNL     1      -2.118  -2.388  24.650  0.00  0.00    +0.021 A 
ATOM      8  C   UNL     1      -1.989  -1.573  24.661  0.00  0.00    +0.100 A 
ATOM      9  C   UNL     1      -2.628  -1.055  24.718  0.00  0.00    +0.105 A 
ATOM     10  N   UNL     1      -2.333  -0.285  24.716  0.00  0.00    -0.229 NA
ATOM     11  C   UNL     1      -1.511  -0.328  24.658  0.00  0.00    +0.140 A 
ATOM     12  N   UNL     1      -1.298  -1.124  24.623  0.00  0.00    -0.229 NA
BRANCH   4   2
ATOM      1  N   UNL     1      -4.478  -0.648  24.151  0.00  0.00    -0.084 NA
ATOM      2  C   UNL     1      -4.036  -0.834  24.822  0.00  0.00    +0.286 C 
ATOM      3  O   UNL     1      -4.233  -0.501  25.551  0.00  0.00    -0.267 OA
ENDBRANCH   4   2
ENDBRANCH  13  11
BRANCH  16  17
ATOM     17  C   UNL     1      -0.028   2.051  25.419  0.00  0.00    +0.099 C 
BRANCH  17  18
ATOM     18  C   UNL     1      -0.391   2.787  25.348  0.00  0.00    -0.006 A 
ATOM     19  C   UNL     1      -0.186   3.290  24.727  0.00  0.00    -0.003 A 
ATOM     20  C   UNL     1      -0.549   4.028  24.656  0.00  0.00    +0.004 A 
ATOM     21  C   UNL     1      -1.118   4.262  25.206  0.00  0.00    +0.071 A 
ATOM     22  C   UNL     1      -1.324   3.759  25.826  0.00  0.00    +0.004 A 
ATOM     23  C   UNL     1      -0.960   3.022  25.898  0.00  0.00    -0.003 A 
BRANCH  21  24
ATOM     24  C   UNL     1      -1.482   4.999  25.134  0.00  0.00    +0.419 C 
ATOM     25  F   UNL     1      -1.845   5.736  25.063  0.00  0.00    -0.166 F 
ATOM     26  F   UNL     1      -2.222   4.638  25.173  0.00  0.00    -0.166 F 
ATOM     27  F   UNL     1      -0.741   5.361  25.095  0.00  0.00    -0.166 F 
ENDBRANCH  21  24
ENDBRANCH  17  18
ENDBRANCH  16  17
TORSDOF 5
ENDMDL
