MODEL 1
REMARK VINA RESULT:      -9.2      0.000      0.000
REMARK  Name = 
REMARK  5 active torsions:
REMARK  status: ('A' for Active; 'I' for Inactive)
REMARK    1  A    between atoms: C_3  and  C_4
REMARK    2  A    between atoms: C_4  and  N_5
REMARK    3  A    between atoms: C_16  and  N_17
REMARK    4  A    between atoms: N_17  and  C_18
REMARK    5  A    between atoms: C_18  and  C_19
REMARK                            x       y       z     vdW  Elec       q    Type
REMARK                         _______ _______ _______ _____ _____    ______ ____
ROOT
ATOM      1  O   UNL     1      -3.443   1.230  23.435  0.00  0.00    -0.219 OA
ATOM      2  C   UNL     1      -3.858   1.255  24.148  0.00  0.00    +0.199 C 
ATOM      3  C   UNL     1      -4.024   1.932  24.589  0.00  0.00    +0.169 C 
ATOM     14  O   UNL     1      -4.447   1.703  25.258  0.00  0.00    -0.350 OA
ATOM     15  C   UNL     1      -4.543   0.884  25.231  0.00  0.00    +0.162 C 
ATOM     16  C   UNL     1      -4.179   0.607  24.545  0.00  0.00    +0.135 C 
ENDROOT
BRANCH   3   4
ATOM      4  C   UNL     1      -3.804   2.704  24.394  0.00  0.00    +0.149 C 
BRANCH   4   5
ATOM      5  N   UNL     1      -3.065   2.992  24.618  0.00  0.00    -0.186 NA
ATOM      6  C   UNL     1      -2.927   3.805  24.637  0.00  0.00    +0.323 C 
ATOM      7  O   UNL     1      -3.529   4.330  24.431  0.00  0.00    -0.251 OA
ATOM      8  N   UNL     1      -2.187   4.093  24.862  0.00  0.00    -0.258 N 
ATOM      9  C   UNL     1      -2.050   4.906  24.881  0.00  0.00    +0.127 C 
ATOM     10  C   UNL     1      -1.310   5.195  25.105  0.00  0.00    +0.164 C 
ATOM     11  O   UNL     1      -0.708   4.669  25.311  0.00  0.00    -0.350 OA
ATOM     12  C   UNL     1      -0.846   3.855  25.292  0.00  0.00    +0.164 C 
ATOM     13  C   UNL     1      -1.586   3.567  25.068  0.00  0.00    +0.127 C 
ENDBRANCH   4   5
ENDBRANCH   3   4
BRANCH  16  17
ATOM     17  N   UNL     1      -4.142  -0.179  24.300  0.00  0.00    -0.209 NA
BRANCH  17  18
ATOM     18  C   UNL     1      -4.120  -0.785  24.859  0.00  0.00    +0.117 C 
BRANCH  18  19
ATOM     19  C   UNL     1      -3.953  -1.559  24.623  0.00  0.00    +0.014 A 
ATOM     20  C   UNL     1      -3.437  -2.023  25.068  0.00  0.00    +0.000 A 
ATOM     21  C   UNL     1      -3.270  -2.797  24.832  0.00  0.00    +0.020 A 
ATOM     22  C   UNL     1      -3.621  -3.104  24.151  0.00  0.00    +0.099 A 
ATOM     23  N   UNL     1      -4.137  -2.639  23.707  0.00  0.00    -0.243 NA
ATOM     24  C   UNL     1      -4.304  -1.866  23.943  0.00  0.00    +0.096 A 
ENDBRANCH  18  19
ENDBRANCH  17  18
ENDBRANCH  16  17
TORSDOF 5
ENDMDL
MODEL 2
REMARK VINA RESULT:      -9.2      1.780      2.159
REMARK  Name = 
REMARK  5 active torsions:
REMARK  status: ('A' for Active; 'I' for Inactive)
REMARK    1  A    between atoms: C_3  and  C_4
REMARK    2  A    between atoms: C_4  and  N_5
REMARK    3  A    between atoms: C_16  and  N_17
REMARK    4  A    between atoms: N_17  and  C_18
REMARK    5  A    between atoms: C_18  and  C_19
REMARK                            x       y       z     vdW  Elec       q    Type
REMARK                         _______ _______ _______ _____ _____    ______ ____
ROOT
ATOM      1  O   UNL     1      -1.427   0.551  23.666  0.00  0.00    -0.219 OA
ATOM      2  C   UNL     1      -1.359   0.455  24.483  0.00  0.00    +0.199 C 
ATOM      3  C   UNL     1      -0.992   0.980  25.003  0.00  0.00    +0.169 C 
ATOM     14  O   UNL     1      -1.052   0.668  25.764  0.00  0.00    -0.350 OA
ATOM     15  C   UNL     1      -1.456  -0.050  25.714  0.00  0.00    +0.162 C 
ATOM     16  C   UNL     1      -1.646  -0.182  24.923  0.00  0.00    +0.135 C 
ENDROOT
BRANCH   3   4
ATOM      4  C   UNL     1      -0.629   1.692  24.799  0.00  0.00    +0.149 C 
BRANCH   4   5
ATOM      5  N   UNL     1      -0.988   2.409  24.993  0.00  0.00    -0.186 NA
ATOM      6  C   UNL     1      -0.632   3.121  24.775  0.00  0.00    +0.323 C 
ATOM      7  O   UNL     1       0.082   3.115  24.363  0.00  0.00    -0.251 OA
ATOM      8  N   UNL     1      -0.991   3.838  24.969  0.00  0.00    -0.258 N 
ATOM      9  C   UNL     1      -0.636   4.549  24.752  0.00  0.00    +0.127 C 
ATOM     10  C   UNL     1      -0.994   5.267  24.946  0.00  0.00    +0.164 C 
ATOM     11  O   UNL     1      -1.709   5.272  25.358  0.00  0.00    -0.350 OA
ATOM     12  C   UNL     1      -2.065   4.559  25.576  0.00  0.00    +0.164 C 
ATOM     13  C   UNL     1      -1.706   3.843  25.382  0.00  0.00    +0.127 C 
ENDBRANCH   4   5
ENDBRANCH   3   4
BRANCH  16  17
ATOM     17  N   UNL     1      -2.050  -0.834  24.623  0.00  0.00    -0.209 NA
BRANCH  17  18
ATOM     18  C   UNL     1      -2.700  -1.139  25.030  0.00  0.00    +0.117 C 
BRANCH  18  19
ATOM     19  C   UNL     1      -3.187  -1.699  24.669  0.00  0.00    +0.014 A 
ATOM     20  C   UNL     1      -3.865  -1.458  24.267  0.00  0.00    +0.000 A 
ATOM     21  C   UNL     1      -4.353  -2.019  23.906  0.00  0.00    +0.020 A 
ATOM     22  C   UNL     1      -4.161  -2.820  23.949  0.00  0.00    +0.099 A 
ATOM     23  N   UNL     1      -3.482  -3.061  24.352  0.00  0.00    -0.243 NA
ATOM     24  C   UNL     1      -2.995  -2.500  24.712  0.00  0.00    +0.096 A 
ENDBRANCH  18  19
ENDBRANCH  17  18
ENDBRANCH  16  17
TORSDOF 5
ENDMDL
MODEL 3
REMARK VINA RESULT:      -8.9      1.259      5.628
REMARK  Name = 
REMARK  5 active torsions:
REMARK  status: ('A' for Active; 'I' for Inactive)
REMARK    1  A    between atoms: C_3  and  C_4
REMARK    2  A    between atoms: C_4  and  N_5
REMARK    3  A    between atoms: C_16  and  N_17
REMARK    4  A    between atoms: N_17  and  C_18
REMARK    5  A    between atoms: C_18  and  C_19
REMARK                            x       y       z     vdW  Elec       q    Type
REMARK                         _______ _______ _______ _____ _____    ______ ____
ROOT
ATOM      1  O   UNL     1      -2.917   1.760  23.469  0.00  0.00    -0.219 OA
ATOM      2  C   UNL     1      -3.328   1.801  24.184  0.00  0.00    +0.199 C 
ATOM      3  C   UNL     1      -3.835   1.225  24.485  0.00  0.00    +0.169 C 
ATOM     14  O   UNL     1      -4.124   1.493  25.209  0.00  0.00    -0.350 OA
ATOM     15  C   UNL     1      -3.795   2.236  25.356  0.00  0.00    +0.162 C 
ATOM     16  C   UNL     1      -3.303   2.426  24.722  0.00  0.00    +0.135 C 
ENDROOT
BRANCH   3   4
ATOM      4  C   UNL     1      -4.021   0.506  24.125  0.00  0.00    +0.149 C 
BRANCH   4   5
ATOM      5  N   UNL     1      -3.835  -0.204  24.501  0.00  0.00    -0.186 NA
ATOM      6  C   UNL     1      -3.958  -0.922  24.112  0.00  0.00    +0.323 C 
ATOM      7  O   UNL     1      -4.267  -0.928  23.347  0.00  0.00    -0.251 OA
ATOM      8  N   UNL     1      -3.773  -1.632  24.488  0.00  0.00    -0.258 N 
ATOM      9  C   UNL     1      -3.896  -2.348  24.100  0.00  0.00    +0.127 C 
ATOM     10  C   UNL     1      -3.710  -3.060  24.476  0.00  0.00    +0.164 C 
ATOM     11  O   UNL     1      -3.401  -3.052  25.241  0.00  0.00    -0.350 OA
ATOM     12  C   UNL     1      -3.278  -2.335  25.630  0.00  0.00    +0.164 C 
ATOM     13  C   UNL     1      -3.464  -1.624  25.253  0.00  0.00    +0.127 C 
ENDBRANCH   4   5
ENDBRANCH   3   4
BRANCH  16  17
ATOM     17  N   UNL     1      -2.864   3.119  24.641  0.00  0.00    -0.209 NA
BRANCH  17  18
ATOM     18  C   UNL     1      -2.434   3.412  25.281  0.00  0.00    +0.117 C 
BRANCH  18  19
ATOM     19  C   UNL     1      -1.893   4.026  25.169  0.00  0.00    +0.014 A 
ATOM     20  C   UNL     1      -2.142   4.810  25.220  0.00  0.00    +0.000 A 
ATOM     21  C   UNL     1      -1.601   5.423  25.108  0.00  0.00    +0.020 A 
ATOM     22  C   UNL     1      -0.811   5.251  24.945  0.00  0.00    +0.099 A 
ATOM     23  N   UNL     1      -0.562   4.466  24.894  0.00  0.00    -0.243 NA
ATOM     24  C   UNL     1      -1.103   3.853  25.006  0.00  0.00    +0.096 A 
ENDBRANCH  18  19
ENDBRANCH  17  18
ENDBRANCH  16  17
TORSDOF 5
ENDMDL
MODEL 4
REMARK VINA RESULT:      -8.8      2.178      6.037
REMARK  Name = 
REMARK  5 active torsions:
REMARK  status: ('A' for Active; 'I' for Inactive)
REMARK    1  A    between atoms: C_3  and  C_4
REMARK    2  A    between atoms: C_4  and  N_5
REMARK    3  A    between atoms: C_16  and  N_17
REMARK    4  A    between atoms: N_17  and  C_18
REMARK    5  A    between atoms: C_18  and  C_19
REMARK                            x       y       z     vdW  Elec       q    Type
REMARK                         _______ _______ _______ _____ _____    ______ ____
ROOT
ATOM      1  O   UNL     1      -0.998   1.218  23.747  0.00  0.00    -0.219 OA
ATOM      2  C   UNL     1      -0.942   1.137  24.566  0.00  0.00    +0.199 C 
ATOM      3  C   UNL     1      -0.951   0.426  24.984  0.00  0.00    +0.169 C 
ATOM     14  O   UNL     1      -0.882   0.601  25.787  0.00  0.00    -0.350 OA
ATOM     15  C   UNL     1      -0.832   1.421  25.865  0.00  0.00    +0.162 C 
ATOM     16  C   UNL     1      -0.869   1.752  25.111  0.00  0.00    +0.135 C 
ENDROOT
BRANCH   3   4
ATOM      4  C   UNL     1      -1.016  -0.329  24.656  0.00  0.00    +0.149 C 
BRANCH   4   5
ATOM      5  N   UNL     1      -1.747  -0.711  24.642  0.00  0.00    -0.186 NA
ATOM      6  C   UNL     1      -1.785  -1.525  24.513  0.00  0.00    +0.323 C 
ATOM      7  O   UNL     1      -1.092  -1.957  24.398  0.00  0.00    -0.251 OA
ATOM      8  N   UNL     1      -2.516  -1.907  24.499  0.00  0.00    -0.258 N 
ATOM      9  C   UNL     1      -2.554  -2.720  24.370  0.00  0.00    +0.127 C 
ATOM     10  C   UNL     1      -3.285  -3.103  24.355  0.00  0.00    +0.164 C 
ATOM     11  O   UNL     1      -3.979  -2.670  24.470  0.00  0.00    -0.350 OA
ATOM     12  C   UNL     1      -3.941  -1.856  24.599  0.00  0.00    +0.164 C 
ATOM     13  C   UNL     1      -3.209  -1.474  24.613  0.00  0.00    +0.127 C 
ENDBRANCH   4   5
ENDBRANCH   3   4
BRANCH  16  17
ATOM     17  N   UNL     1      -0.838   2.556  24.932  0.00  0.00    -0.209 NA
BRANCH  17  18
ATOM     18  C   UNL     1      -0.955   3.116  25.527  0.00  0.00    +0.117 C 
BRANCH  18  19
ATOM     19  C   UNL     1      -1.105   3.903  25.330  0.00  0.00    +0.014 A 
ATOM     20  C   UNL     1      -1.836   4.241  25.508  0.00  0.00    +0.000 A 
ATOM     21  C   UNL     1      -1.986   5.028  25.310  0.00  0.00    +0.020 A 
ATOM     22  C   UNL     1      -1.404   5.477  24.935  0.00  0.00    +0.099 A 
ATOM     23  N   UNL     1      -0.673   5.139  24.757  0.00  0.00    -0.243 NA
ATOM     24  C   UNL     1      -0.523   4.352  24.955  0.00  0.00    +0.096 A 
ENDBRANCH  18  19
ENDBRANCH  17  18
ENDBRANCH  16  17
TORSDOF 5
ENDMDL
MODEL 5
REMARK VINA RESULT:      -7.9      3.280      4.606
REMARK  Name = 
REMARK  5 active torsions:
REMARK  status: ('A' for Active; 'I' for Inactive)
REMARK    1  A    between atoms: C_3  and  C_4
REMARK    2  A    between atoms: C_4  and  N_5
REMARK    3  A    between atoms: C_16  and  N_17
REMARK    4  A    between atoms: N_17  and  C_18
REMARK    5  A    between atoms: C_18  and  C_19
REMARK                            x       y       z     vdW  Elec       q    Type
REMARK                         _______ _______ _______ _____ _____    ______ ____
ROOT
ATOM      1  O   UNL     1      -1.531   2.102  25.572  0.00  0.00    -0.219 OA
ATOM      2  C   UNL     1      -1.730   1.870  24.806  0.00  0.00    +0.199 C 
ATOM      3  C   UNL     1      -1.202   1.636  24.218  0.00  0.00    +0.169 C 
ATOM     14  O   UNL     1      -1.637   1.453  23.542  0.00  0.00    -0.350 OA
ATOM     15  C   UNL     1      -2.435   1.574  23.712  0.00  0.00    +0.162 C 
ATOM     16  C   UNL     1      -2.493   1.832  24.493  0.00  0.00    +0.135 C 
ENDROOT
BRANCH   3   4
ATOM      4  C   UNL     1      -0.381   1.592  24.292  0.00  0.00    +0.149 C 
BRANCH   4   5
ATOM      5  N   UNL     1       0.053   1.098  23.795  0.00  0.00    -0.186 NA
ATOM      6  C   UNL     1       0.873   1.180  23.744  0.00  0.00    +0.323 C 
ATOM      7  O   UNL     1       1.258   1.756  24.191  0.00  0.00    -0.251 OA
ATOM      8  N   UNL     1       1.306   0.685  23.246  0.00  0.00    -0.258 N 
ATOM      9  C   UNL     1       2.125   0.767  23.195  0.00  0.00    +0.127 C 
ATOM     10  C   UNL     1       2.560   0.272  22.697  0.00  0.00    +0.164 C 
ATOM     11  O   UNL     1       2.174  -0.304  22.251  0.00  0.00    -0.350 OA
ATOM     12  C   UNL     1       1.354  -0.386  22.302  0.00  0.00    +0.164 C 
ATOM     13  C   UNL     1       0.921   0.108  22.799  0.00  0.00    +0.127 C 
ENDBRANCH   4   5
ENDBRANCH   3   4
BRANCH  16  17
ATOM     17  N   UNL     1      -3.190   2.019  24.892  0.00  0.00    -0.209 NA
BRANCH  17  18
ATOM     18  C   UNL     1      -3.905   2.050  24.481  0.00  0.00    +0.117 C 
BRANCH  18  19
ATOM     19  C   UNL     1      -4.603   2.235  24.880  0.00  0.00    +0.014 A 
ATOM     20  C   UNL     1      -5.154   1.643  25.044  0.00  0.00    +0.000 A 
ATOM     21  C   UNL     1      -5.852   1.829  25.444  0.00  0.00    +0.020 A 
ATOM     22  C   UNL     1      -5.998   2.606  25.678  0.00  0.00    +0.099 A 
ATOM     23  N   UNL     1      -5.447   3.198  25.514  0.00  0.00    -0.243 NA
ATOM     24  C   UNL     1      -4.749   3.012  25.115  0.00  0.00    +0.096 A 
ENDBRANCH  18  19
ENDBRANCH  17  18
ENDBRANCH  16  17
TORSDOF 5
ENDMDL
MODEL 6
REMARK VINA RESULT:      -7.6      3.209      4.355
REMARK  Name = 
REMARK  5 active torsions:
REMARK  status: ('A' for Active; 'I' for Inactive)
REMARK    1  A    between atoms: C_3  and  C_4
REMARK    2  A    between atoms: C_4  and  N_5
REMARK    3  A    between atoms: C_16  and  N_17
REMARK    4  A    between atoms: N_17  and  C_18
REMARK    5  A    between atoms: C_18  and  C_19
REMARK                            x       y       z     vdW  Elec       q    Type
REMARK                         _______ _______ _______ _____ _____    ______ ____
ROOT
ATOM      1  O   UNL     1      -0.912   2.808  23.858  0.00  0.00    -0.219 OA
ATOM      2  C   UNL     1      -1.080   2.136  24.305  0.00  0.00    +0.199 C 
ATOM      3  C   UNL     1      -1.705   2.051  24.837  0.00  0.00    +0.169 C 
ATOM     14  O   UNL     1      -1.664   1.293  25.159  0.00  0.00    -0.350 OA
ATOM     15  C   UNL     1      -1.013   0.910  24.828  0.00  0.00    +0.162 C 
ATOM     16  C   UNL     1      -0.652   1.430  24.300  0.00  0.00    +0.135 C 
ENDROOT
BRANCH   3   4
ATOM      4  C   UNL     1      -2.272   2.624  25.014  0.00  0.00    +0.149 C 
BRANCH   4   5
ATOM      5  N   UNL     1      -3.073   2.424  25.019  0.00  0.00    -0.186 NA
ATOM      6  C   UNL     1      -3.630   2.960  25.307  0.00  0.00    +0.323 C 
ATOM      7  O   UNL     1      -3.386   3.695  25.590  0.00  0.00    -0.251 OA
ATOM      8  N   UNL     1      -4.430   2.760  25.311  0.00  0.00    -0.258 N 
ATOM      9  C   UNL     1      -4.987   3.296  25.599  0.00  0.00    +0.127 C 
ATOM     10  C   UNL     1      -5.788   3.097  25.604  0.00  0.00    +0.164 C 
ATOM     11  O   UNL     1      -6.031   2.361  25.321  0.00  0.00    -0.350 OA
ATOM     12  C   UNL     1      -5.474   1.825  25.033  0.00  0.00    +0.164 C 
ATOM     13  C   UNL     1      -4.673   2.024  25.028  0.00  0.00    +0.127 C 
ENDBRANCH   4   5
ENDBRANCH   3   4
BRANCH  16  17
ATOM     17  N   UNL     1       0.019   1.274  23.846  0.00  0.00    -0.209 NA
BRANCH  17  18
ATOM     18  C   UNL     1       0.315   0.505  23.800  0.00  0.00    +0.117 C 
BRANCH  18  19
ATOM     19  C   UNL     1       0.954   0.338  23.306  0.00  0.00    +0.014 A 
ATOM     20  C   UNL     1       0.863  -0.188  22.677  0.00  0.00    +0.000 A 
ATOM     21  C   UNL     1       1.502  -0.355  22.182  0.00  0.00    +0.020 A 
ATOM     22  C   UNL     1       2.232   0.005  22.317  0.00  0.00    +0.099 A 
ATOM     23  N   UNL     1       2.323   0.531  22.946  0.00  0.00    -0.243 NA
ATOM     24  C   UNL     1       1.684   0.698  23.441  0.00  0.00    +0.096 A 
ENDBRANCH  18  19
ENDBRANCH  17  18
ENDBRANCH  16  17
TORSDOF 5
ENDMDL
MODEL 7
REMARK VINA RESULT:      -7.1      1.720      2.480
REMARK  Name = 
REMARK  5 active torsions:
REMARK  status: ('A' for Active; 'I' for Inactive)
REMARK    1  A    between atoms: C_3  and  C_4
REMARK    2  A    between atoms: C_4  and  N_5
REMARK    3  A    between atoms: C_16  and  N_17
REMARK    4  A    between atoms: N_17  and  C_18
REMARK    5  A    between atoms: C_18  and  C_19
REMARK                            x       y       z     vdW  Elec       q    Type
REMARK                         _______ _______ _______ _____ _____    ______ ____
ROOT
ATOM      1  O   UNL     1      -2.972   0.812  23.698  0.00  0.00    -0.219 OA
ATOM      2  C   UNL     1      -2.483   0.904  24.356  0.00  0.00    +0.199 C 
ATOM      3  C   UNL     1      -2.358   1.605  24.773  0.00  0.00    +0.169 C 
ATOM     14  O   UNL     1      -1.832   1.445  25.387  0.00  0.00    -0.350 OA
ATOM     15  C   UNL     1      -1.631   0.646  25.350  0.00  0.00    +0.162 C 
ATOM     16  C   UNL     1      -2.033   0.311  24.714  0.00  0.00    +0.135 C 
ENDROOT
BRANCH   3   4
ATOM      4  C   UNL     1      -2.700   2.337  24.605  0.00  0.00    +0.149 C 
BRANCH   4   5
ATOM      5  N   UNL     1      -3.444   2.524  24.909  0.00  0.00    -0.186 NA
ATOM      6  C   UNL     1      -3.715   3.303  24.885  0.00  0.00    +0.323 C 
ATOM      7  O   UNL     1      -3.242   3.894  24.556  0.00  0.00    -0.251 OA
ATOM      8  N   UNL     1      -4.459   3.491  25.189  0.00  0.00    -0.258 N 
ATOM      9  C   UNL     1      -4.729   4.269  25.165  0.00  0.00    +0.127 C 
ATOM     10  C   UNL     1      -5.473   4.457  25.470  0.00  0.00    +0.164 C 
ATOM     11  O   UNL     1      -5.945   3.866  25.798  0.00  0.00    -0.350 OA
ATOM     12  C   UNL     1      -5.674   3.087  25.822  0.00  0.00    +0.164 C 
ATOM     13  C   UNL     1      -4.931   2.899  25.518  0.00  0.00    +0.127 C 
ENDBRANCH   4   5
ENDBRANCH   3   4
BRANCH  16  17
ATOM     17  N   UNL     1      -1.993  -0.477  24.475  0.00  0.00    -0.209 NA
BRANCH  17  18
ATOM     18  C   UNL     1      -2.053  -1.080  25.034  0.00  0.00    +0.117 C 
BRANCH  18  19
ATOM     19  C   UNL     1      -2.340  -1.822  24.813  0.00  0.00    +0.014 A 
ATOM     20  C   UNL     1      -3.102  -2.051  25.029  0.00  0.00    +0.000 A 
ATOM     21  C   UNL     1      -3.389  -2.792  24.808  0.00  0.00    +0.020 A 
ATOM     22  C   UNL     1      -2.913  -3.304  24.369  0.00  0.00    +0.099 A 
ATOM     23  N   UNL     1      -2.150  -3.075  24.153  0.00  0.00    -0.243 NA
ATOM     24  C   UNL     1      -1.863  -2.334  24.374  0.00  0.00    +0.096 A 
ENDBRANCH  18  19
ENDBRANCH  17  18
ENDBRANCH  16  17
TORSDOF 5
ENDMDL
MODEL 8
REMARK VINA RESULT:      -7.1     13.933     14.740
REMARK  Name = 
REMARK  5 active torsions:
REMARK  status: ('A' for Active; 'I' for Inactive)
REMARK    1  A    between atoms: C_3  and  C_4
REMARK    2  A    between atoms: C_4  and  N_5
REMARK    3  A    between atoms: C_16  and  N_17
REMARK    4  A    between atoms: N_17  and  C_18
REMARK    5  A    between atoms: C_18  and  C_19
REMARK                            x       y       z     vdW  Elec       q    Type
REMARK                         _______ _______ _______ _____ _____    ______ ____
ROOT
ATOM      1  O   UNL     1      -5.984 -10.077  18.017  0.00  0.00    -0.219 OA
ATOM      2  C   UNL     1      -6.037 -10.012  17.196  0.00  0.00    +0.199 C 
ATOM      3  C   UNL     1      -5.433 -10.168  16.657  0.00  0.00    +0.169 C 
ATOM     14  O   UNL     1      -5.726 -10.032  15.899  0.00  0.00    -0.350 OA
ATOM     15  C   UNL     1      -6.513  -9.793  15.969  0.00  0.00    +0.162 C 
ATOM     16  C   UNL     1      -6.705  -9.780  16.770  0.00  0.00    +0.135 C 
ENDROOT
BRANCH   3   4
ATOM      4  C   UNL     1      -4.668 -10.416  16.844  0.00  0.00    +0.149 C 
BRANCH   4   5
ATOM      5  N   UNL     1      -4.081 -10.417  16.265  0.00  0.00    -0.186 NA
ATOM      6  C   UNL     1      -3.302 -10.597  16.467  0.00  0.00    +0.323 C 
ATOM      7  O   UNL     1      -3.110 -10.776  17.249  0.00  0.00    -0.251 OA
ATOM      8  N   UNL     1      -2.715 -10.599  15.887  0.00  0.00    -0.258 N 
ATOM      9  C   UNL     1      -1.936 -10.779  16.089  0.00  0.00    +0.127 C 
ATOM     10  C   UNL     1      -1.349 -10.781  15.509  0.00  0.00    +0.164 C 
ATOM     11  O   UNL     1      -1.541 -10.601  14.727  0.00  0.00    -0.350 OA
ATOM     12  C   UNL     1      -2.321 -10.421  14.525  0.00  0.00    +0.164 C 
ATOM     13  C   UNL     1      -2.908 -10.420  15.105  0.00  0.00    +0.127 C 
ENDBRANCH   4   5
ENDBRANCH   3   4
BRANCH  16  17
ATOM     17  N   UNL     1      -7.436  -9.573  17.090  0.00  0.00    -0.209 NA
BRANCH  17  18
ATOM     18  C   UNL     1      -8.071  -9.404  16.592  0.00  0.00    +0.117 C 
BRANCH  18  19
ATOM     19  C   UNL     1      -8.800  -9.183  16.912  0.00  0.00    +0.014 A 
ATOM     20  C   UNL     1      -8.936  -8.397  17.123  0.00  0.00    +0.000 A 
ATOM     21  C   UNL     1      -9.664  -8.176  17.442  0.00  0.00    +0.020 A 
ATOM     22  C   UNL     1     -10.255  -8.742  17.551  0.00  0.00    +0.099 A 
ATOM     23  N   UNL     1     -10.119  -9.527  17.340  0.00  0.00    -0.243 NA
ATOM     24  C   UNL     1      -9.391  -9.748  17.020  0.00  0.00    +0.096 A 
ENDBRANCH  18  19
ENDBRANCH  17  18
ENDBRANCH  16  17
TORSDOF 5
ENDMDL
MODEL 9
REMARK VINA RESULT:      -6.8      2.467      5.014
REMARK  Name = 
REMARK  5 active torsions:
REMARK  status: ('A' for Active; 'I' for Inactive)
REMARK    1  A    between atoms: C_3  and  C_4
REMARK    2  A    between atoms: C_4  and  N_5
REMARK    3  A    between atoms: C_16  and  N_17
REMARK    4  A    between atoms: N_17  and  C_18
REMARK    5  A    between atoms: C_18  and  C_19
REMARK                            x       y       z     vdW  Elec       q    Type
REMARK                         _______ _______ _______ _____ _____    ______ ____
ROOT
ATOM      1  O   UNL     1      -2.039   1.988  25.224  0.00  0.00    -0.219 OA
ATOM      2  C   UNL     1      -2.202   1.918  24.419  0.00  0.00    +0.199 C 
ATOM      3  C   UNL     1      -1.802   1.434  23.883  0.00  0.00    +0.169 C 
ATOM     14  O   UNL     1      -2.146   1.538  23.141  0.00  0.00    -0.350 OA
ATOM     15  C   UNL     1      -2.757   2.086  23.217  0.00  0.00    +0.162 C 
ATOM     16  C   UNL     1      -2.793   2.321  24.006  0.00  0.00    +0.135 C 
ENDROOT
BRANCH   3   4
ATOM      4  C   UNL     1      -1.170   0.934  24.060  0.00  0.00    +0.149 C 
BRANCH   4   5
ATOM      5  N   UNL     1      -1.308   0.140  24.233  0.00  0.00    -0.186 NA
ATOM      6  C   UNL     1      -0.686  -0.343  24.483  0.00  0.00    +0.323 C 
ATOM      7  O   UNL     1       0.073  -0.029  24.560  0.00  0.00    -0.251 OA
ATOM      8  N   UNL     1      -0.825  -1.137  24.655  0.00  0.00    -0.258 N 
ATOM      9  C   UNL     1      -0.204  -1.619  24.905  0.00  0.00    +0.127 C 
ATOM     10  C   UNL     1      -0.341  -2.414  25.077  0.00  0.00    +0.164 C 
ATOM     11  O   UNL     1      -1.101  -2.727  25.000  0.00  0.00    -0.350 OA
ATOM     12  C   UNL     1      -1.723  -2.245  24.750  0.00  0.00    +0.164 C 
ATOM     13  C   UNL     1      -1.584  -1.450  24.577  0.00  0.00    +0.127 C 
ENDBRANCH   4   5
ENDBRANCH   3   4
BRANCH  16  17
ATOM     17  N   UNL     1      -3.324   2.864  24.327  0.00  0.00    -0.209 NA
BRANCH  17  18
ATOM     18  C   UNL     1      -4.120   2.838  24.112  0.00  0.00    +0.117 C 
BRANCH  18  19
ATOM     19  C   UNL     1      -4.704   3.022  24.665  0.00  0.00    +0.014 A 
ATOM     20  C   UNL     1      -5.262   2.454  24.880  0.00  0.00    +0.000 A 
ATOM     21  C   UNL     1      -5.846   2.638  25.433  0.00  0.00    +0.020 A 
ATOM     22  C   UNL     1      -5.870   3.390  25.772  0.00  0.00    +0.099 A 
ATOM     23  N   UNL     1      -5.312   3.958  25.557  0.00  0.00    -0.243 NA
ATOM     24  C   UNL     1      -4.728   3.774  25.004  0.00  0.00    +0.096 A 
ENDBRANCH  18  19
ENDBRANCH  17  18
ENDBRANCH  16  17
TORSDOF 5
ENDMDL
MODEL 10
REMARK VINA RESULT:      -6.8      3.731      5.204
REMARK  Name = 
REMARK  5 active torsions:
REMARK  status: ('A' for Active; 'I' for Inactive)
REMARK    1  A    between atoms: C_3  and  C_4
REMARK    2  A    between atoms: C_4  and  N_5
REMARK    3  A    between atoms: C_16  and  N_17
REMARK    4  A    between atoms: N_17  and  C_18
REMARK    5  A    between atoms: C_18  and  C_19
REMARK                            x       y       z     vdW  Elec       q    Type
REMARK                         _______ _______ _______ _____ _____    ______ ____
ROOT
ATOM      1  O   UNL     1      -0.499  -0.690  23.962  0.00  0.00    -0.219 OA
ATOM      2  C   UNL     1      -0.466   0.128  24.066  0.00  0.00    +0.199 C 
ATOM      3  C   UNL     1      -1.065   0.602  24.378  0.00  0.00    +0.169 C 
ATOM     14  O   UNL     1      -0.797   1.382  24.381  0.00  0.00    -0.350 OA
ATOM     15  C   UNL     1      -0.033   1.391  24.070  0.00  0.00    +0.162 C 
ATOM     16  C   UNL     1       0.172   0.616  23.875  0.00  0.00    +0.135 C 
ENDROOT
BRANCH   3   4
ATOM      4  C   UNL     1      -1.802   0.341  24.642  0.00  0.00    +0.149 C 
BRANCH   4   5
ATOM      5  N   UNL     1      -2.462   0.831  24.574  0.00  0.00    -0.186 NA
ATOM      6  C   UNL     1      -3.189   0.589  24.880  0.00  0.00    +0.323 C 
ATOM      7  O   UNL     1      -3.256  -0.144  25.253  0.00  0.00    -0.251 OA
ATOM      8  N   UNL     1      -3.849   1.080  24.813  0.00  0.00    -0.258 N 
ATOM      9  C   UNL     1      -4.575   0.838  25.118  0.00  0.00    +0.127 C 
ATOM     10  C   UNL     1      -5.236   1.328  25.051  0.00  0.00    +0.164 C 
ATOM     11  O   UNL     1      -5.168   2.061  24.678  0.00  0.00    -0.350 OA
ATOM     12  C   UNL     1      -4.441   2.303  24.372  0.00  0.00    +0.164 C 
ATOM     13  C   UNL     1      -3.781   1.813  24.439  0.00  0.00    +0.127 C 
ENDBRANCH   4   5
ENDBRANCH   3   4
BRANCH  16  17
ATOM     17  N   UNL     1       0.888   0.372  23.548  0.00  0.00    -0.209 NA
BRANCH  17  18
ATOM     18  C   UNL     1       1.439   0.932  23.297  0.00  0.00    +0.117 C 
BRANCH  18  19
ATOM     19  C   UNL     1       2.150   0.688  22.956  0.00  0.00    +0.014 A 
ATOM     20  C   UNL     1       2.861   1.034  23.192  0.00  0.00    +0.000 A 
ATOM     21  C   UNL     1       3.572   0.789  22.851  0.00  0.00    +0.020 A 
ATOM     22  C   UNL     1       3.570   0.200  22.274  0.00  0.00    +0.099 A 
ATOM     23  N   UNL     1       2.860  -0.146  22.038  0.00  0.00    -0.243 NA
ATOM     24  C   UNL     1       2.149   0.098  22.380  0.00  0.00    +0.096 A 
ENDBRANCH  18  19
ENDBRANCH  17  18
ENDBRANCH  16  17
TORSDOF 5
ENDMDL
