MODEL 1
REMARK VINA RESULT:     -10.5      0.000      0.000
REMARK  Name = 
REMARK  8 active torsions:
REMARK  status: ('A' for Active; 'I' for Inactive)
REMARK    1  A    between atoms: C_2  and  C_4
REMARK    2  A    between atoms: C_4  and  C_5
REMARK    3  A    between atoms: C_10  and  C_11
REMARK    4  A    between atoms: C_11  and  C_12
REMARK    5  A    between atoms: C_12  and  N_13
REMARK    6  A    between atoms: N_16  and  C_19
REMARK    7  A    between atoms: C_25  and  C_27
REMARK    8  A    between atoms: C_27  and  C_28
REMARK                            x       y       z     vdW  Elec       q    Type
REMARK                         _______ _______ _______ _____ _____    ______ ____
ROOT
ATOM      5  C   UNL     1      -3.230  -1.195  24.546  0.00  0.00    +0.015 C 
ATOM      6  C   UNL     1      -4.038  -1.070  24.660  0.00  0.00    +0.022 C 
ATOM      7  C   UNL     1      -4.331  -0.303  24.727  0.00  0.00    +0.093 C 
ATOM      8  N   UNL     1      -3.817   0.341  24.681  0.00  0.00    -0.279 N 
ATOM      9  C   UNL     1      -3.010   0.216  24.568  0.00  0.00    +0.093 C 
ATOM     10  C   UNL     1      -2.717  -0.551  24.500  0.00  0.00    +0.022 C 
ATOM     25  C   UNL     1      -4.111   1.109  24.748  0.00  0.00    +0.230 C 
ATOM     26  O   UNL     1      -3.597   1.752  24.702  0.00  0.00    -0.275 OA
ENDROOT
BRANCH   5   4
ATOM      4  C   UNL     1      -2.937  -1.963  24.479  0.00  0.00    +0.114 C 
BRANCH   4   2
ATOM      1  O   UNL     1      -3.492  -2.933  25.371  0.00  0.00    -0.246 OA
ATOM      2  C   UNL     1      -3.433  -2.607  24.614  0.00  0.00    +0.365 C 
ATOM      3  O   UNL     1      -3.872  -2.928  23.992  0.00  0.00    -0.246 OA
ENDBRANCH   4   2
ENDBRANCH   5   4
BRANCH  10  11
ATOM     11  C   UNL     1      -1.908  -0.676  24.387  0.00  0.00    +0.019 C 
BRANCH  11  12
ATOM     12  C   UNL     1      -1.368  -0.083  24.581  0.00  0.00    +0.072 C 
BRANCH  12  13
ATOM     13  N   UNL     1      -0.651  -0.031  24.176  0.00  0.00    -0.270 NA
ATOM     14  C   UNL     1      -0.414   0.686  23.846  0.00  0.00    +0.094 C 
ATOM     15  C   UNL     1       0.303   0.738  23.442  0.00  0.00    +0.108 C 
ATOM     16  N   UNL     1       0.783   0.070  23.367  0.00  0.00    -0.305 N 
ATOM     17  C   UNL     1       0.546  -0.647  23.696  0.00  0.00    +0.108 C 
ATOM     18  C   UNL     1      -0.171  -0.699  24.101  0.00  0.00    +0.094 C 
BRANCH  16  19
ATOM     19  C   UNL     1       1.500   0.123  22.962  0.00  0.00    +0.048 A 
ATOM     20  C   UNL     1       2.137   0.524  23.299  0.00  0.00    +0.015 A 
ATOM     21  C   UNL     1       2.854   0.576  22.895  0.00  0.00    +0.001 A 
ATOM     22  C   UNL     1       2.934   0.226  22.152  0.00  0.00    +0.000 A 
ATOM     23  C   UNL     1       2.297  -0.176  21.814  0.00  0.00    +0.001 A 
ATOM     24  C   UNL     1       1.580  -0.227  22.219  0.00  0.00    +0.015 A 
ENDBRANCH  16  19
ENDBRANCH  12  13
ENDBRANCH  11  12
ENDBRANCH  10  11
BRANCH  25  27
ATOM     27  C   UNL     1      -4.918   1.233  24.862  0.00  0.00    +0.112 C 
BRANCH  27  28
ATOM     28  C   UNL     1      -5.188   1.960  25.146  0.00  0.00    -0.013 A 
ATOM     29  C   UNL     1      -5.644   1.990  25.833  0.00  0.00    -0.004 A 
ATOM     30  C   UNL     1      -5.914   2.717  26.116  0.00  0.00    -0.000 A 
ATOM     31  C   UNL     1      -5.728   3.413  25.713  0.00  0.00    -0.000 A 
ATOM     32  C   UNL     1      -5.272   3.381  25.026  0.00  0.00    -0.000 A 
ATOM     33  C   UNL     1      -5.002   2.655  24.743  0.00  0.00    -0.004 A 
ENDBRANCH  27  28
ENDBRANCH  25  27
TORSDOF 8
ENDMDL
MODEL 2
REMARK VINA RESULT:      -9.4      3.269      5.146
REMARK  Name = 
REMARK  8 active torsions:
REMARK  status: ('A' for Active; 'I' for Inactive)
REMARK    1  A    between atoms: C_2  and  C_4
REMARK    2  A    between atoms: C_4  and  C_5
REMARK    3  A    between atoms: C_10  and  C_11
REMARK    4  A    between atoms: C_11  and  C_12
REMARK    5  A    between atoms: C_12  and  N_13
REMARK    6  A    between atoms: N_16  and  C_19
REMARK    7  A    between atoms: C_25  and  C_27
REMARK    8  A    between atoms: C_27  and  C_28
REMARK                            x       y       z     vdW  Elec       q    Type
REMARK                         _______ _______ _______ _____ _____    ______ ____
ROOT
ATOM      5  C   UNL     1      -4.803   2.994  25.386  0.00  0.00    +0.015 C 
ATOM      6  C   UNL     1      -4.557   3.736  25.649  0.00  0.00    +0.022 C 
ATOM      7  C   UNL     1      -3.755   3.927  25.650  0.00  0.00    +0.093 C 
ATOM      8  N   UNL     1      -3.199   3.377  25.390  0.00  0.00    -0.279 N 
ATOM      9  C   UNL     1      -3.445   2.635  25.127  0.00  0.00    +0.093 C 
ATOM     10  C   UNL     1      -4.247   2.444  25.125  0.00  0.00    +0.022 C 
ATOM     25  C   UNL     1      -2.396   3.569  25.391  0.00  0.00    +0.230 C 
ATOM     26  O   UNL     1      -1.841   3.019  25.131  0.00  0.00    -0.275 OA
ENDROOT
BRANCH   5   4
ATOM      4  C   UNL     1      -5.606   2.802  25.384  0.00  0.00    +0.114 C 
BRANCH   4   2
ATOM      1  O   UNL     1      -6.430   3.874  25.848  0.00  0.00    -0.246 OA
ATOM      2  C   UNL     1      -6.107   3.121  25.956  0.00  0.00    +0.365 C 
ATOM      3  O   UNL     1      -6.287   2.690  26.636  0.00  0.00    -0.246 OA
ENDBRANCH   4   2
ENDBRANCH   5   4
BRANCH  10  11
ATOM     11  C   UNL     1      -4.493   1.701  24.863  0.00  0.00    +0.019 C 
BRANCH  11  12
ATOM     12  C   UNL     1      -4.082   1.320  24.257  0.00  0.00    +0.072 C 
BRANCH  12  13
ATOM     13  N   UNL     1      -3.993   0.500  24.272  0.00  0.00    -0.270 NA
ATOM     14  C   UNL     1      -4.594   0.024  24.575  0.00  0.00    +0.094 C 
ATOM     15  C   UNL     1      -4.504  -0.795  24.589  0.00  0.00    +0.108 C 
ATOM     16  N   UNL     1      -3.811  -1.140  24.301  0.00  0.00    -0.305 N 
ATOM     17  C   UNL     1      -3.210  -0.664  23.999  0.00  0.00    +0.108 C 
ATOM     18  C   UNL     1      -3.300   0.155  23.984  0.00  0.00    +0.094 C 
BRANCH  16  19
ATOM     19  C   UNL     1      -3.721  -1.960  24.316  0.00  0.00    +0.048 A 
ATOM     20  C   UNL     1      -3.214  -2.310  24.864  0.00  0.00    +0.015 A 
ATOM     21  C   UNL     1      -3.124  -3.130  24.879  0.00  0.00    +0.001 A 
ATOM     22  C   UNL     1      -3.543  -3.600  24.346  0.00  0.00    +0.000 A 
ATOM     23  C   UNL     1      -4.051  -3.250  23.797  0.00  0.00    +0.001 A 
ATOM     24  C   UNL     1      -4.140  -2.430  23.783  0.00  0.00    +0.015 A 
ENDBRANCH  16  19
ENDBRANCH  12  13
ENDBRANCH  11  12
ENDBRANCH  10  11
BRANCH  25  27
ATOM     27  C   UNL     1      -2.150   4.311  25.654  0.00  0.00    +0.112 C 
BRANCH  27  28
ATOM     28  C   UNL     1      -1.524   4.695  25.277  0.00  0.00    -0.013 A 
ATOM     29  C   UNL     1      -1.599   5.488  25.058  0.00  0.00    -0.004 A 
ATOM     30  C   UNL     1      -0.973   5.872  24.682  0.00  0.00    -0.000 A 
ATOM     31  C   UNL     1      -0.273   5.464  24.524  0.00  0.00    -0.000 A 
ATOM     32  C   UNL     1      -0.200   4.672  24.742  0.00  0.00    -0.000 A 
ATOM     33  C   UNL     1      -0.825   4.288  25.119  0.00  0.00    -0.004 A 
ENDBRANCH  27  28
ENDBRANCH  25  27
TORSDOF 8
ENDMDL
MODEL 3
REMARK VINA RESULT:      -9.1      0.834      1.276
REMARK  Name = 
REMARK  8 active torsions:
REMARK  status: ('A' for Active; 'I' for Inactive)
REMARK    1  A    between atoms: C_2  and  C_4
REMARK    2  A    between atoms: C_4  and  C_5
REMARK    3  A    between atoms: C_10  and  C_11
REMARK    4  A    between atoms: C_11  and  C_12
REMARK    5  A    between atoms: C_12  and  N_13
REMARK    6  A    between atoms: N_16  and  C_19
REMARK    7  A    between atoms: C_25  and  C_27
REMARK    8  A    between atoms: C_27  and  C_28
REMARK                            x       y       z     vdW  Elec       q    Type
REMARK                         _______ _______ _______ _____ _____    ______ ____
ROOT
ATOM      5  C   UNL     1      -2.078  -0.802  24.604  0.00  0.00    +0.015 C 
ATOM      6  C   UNL     1      -2.890  -0.825  24.748  0.00  0.00    +0.022 C 
ATOM      7  C   UNL     1      -3.339  -0.138  24.684  0.00  0.00    +0.093 C 
ATOM      8  N   UNL     1      -2.978   0.574  24.477  0.00  0.00    -0.279 N 
ATOM      9  C   UNL     1      -2.167   0.597  24.333  0.00  0.00    +0.093 C 
ATOM     10  C   UNL     1      -1.717  -0.090  24.397  0.00  0.00    +0.022 C 
ATOM     25  C   UNL     1      -3.429   1.263  24.413  0.00  0.00    +0.230 C 
ATOM     26  O   UNL     1      -3.067   1.974  24.205  0.00  0.00    -0.275 OA
ENDROOT
BRANCH   5   4
ATOM      4  C   UNL     1      -1.627  -1.491  24.668  0.00  0.00    +0.114 C 
BRANCH   4   2
ATOM      1  O   UNL     1      -2.104  -2.677  24.030  0.00  0.00    -0.246 OA
ATOM      2  C   UNL     1      -2.000  -2.224  24.713  0.00  0.00    +0.365 C 
ATOM      3  O   UNL     1      -2.271  -2.507  25.440  0.00  0.00    -0.246 OA
ENDBRANCH   4   2
ENDBRANCH   5   4
BRANCH  10  11
ATOM     11  C   UNL     1      -0.904  -0.067  24.252  0.00  0.00    +0.019 C 
BRANCH  11  12
ATOM     12  C   UNL     1      -0.597   0.471  23.707  0.00  0.00    +0.072 C 
BRANCH  12  13
ATOM     13  N   UNL     1       0.211   0.471  23.539  0.00  0.00    -0.270 NA
ATOM     14  C   UNL     1       0.523  -0.076  23.007  0.00  0.00    +0.094 C 
ATOM     15  C   UNL     1       1.330  -0.075  22.840  0.00  0.00    +0.108 C 
ATOM     16  N   UNL     1       1.827   0.474  23.206  0.00  0.00    -0.305 N 
ATOM     17  C   UNL     1       1.515   1.021  23.738  0.00  0.00    +0.108 C 
ATOM     18  C   UNL     1       0.708   1.020  23.906  0.00  0.00    +0.094 C 
BRANCH  16  19
ATOM     19  C   UNL     1       2.635   0.475  23.038  0.00  0.00    +0.048 A 
ATOM     20  C   UNL     1       3.006   1.171  22.800  0.00  0.00    +0.015 A 
ATOM     21  C   UNL     1       3.814   1.172  22.632  0.00  0.00    +0.001 A 
ATOM     22  C   UNL     1       4.250   0.475  22.703  0.00  0.00    +0.000 A 
ATOM     23  C   UNL     1       3.878  -0.223  22.942  0.00  0.00    +0.001 A 
ATOM     24  C   UNL     1       3.071  -0.222  23.109  0.00  0.00    +0.015 A 
ENDBRANCH  16  19
ENDBRANCH  12  13
ENDBRANCH  11  12
ENDBRANCH  10  11
BRANCH  25  27
ATOM     27  C   UNL     1      -4.240   1.239  24.557  0.00  0.00    +0.112 C 
BRANCH  27  28
ATOM     28  C   UNL     1      -4.626   1.904  24.858  0.00  0.00    -0.013 A 
ATOM     29  C   UNL     1      -5.166   1.823  25.476  0.00  0.00    -0.004 A 
ATOM     30  C   UNL     1      -5.551   2.488  25.777  0.00  0.00    -0.000 A 
ATOM     31  C   UNL     1      -5.396   3.234  25.459  0.00  0.00    -0.000 A 
ATOM     32  C   UNL     1      -4.855   3.314  24.842  0.00  0.00    -0.000 A 
ATOM     33  C   UNL     1      -4.470   2.649  24.541  0.00  0.00    -0.004 A 
ENDBRANCH  27  28
ENDBRANCH  25  27
TORSDOF 8
ENDMDL
MODEL 4
REMARK VINA RESULT:      -9.1      1.930      3.663
REMARK  Name = 
REMARK  8 active torsions:
REMARK  status: ('A' for Active; 'I' for Inactive)
REMARK    1  A    between atoms: C_2  and  C_4
REMARK    2  A    between atoms: C_4  and  C_5
REMARK    3  A    between atoms: C_10  and  C_11
REMARK    4  A    between atoms: C_11  and  C_12
REMARK    5  A    between atoms: C_12  and  N_13
REMARK    6  A    between atoms: N_16  and  C_19
REMARK    7  A    between atoms: C_25  and  C_27
REMARK    8  A    between atoms: C_27  and  C_28
REMARK                            x       y       z     vdW  Elec       q    Type
REMARK                         _______ _______ _______ _____ _____    ______ ____
ROOT
ATOM      5  C   UNL     1      -1.420   1.646  24.658  0.00  0.00    +0.015 C 
ATOM      6  C   UNL     1      -2.186   1.492  24.924  0.00  0.00    +0.022 C 
ATOM      7  C   UNL     1      -2.486   0.725  24.894  0.00  0.00    +0.093 C 
ATOM      8  N   UNL     1      -2.021   0.111  24.598  0.00  0.00    -0.279 N 
ATOM      9  C   UNL     1      -1.256   0.265  24.332  0.00  0.00    +0.093 C 
ATOM     10  C   UNL     1      -0.956   1.032  24.362  0.00  0.00    +0.022 C 
ATOM     25  C   UNL     1      -2.322  -0.657  24.568  0.00  0.00    +0.230 C 
ATOM     26  O   UNL     1      -1.857  -1.270  24.272  0.00  0.00    -0.275 OA
ENDROOT
BRANCH   5   4
ATOM      4  C   UNL     1      -1.120   2.414  24.688  0.00  0.00    +0.114 C 
BRANCH   4   2
ATOM      1  O   UNL     1      -1.425   3.147  25.876  0.00  0.00    -0.246 OA
ATOM      2  C   UNL     1      -1.544   3.008  25.070  0.00  0.00    +0.365 C 
ATOM      3  O   UNL     1      -2.088   3.464  24.649  0.00  0.00    -0.246 OA
ENDBRANCH   4   2
ENDBRANCH   5   4
BRANCH  10  11
ATOM     11  C   UNL     1      -0.190   1.186  24.096  0.00  0.00    +0.019 C 
BRANCH  11  12
ATOM     12  C   UNL     1       0.104   0.792  23.433  0.00  0.00    +0.072 C 
BRANCH  12  13
ATOM     13  N   UNL     1       0.919   0.702  23.335  0.00  0.00    -0.270 NA
ATOM     14  C   UNL     1       1.438   1.244  23.676  0.00  0.00    +0.094 C 
ATOM     15  C   UNL     1       2.251   1.154  23.577  0.00  0.00    +0.108 C 
ATOM     16  N   UNL     1       2.546   0.522  23.136  0.00  0.00    -0.305 N 
ATOM     17  C   UNL     1       2.027  -0.020  22.794  0.00  0.00    +0.108 C 
ATOM     18  C   UNL     1       1.214   0.070  22.893  0.00  0.00    +0.094 C 
BRANCH  16  19
ATOM     19  C   UNL     1       3.361   0.433  23.037  0.00  0.00    +0.048 A 
ATOM     20  C   UNL     1       3.781   0.965  22.568  0.00  0.00    +0.015 A 
ATOM     21  C   UNL     1       4.595   0.875  22.469  0.00  0.00    +0.001 A 
ATOM     22  C   UNL     1       4.989   0.253  22.840  0.00  0.00    +0.000 A 
ATOM     23  C   UNL     1       4.569  -0.280  23.310  0.00  0.00    +0.001 A 
ATOM     24  C   UNL     1       3.755  -0.190  23.408  0.00  0.00    +0.015 A 
ENDBRANCH  16  19
ENDBRANCH  12  13
ENDBRANCH  11  12
ENDBRANCH  10  11
BRANCH  25  27
ATOM     27  C   UNL     1      -3.087  -0.811  24.834  0.00  0.00    +0.112 C 
BRANCH  27  28
ATOM     28  C   UNL     1      -3.477  -1.499  24.596  0.00  0.00    -0.013 A 
ATOM     29  C   UNL     1      -3.316  -2.215  24.973  0.00  0.00    -0.004 A 
ATOM     30  C   UNL     1      -3.705  -2.902  24.735  0.00  0.00    -0.000 A 
ATOM     31  C   UNL     1      -4.255  -2.874  24.120  0.00  0.00    -0.000 A 
ATOM     32  C   UNL     1      -4.414  -2.158  23.744  0.00  0.00    -0.000 A 
ATOM     33  C   UNL     1      -4.025  -1.470  23.982  0.00  0.00    -0.004 A 
ENDBRANCH  27  28
ENDBRANCH  25  27
TORSDOF 8
ENDMDL
MODEL 5
REMARK VINA RESULT:      -8.8      1.383      6.148
REMARK  Name = 
REMARK  8 active torsions:
REMARK  status: ('A' for Active; 'I' for Inactive)
REMARK    1  A    between atoms: C_2  and  C_4
REMARK    2  A    between atoms: C_4  and  C_5
REMARK    3  A    between atoms: C_10  and  C_11
REMARK    4  A    between atoms: C_11  and  C_12
REMARK    5  A    between atoms: C_12  and  N_13
REMARK    6  A    between atoms: N_16  and  C_19
REMARK    7  A    between atoms: C_25  and  C_27
REMARK    8  A    between atoms: C_27  and  C_28
REMARK                            x       y       z     vdW  Elec       q    Type
REMARK                         _______ _______ _______ _____ _____    ______ ____
ROOT
ATOM      5  C   UNL     1      -0.910  -0.894  24.413  0.00  0.00    +0.015 C 
ATOM      6  C   UNL     1      -0.282  -1.353  24.139  0.00  0.00    +0.022 C 
ATOM      7  C   UNL     1       0.355  -0.996  23.757  0.00  0.00    +0.093 C 
ATOM      8  N   UNL     1       0.365  -0.179  23.647  0.00  0.00    -0.279 N 
ATOM      9  C   UNL     1      -0.262   0.281  23.921  0.00  0.00    +0.093 C 
ATOM     10  C   UNL     1      -0.899  -0.076  24.303  0.00  0.00    +0.022 C 
ATOM     25  C   UNL     1       1.003   0.178  23.264  0.00  0.00    +0.230 C 
ATOM     26  O   UNL     1       1.013   0.995  23.155  0.00  0.00    -0.275 OA
ENDROOT
BRANCH   5   4
ATOM      4  C   UNL     1      -1.547  -1.251  24.796  0.00  0.00    +0.114 C 
BRANCH   4   2
ATOM      1  O   UNL     1      -2.120  -2.415  24.196  0.00  0.00    -0.246 OA
ATOM      2  C   UNL     1      -1.637  -2.070  24.770  0.00  0.00    +0.365 C 
ATOM      3  O   UNL     1      -1.244  -2.546  25.318  0.00  0.00    -0.246 OA
ENDBRANCH   4   2
ENDBRANCH   5   4
BRANCH  10  11
ATOM     11  C   UNL     1      -1.527   0.385  24.577  0.00  0.00    +0.019 C 
BRANCH  11  12
ATOM     12  C   UNL     1      -1.736   1.076  24.179  0.00  0.00    +0.072 C 
BRANCH  12  13
ATOM     13  N   UNL     1      -2.404   1.501  24.413  0.00  0.00    -0.270 NA
ATOM     14  C   UNL     1      -2.343   2.075  25.002  0.00  0.00    +0.094 C 
ATOM     15  C   UNL     1      -3.010   2.499  25.235  0.00  0.00    +0.108 C 
ATOM     16  N   UNL     1      -3.740   2.349  24.879  0.00  0.00    -0.305 N 
ATOM     17  C   UNL     1      -3.801   1.774  24.291  0.00  0.00    +0.108 C 
ATOM     18  C   UNL     1      -3.134   1.350  24.058  0.00  0.00    +0.094 C 
BRANCH  16  19
ATOM     19  C   UNL     1      -4.408   2.773  25.113  0.00  0.00    +0.048 A 
ATOM     20  C   UNL     1      -5.086   2.374  25.360  0.00  0.00    +0.015 A 
ATOM     21  C   UNL     1      -5.753   2.799  25.594  0.00  0.00    +0.001 A 
ATOM     22  C   UNL     1      -5.742   3.623  25.581  0.00  0.00    +0.000 A 
ATOM     23  C   UNL     1      -5.064   4.024  25.334  0.00  0.00    +0.001 A 
ATOM     24  C   UNL     1      -4.397   3.598  25.101  0.00  0.00    +0.015 A 
ENDBRANCH  16  19
ENDBRANCH  12  13
ENDBRANCH  11  12
ENDBRANCH  10  11
BRANCH  25  27
ATOM     27  C   UNL     1       1.630  -0.282  22.991  0.00  0.00    +0.112 C 
BRANCH  27  28
ATOM     28  C   UNL     1       2.331   0.079  22.746  0.00  0.00    -0.013 A 
ATOM     29  C   UNL     1       2.782   0.512  23.284  0.00  0.00    -0.004 A 
ATOM     30  C   UNL     1       3.482   0.873  23.039  0.00  0.00    -0.000 A 
ATOM     31  C   UNL     1       3.731   0.801  22.255  0.00  0.00    -0.000 A 
ATOM     32  C   UNL     1       3.279   0.368  21.718  0.00  0.00    -0.000 A 
ATOM     33  C   UNL     1       2.579   0.007  21.963  0.00  0.00    -0.004 A 
ENDBRANCH  27  28
ENDBRANCH  25  27
TORSDOF 8
ENDMDL
MODEL 6
REMARK VINA RESULT:      -8.7      2.177      3.631
REMARK  Name = 
REMARK  8 active torsions:
REMARK  status: ('A' for Active; 'I' for Inactive)
REMARK    1  A    between atoms: C_2  and  C_4
REMARK    2  A    between atoms: C_4  and  C_5
REMARK    3  A    between atoms: C_10  and  C_11
REMARK    4  A    between atoms: C_11  and  C_12
REMARK    5  A    between atoms: C_12  and  N_13
REMARK    6  A    between atoms: N_16  and  C_19
REMARK    7  A    between atoms: C_25  and  C_27
REMARK    8  A    between atoms: C_27  and  C_28
REMARK                            x       y       z     vdW  Elec       q    Type
REMARK                         _______ _______ _______ _____ _____    ______ ____
ROOT
ATOM      5  C   UNL     1      -1.687   3.898  25.206  0.00  0.00    +0.015 C 
ATOM      6  C   UNL     1      -2.412   4.277  25.311  0.00  0.00    +0.022 C 
ATOM      7  C   UNL     1      -3.112   3.844  25.280  0.00  0.00    +0.093 C 
ATOM      8  N   UNL     1      -3.090   3.031  25.144  0.00  0.00    -0.279 N 
ATOM      9  C   UNL     1      -2.365   2.652  25.038  0.00  0.00    +0.093 C 
ATOM     10  C   UNL     1      -1.664   3.085  25.069  0.00  0.00    +0.022 C 
ATOM     25  C   UNL     1      -3.791   2.598  25.112  0.00  0.00    +0.230 C 
ATOM     26  O   UNL     1      -3.767   1.785  24.976  0.00  0.00    -0.275 OA
ENDROOT
BRANCH   5   4
ATOM      4  C   UNL     1      -0.986   4.332  25.237  0.00  0.00    +0.114 C 
BRANCH   4   2
ATOM      1  O   UNL     1      -0.510   5.265  24.265  0.00  0.00    -0.246 OA
ATOM      2  C   UNL     1      -0.962   5.099  24.936  0.00  0.00    +0.365 C 
ATOM      3  O   UNL     1      -1.389   5.701  25.305  0.00  0.00    -0.246 OA
ENDBRANCH   4   2
ENDBRANCH   5   4
BRANCH  10  11
ATOM     11  C   UNL     1      -0.939   2.705  24.964  0.00  0.00    +0.019 C 
BRANCH  11  12
ATOM     12  C   UNL     1      -0.912   1.886  24.871  0.00  0.00    +0.072 C 
BRANCH  12  13
ATOM     13  N   UNL     1      -0.310   1.542  24.423  0.00  0.00    -0.270 NA
ATOM     14  C   UNL     1       0.440   1.882  24.409  0.00  0.00    +0.094 C 
ATOM     15  C   UNL     1       1.041   1.538  23.962  0.00  0.00    +0.108 C 
ATOM     16  N   UNL     1       0.891   0.852  23.527  0.00  0.00    -0.305 N 
ATOM     17  C   UNL     1       0.140   0.512  23.540  0.00  0.00    +0.108 C 
ATOM     18  C   UNL     1      -0.461   0.856  23.988  0.00  0.00    +0.094 C 
BRANCH  16  19
ATOM     19  C   UNL     1       1.492   0.508  23.079  0.00  0.00    +0.048 A 
ATOM     20  C   UNL     1       1.309  -0.050  22.500  0.00  0.00    +0.015 A 
ATOM     21  C   UNL     1       1.911  -0.394  22.053  0.00  0.00    +0.001 A 
ATOM     22  C   UNL     1       2.697  -0.179  22.184  0.00  0.00    +0.000 A 
ATOM     23  C   UNL     1       2.880   0.380  22.763  0.00  0.00    +0.001 A 
ATOM     24  C   UNL     1       2.278   0.723  23.210  0.00  0.00    +0.015 A 
ENDBRANCH  16  19
ENDBRANCH  12  13
ENDBRANCH  11  12
ENDBRANCH  10  11
BRANCH  25  27
ATOM     27  C   UNL     1      -4.515   2.978  25.218  0.00  0.00    +0.112 C 
BRANCH  27  28
ATOM     28  C   UNL     1      -5.201   2.533  25.338  0.00  0.00    -0.013 A 
ATOM     29  C   UNL     1      -5.547   2.130  24.707  0.00  0.00    -0.004 A 
ATOM     30  C   UNL     1      -6.231   1.686  24.827  0.00  0.00    -0.000 A 
ATOM     31  C   UNL     1      -6.570   1.645  25.579  0.00  0.00    -0.000 A 
ATOM     32  C   UNL     1      -6.224   2.049  26.210  0.00  0.00    -0.000 A 
ATOM     33  C   UNL     1      -5.539   2.493  26.089  0.00  0.00    -0.004 A 
ENDBRANCH  27  28
ENDBRANCH  25  27
TORSDOF 8
ENDMDL
MODEL 7
REMARK VINA RESULT:      -8.5      2.754      5.122
REMARK  Name = 
REMARK  8 active torsions:
REMARK  status: ('A' for Active; 'I' for Inactive)
REMARK    1  A    between atoms: C_2  and  C_4
REMARK    2  A    between atoms: C_4  and  C_5
REMARK    3  A    between atoms: C_10  and  C_11
REMARK    4  A    between atoms: C_11  and  C_12
REMARK    5  A    between atoms: C_12  and  N_13
REMARK    6  A    between atoms: N_16  and  C_19
REMARK    7  A    between atoms: C_25  and  C_27
REMARK    8  A    between atoms: C_27  and  C_28
REMARK                            x       y       z     vdW  Elec       q    Type
REMARK                         _______ _______ _______ _____ _____    ______ ____
ROOT
ATOM      5  C   UNL     1       0.558  -0.082  23.545  0.00  0.00    +0.015 C 
ATOM      6  C   UNL     1       0.436  -0.896  23.503  0.00  0.00    +0.022 C 
ATOM      7  C   UNL     1      -0.212  -1.236  23.881  0.00  0.00    +0.093 C 
ATOM      8  N   UNL     1      -0.740  -0.763  24.302  0.00  0.00    -0.279 N 
ATOM      9  C   UNL     1      -0.618   0.052  24.344  0.00  0.00    +0.093 C 
ATOM     10  C   UNL     1       0.030   0.392  23.966  0.00  0.00    +0.022 C 
ATOM     25  C   UNL     1      -1.389  -1.103  24.680  0.00  0.00    +0.230 C 
ATOM     26  O   UNL     1      -1.916  -0.629  25.101  0.00  0.00    -0.275 OA
ENDROOT
BRANCH   5   4
ATOM      4  C   UNL     1       1.207   0.259  23.166  0.00  0.00    +0.114 C 
BRANCH   4   2
ATOM      1  O   UNL     1       2.364  -0.519  22.854  0.00  0.00    -0.246 OA
ATOM      2  C   UNL     1       1.646  -0.181  22.625  0.00  0.00    +0.365 C 
ATOM      3  O   UNL     1       1.369  -0.285  21.855  0.00  0.00    -0.246 OA
ENDBRANCH   4   2
ENDBRANCH   5   4
BRANCH  10  11
ATOM     11  C   UNL     1       0.152   1.208  24.008  0.00  0.00    +0.019 C 
BRANCH  11  12
ATOM     12  C   UNL     1       0.159   1.586  24.741  0.00  0.00    +0.072 C 
BRANCH  12  13
ATOM     13  N   UNL     1      -0.220   2.313  24.834  0.00  0.00    -0.270 NA
ATOM     14  C   UNL     1      -0.373   2.786  24.176  0.00  0.00    +0.094 C 
ATOM     15  C   UNL     1      -0.752   3.512  24.269  0.00  0.00    +0.108 C 
ATOM     16  N   UNL     1      -0.980   3.765  25.021  0.00  0.00    -0.305 N 
ATOM     17  C   UNL     1      -0.827   3.293  25.679  0.00  0.00    +0.108 C 
ATOM     18  C   UNL     1      -0.448   2.567  25.586  0.00  0.00    +0.094 C 
BRANCH  16  19
ATOM     19  C   UNL     1      -1.360   4.492  25.113  0.00  0.00    +0.048 A 
ATOM     20  C   UNL     1      -0.986   5.187  24.874  0.00  0.00    +0.015 A 
ATOM     21  C   UNL     1      -1.366   5.914  24.966  0.00  0.00    +0.001 A 
ATOM     22  C   UNL     1      -2.120   5.945  25.299  0.00  0.00    +0.000 A 
ATOM     23  C   UNL     1      -2.495   5.249  25.539  0.00  0.00    +0.001 A 
ATOM     24  C   UNL     1      -2.114   4.523  25.446  0.00  0.00    +0.015 A 
ENDBRANCH  16  19
ENDBRANCH  12  13
ENDBRANCH  11  12
ENDBRANCH  10  11
BRANCH  25  27
ATOM     27  C   UNL     1      -1.511  -1.918  24.638  0.00  0.00    +0.112 C 
BRANCH  27  28
ATOM     28  C   UNL     1      -2.275  -2.225  24.698  0.00  0.00    -0.013 A 
ATOM     29  C   UNL     1      -2.651  -2.529  24.029  0.00  0.00    -0.004 A 
ATOM     30  C   UNL     1      -3.414  -2.835  24.088  0.00  0.00    -0.000 A 
ATOM     31  C   UNL     1      -3.802  -2.839  24.817  0.00  0.00    -0.000 A 
ATOM     32  C   UNL     1      -3.425  -2.535  25.485  0.00  0.00    -0.000 A 
ATOM     33  C   UNL     1      -2.662  -2.228  25.426  0.00  0.00    -0.004 A 
ENDBRANCH  27  28
ENDBRANCH  25  27
TORSDOF 8
ENDMDL
MODEL 8
REMARK VINA RESULT:      -7.0     15.036     16.734
REMARK  Name = 
REMARK  8 active torsions:
REMARK  status: ('A' for Active; 'I' for Inactive)
REMARK    1  A    between atoms: C_2  and  C_4
REMARK    2  A    between atoms: C_4  and  C_5
REMARK    3  A    between atoms: C_10  and  C_11
REMARK    4  A    between atoms: C_11  and  C_12
REMARK    5  A    between atoms: C_12  and  N_13
REMARK    6  A    between atoms: N_16  and  C_19
REMARK    7  A    between atoms: C_25  and  C_27
REMARK    8  A    between atoms: C_27  and  C_28
REMARK                            x       y       z     vdW  Elec       q    Type
REMARK                         _______ _______ _______ _____ _____    ______ ____
ROOT
ATOM      5  C   UNL     1      -4.711  -9.378  10.746  0.00  0.00    +0.015 C 
ATOM      6  C   UNL     1      -4.895  -9.176   9.967  0.00  0.00    +0.022 C 
ATOM      7  C   UNL     1      -5.676  -9.019   9.755  0.00  0.00    +0.093 C 
ATOM      8  N   UNL     1      -6.274  -9.063  10.321  0.00  0.00    -0.279 N 
ATOM      9  C   UNL     1      -6.091  -9.264  11.100  0.00  0.00    +0.093 C 
ATOM     10  C   UNL     1      -5.310  -9.422  11.312  0.00  0.00    +0.022 C 
ATOM     25  C   UNL     1      -7.056  -8.905  10.109  0.00  0.00    +0.230 C 
ATOM     26  O   UNL     1      -7.654  -8.949  10.675  0.00  0.00    -0.275 OA
ENDROOT
BRANCH   5   4
ATOM      4  C   UNL     1      -3.930  -9.535  10.958  0.00  0.00    +0.114 C 
BRANCH   4   2
ATOM      1  O   UNL     1      -3.223 -10.324   9.999  0.00  0.00    -0.246 OA
ATOM      2  C   UNL     1      -3.350  -9.600  10.376  0.00  0.00    +0.365 C 
ATOM      3  O   UNL     1      -2.896  -8.943  10.169  0.00  0.00    -0.246 OA
ENDBRANCH   4   2
ENDBRANCH   5   4
BRANCH  10  11
ATOM     11  C   UNL     1      -5.126  -9.623  12.091  0.00  0.00    +0.019 C 
BRANCH  11  12
ATOM     12  C   UNL     1      -5.688 -10.000  12.563  0.00  0.00    +0.072 C 
BRANCH  12  13
ATOM     13  N   UNL     1      -5.545 -10.106  13.369  0.00  0.00    -0.270 NA
ATOM     14  C   UNL     1      -4.966 -10.638  13.618  0.00  0.00    +0.094 C 
ATOM     15  C   UNL     1      -4.823 -10.745  14.423  0.00  0.00    +0.108 C 
ATOM     16  N   UNL     1      -5.260 -10.318  14.980  0.00  0.00    -0.305 N 
ATOM     17  C   UNL     1      -5.838  -9.786  14.730  0.00  0.00    +0.108 C 
ATOM     18  C   UNL     1      -5.981  -9.680  13.926  0.00  0.00    +0.094 C 
BRANCH  16  19
ATOM     19  C   UNL     1      -5.116 -10.425  15.785  0.00  0.00    +0.048 A 
ATOM     20  C   UNL     1      -4.344 -10.410  16.073  0.00  0.00    +0.015 A 
ATOM     21  C   UNL     1      -4.200 -10.517  16.878  0.00  0.00    +0.001 A 
ATOM     22  C   UNL     1      -4.830 -10.638  17.396  0.00  0.00    +0.000 A 
ATOM     23  C   UNL     1      -5.604 -10.653  17.109  0.00  0.00    +0.001 A 
ATOM     24  C   UNL     1      -5.746 -10.546  16.304  0.00  0.00    +0.015 A 
ENDBRANCH  16  19
ENDBRANCH  12  13
ENDBRANCH  11  12
ENDBRANCH  10  11
BRANCH  25  27
ATOM     27  C   UNL     1      -7.239  -8.704   9.331  0.00  0.00    +0.112 C 
BRANCH  27  28
ATOM     28  C   UNL     1      -8.023  -8.556   9.116  0.00  0.00    -0.013 A 
ATOM     29  C   UNL     1      -8.306  -7.781   9.098  0.00  0.00    -0.004 A 
ATOM     30  C   UNL     1      -9.089  -7.633   8.884  0.00  0.00    -0.000 A 
ATOM     31  C   UNL     1      -9.589  -8.261   8.687  0.00  0.00    -0.000 A 
ATOM     32  C   UNL     1      -9.304  -9.035   8.706  0.00  0.00    -0.000 A 
ATOM     33  C   UNL     1      -8.521  -9.182   8.921  0.00  0.00    -0.004 A 
ENDBRANCH  27  28
ENDBRANCH  25  27
TORSDOF 8
ENDMDL
MODEL 9
REMARK VINA RESULT:      -6.9     13.652     15.874
REMARK  Name = 
REMARK  8 active torsions:
REMARK  status: ('A' for Active; 'I' for Inactive)
REMARK    1  A    between atoms: C_2  and  C_4
REMARK    2  A    between atoms: C_4  and  C_5
REMARK    3  A    between atoms: C_10  and  C_11
REMARK    4  A    between atoms: C_11  and  C_12
REMARK    5  A    between atoms: C_12  and  N_13
REMARK    6  A    between atoms: N_16  and  C_19
REMARK    7  A    between atoms: C_25  and  C_27
REMARK    8  A    between atoms: C_27  and  C_28
REMARK                            x       y       z     vdW  Elec       q    Type
REMARK                         _______ _______ _______ _____ _____    ______ ____
ROOT
ATOM      5  C   UNL     1      -7.781  -9.794  13.168  0.00  0.00    +0.015 C 
ATOM      6  C   UNL     1      -7.836  -9.631  12.361  0.00  0.00    +0.022 C 
ATOM      7  C   UNL     1      -7.155  -9.599  11.899  0.00  0.00    +0.093 C 
ATOM      8  N   UNL     1      -6.417  -9.730  12.243  0.00  0.00    -0.279 N 
ATOM      9  C   UNL     1      -6.361  -9.892  13.049  0.00  0.00    +0.093 C 
ATOM     10  C   UNL     1      -7.043  -9.924  13.511  0.00  0.00    +0.022 C 
ATOM     25  C   UNL     1      -5.734  -9.698  11.780  0.00  0.00    +0.230 C 
ATOM     26  O   UNL     1      -4.997  -9.828  12.124  0.00  0.00    -0.275 OA
ENDROOT
BRANCH   5   4
ATOM      4  C   UNL     1      -8.463  -9.826  13.631  0.00  0.00    +0.114 C 
BRANCH   4   2
ATOM      1  O   UNL     1      -9.604 -10.485  13.078  0.00  0.00    -0.246 OA
ATOM      2  C   UNL     1      -9.205  -9.789  13.274  0.00  0.00    +0.365 C 
ATOM      3  O   UNL     1      -9.550  -9.057  13.112  0.00  0.00    -0.246 OA
ENDBRANCH   4   2
ENDBRANCH   5   4
BRANCH  10  11
ATOM     11  C   UNL     1      -6.987 -10.087  14.319  0.00  0.00    +0.019 C 
BRANCH  11  12
ATOM     12  C   UNL     1      -6.342  -9.810  14.752  0.00  0.00    +0.072 C 
BRANCH  12  13
ATOM     13  N   UNL     1      -6.292  -9.964  15.561  0.00  0.00    -0.270 NA
ATOM     14  C   UNL     1      -5.813 -10.576  15.836  0.00  0.00    +0.094 C 
ATOM     15  C   UNL     1      -5.763 -10.730  16.644  0.00  0.00    +0.108 C 
ATOM     16  N   UNL     1      -6.194 -10.271  17.179  0.00  0.00    -0.305 N 
ATOM     17  C   UNL     1      -6.673  -9.659  16.905  0.00  0.00    +0.108 C 
ATOM     18  C   UNL     1      -6.723  -9.505  16.096  0.00  0.00    +0.094 C 
BRANCH  16  19
ATOM     19  C   UNL     1      -6.144 -10.426  17.988  0.00  0.00    +0.048 A 
ATOM     20  C   UNL     1      -5.418 -10.618  18.328  0.00  0.00    +0.015 A 
ATOM     21  C   UNL     1      -5.368 -10.773  19.137  0.00  0.00    +0.001 A 
ATOM     22  C   UNL     1      -6.045 -10.734  19.606  0.00  0.00    +0.000 A 
ATOM     23  C   UNL     1      -6.773 -10.541  19.266  0.00  0.00    +0.001 A 
ATOM     24  C   UNL     1      -6.821 -10.387  18.458  0.00  0.00    +0.015 A 
ENDBRANCH  16  19
ENDBRANCH  12  13
ENDBRANCH  11  12
ENDBRANCH  10  11
BRANCH  25  27
ATOM     27  C   UNL     1      -5.790  -9.535  10.974  0.00  0.00    +0.112 C 
BRANCH  27  28
ATOM     28  C   UNL     1      -5.108  -9.379  10.536  0.00  0.00    -0.013 A 
ATOM     29  C   UNL     1      -4.736  -8.645  10.600  0.00  0.00    -0.004 A 
ATOM     30  C   UNL     1      -4.054  -8.488  10.162  0.00  0.00    -0.000 A 
ATOM     31  C   UNL     1      -3.744  -9.066   9.660  0.00  0.00    -0.000 A 
ATOM     32  C   UNL     1      -4.117  -9.799   9.597  0.00  0.00    -0.000 A 
ATOM     33  C   UNL     1      -4.799  -9.956  10.035  0.00  0.00    -0.004 A 
ENDBRANCH  27  28
ENDBRANCH  25  27
TORSDOF 8
ENDMDL
