MODEL 1
REMARK VINA RESULT:     -12.9      0.000      0.000
REMARK  Name = 
REMARK  6 active torsions:
REMARK  status: ('A' for Active; 'I' for Inactive)
REMARK    1  A    between atoms: O_2  and  C_3
REMARK    2  A    between atoms: C_8  and  C_9
REMARK    3  A    between atoms: C_9  and  N_10
REMARK    4  A    between atoms: C_15  and  C_16
REMARK    5  A    between atoms: C_18  and  C_19
REMARK    6  A    between atoms: C_19  and  C_20
REMARK                            x       y       z     vdW  Elec       q    Type
REMARK                         _______ _______ _______ _____ _____    ______ ____
ROOT
ATOM     10  N   UNL     1      -3.605   2.656  25.079  0.00  0.00    -0.260 NA
ATOM     11  C   UNL     1      -3.944   3.348  25.374  0.00  0.00    +0.106 C 
ATOM     12  C   UNL     1      -4.763   3.247  25.384  0.00  0.00    +0.170 C 
ATOM     13  O   UNL     1      -5.317   3.802  25.638  0.00  0.00    -0.222 OA
ATOM     14  C   UNL     1      -4.930   2.492  25.096  0.00  0.00    +0.060 C 
ATOM     15  C   UNL     1      -4.214   2.127  24.907  0.00  0.00    +0.140 C 
ENDROOT
BRANCH  15  16
ATOM     16  C   UNL     1      -4.123   1.366  24.600  0.00  0.00    +0.251 A 
ATOM     17  N   UNL     1      -4.284   0.661  24.997  0.00  0.00    -0.193 NA
ATOM     18  C   UNL     1      -4.116   0.036  24.485  0.00  0.00    +0.185 A 
ATOM     28  N   UNL     1      -3.851   0.355  23.771  0.00  0.00    -0.060 NA
ATOM     29  O   UNL     1      -3.855   1.177  23.843  0.00  0.00    -0.336 OA
BRANCH  18  19
ATOM     19  C   UNL     1      -4.198  -0.766  24.656  0.00  0.00    +0.096 C 
BRANCH  19  20
ATOM     20  C   UNL     1      -3.532  -1.253  24.685  0.00  0.00    -0.004 A 
ATOM     21  C   UNL     1      -2.848  -0.994  25.064  0.00  0.00    -0.001 A 
ATOM     22  C   UNL     1      -2.182  -1.480  25.093  0.00  0.00    +0.029 A 
ATOM     23  C   UNL     1      -2.201  -2.227  24.741  0.00  0.00    +0.141 A 
ATOM     24  F   UNL     1      -1.536  -2.713  24.770  0.00  0.00    -0.204 F 
ATOM     25  C   UNL     1      -2.887  -2.486  24.362  0.00  0.00    +0.041 A 
ATOM     26  C   UNL     1      -3.552  -1.999  24.333  0.00  0.00    +0.056 A 
ATOM     27 CL   UNL     1      -4.237  -2.258  23.953  0.00  0.00    -0.082 Cl
ENDBRANCH  19  20
ENDBRANCH  18  19
ENDBRANCH  15  16
BRANCH  10   9
ATOM      9  C   UNL     1      -2.798   2.518  24.974  0.00  0.00    +0.103 C 
BRANCH   9   8
ATOM      3  C   UNL     1      -1.524   2.973  25.436  0.00  0.00    +0.136 A 
ATOM      4  C   UNL     1      -0.983   3.584  25.551  0.00  0.00    +0.037 A 
ATOM      5  C   UNL     1      -1.173   4.353  25.320  0.00  0.00    +0.003 A 
ATOM      6  C   UNL     1      -1.906   4.510  24.974  0.00  0.00    -0.000 A 
ATOM      7  C   UNL     1      -2.447   3.898  24.859  0.00  0.00    +0.000 A 
ATOM      8  C   UNL     1      -2.257   3.130  25.089  0.00  0.00    +0.028 A 
BRANCH   3   2
ATOM      1  C   UNL     1      -0.555   2.012  25.860  0.00  0.00    +0.252 C 
ATOM      2  O   UNL     1      -1.334   2.204  25.666  0.00  0.00    -0.472 OA
ENDBRANCH   3   2
ENDBRANCH   9   8
ENDBRANCH  10   9
TORSDOF 6
ENDMDL
MODEL 2
REMARK VINA RESULT:     -12.3      1.506      2.530
REMARK  Name = 
REMARK  6 active torsions:
REMARK  status: ('A' for Active; 'I' for Inactive)
REMARK    1  A    between atoms: O_2  and  C_3
REMARK    2  A    between atoms: C_8  and  C_9
REMARK    3  A    between atoms: C_9  and  N_10
REMARK    4  A    between atoms: C_15  and  C_16
REMARK    5  A    between atoms: C_18  and  C_19
REMARK    6  A    between atoms: C_19  and  C_20
REMARK                            x       y       z     vdW  Elec       q    Type
REMARK                         _______ _______ _______ _____ _____    ______ ____
ROOT
ATOM     10  N   UNL     1      -1.172   2.214  24.724  0.00  0.00    -0.260 NA
ATOM     11  C   UNL     1      -0.361   2.352  24.660  0.00  0.00    +0.106 C 
ATOM     12  C   UNL     1      -0.017   1.690  24.307  0.00  0.00    +0.170 C 
ATOM     13  O   UNL     1       0.784   1.592  24.137  0.00  0.00    -0.222 OA
ATOM     14  C   UNL     1      -0.615   1.143  24.153  0.00  0.00    +0.060 C 
ATOM     15  C   UNL     1      -1.329   1.468  24.411  0.00  0.00    +0.140 C 
ENDROOT
BRANCH  15  16
ATOM     16  C   UNL     1      -2.071   1.108  24.364  0.00  0.00    +0.251 A 
ATOM     17  N   UNL     1      -2.398   0.598  24.924  0.00  0.00    -0.193 NA
ATOM     18  C   UNL     1      -3.144   0.370  24.655  0.00  0.00    +0.185 A 
ATOM     28  N   UNL     1      -3.278   0.739  23.929  0.00  0.00    -0.060 NA
ATOM     29  O   UNL     1      -2.614   1.195  23.750  0.00  0.00    -0.336 OA
BRANCH  18  19
ATOM     19  C   UNL     1      -3.665  -0.138  25.044  0.00  0.00    +0.096 C 
BRANCH  19  20
ATOM     20  C   UNL     1      -3.715  -0.931  24.817  0.00  0.00    -0.004 A 
ATOM     21  C   UNL     1      -3.927  -1.126  24.045  0.00  0.00    -0.001 A 
ATOM     22  C   UNL     1      -3.977  -1.918  23.819  0.00  0.00    +0.029 A 
ATOM     23  C   UNL     1      -3.816  -2.514  24.366  0.00  0.00    +0.141 A 
ATOM     24  F   UNL     1      -3.866  -3.306  24.141  0.00  0.00    -0.204 F 
ATOM     25  C   UNL     1      -3.604  -2.318  25.139  0.00  0.00    +0.041 A 
ATOM     26  C   UNL     1      -3.554  -1.526  25.365  0.00  0.00    +0.056 A 
ATOM     27 CL   UNL     1      -3.343  -1.330  26.138  0.00  0.00    -0.082 Cl
ENDBRANCH  19  20
ENDBRANCH  18  19
ENDBRANCH  15  16
BRANCH  10   9
ATOM      9  C   UNL     1      -1.728   2.733  25.045  0.00  0.00    +0.103 C 
BRANCH   9   8
ATOM      3  C   UNL     1      -2.071   4.048  25.487  0.00  0.00    +0.136 A 
ATOM      4  C   UNL     1      -1.915   4.857  25.509  0.00  0.00    +0.037 A 
ATOM      5  C   UNL     1      -1.260   5.163  25.110  0.00  0.00    +0.003 A 
ATOM      6  C   UNL     1      -0.761   4.658  24.689  0.00  0.00    -0.000 A 
ATOM      7  C   UNL     1      -0.917   3.848  24.668  0.00  0.00    +0.000 A 
ATOM      8  C   UNL     1      -1.571   3.543  25.066  0.00  0.00    +0.028 A 
BRANCH   3   2
ATOM      1  C   UNL     1      -3.239   4.250  26.285  0.00  0.00    +0.252 C 
ATOM      2  O   UNL     1      -2.725   3.742  25.886  0.00  0.00    -0.472 OA
ENDBRANCH   3   2
ENDBRANCH   9   8
ENDBRANCH  10   9
TORSDOF 6
ENDMDL
MODEL 3
REMARK VINA RESULT:     -12.3      2.389      4.928
REMARK  Name = 
REMARK  6 active torsions:
REMARK  status: ('A' for Active; 'I' for Inactive)
REMARK    1  A    between atoms: O_2  and  C_3
REMARK    2  A    between atoms: C_8  and  C_9
REMARK    3  A    between atoms: C_9  and  N_10
REMARK    4  A    between atoms: C_15  and  C_16
REMARK    5  A    between atoms: C_18  and  C_19
REMARK    6  A    between atoms: C_19  and  C_20
REMARK                            x       y       z     vdW  Elec       q    Type
REMARK                         _______ _______ _______ _____ _____    ______ ____
ROOT
ATOM     10  N   UNL     1      -3.875   0.422  24.686  0.00  0.00    -0.260 NA
ATOM     11  C   UNL     1      -4.645   0.235  24.918  0.00  0.00    +0.106 C 
ATOM     12  C   UNL     1      -5.057   0.942  25.026  0.00  0.00    +0.170 C 
ATOM     13  O   UNL     1      -5.845   1.013  25.259  0.00  0.00    -0.222 OA
ATOM     14  C   UNL     1      -4.542   1.565  24.861  0.00  0.00    +0.060 C 
ATOM     15  C   UNL     1      -3.812   1.243  24.651  0.00  0.00    +0.140 C 
ENDROOT
BRANCH  15  16
ATOM     16  C   UNL     1      -3.136   1.669  24.442  0.00  0.00    +0.251 A 
ATOM     17  N   UNL     1      -2.569   1.964  24.963  0.00  0.00    -0.193 NA
ATOM     18  C   UNL     1      -1.991   2.352  24.518  0.00  0.00    +0.185 A 
ATOM     28  N   UNL     1      -2.203   2.296  23.722  0.00  0.00    -0.060 NA
ATOM     29  O   UNL     1      -2.910   1.874  23.675  0.00  0.00    -0.336 OA
BRANCH  18  19
ATOM     19  C   UNL     1      -1.322   2.728  24.816  0.00  0.00    +0.096 C 
BRANCH  19  20
ATOM     20  C   UNL     1      -1.322   3.547  24.924  0.00  0.00    -0.004 A 
ATOM     21  C   UNL     1      -1.957   3.914  25.300  0.00  0.00    -0.001 A 
ATOM     22  C   UNL     1      -1.956   4.732  25.407  0.00  0.00    +0.029 A 
ATOM     23  C   UNL     1      -1.320   5.183  25.138  0.00  0.00    +0.141 A 
ATOM     24  F   UNL     1      -1.319   6.001  25.245  0.00  0.00    -0.204 F 
ATOM     25  C   UNL     1      -0.684   4.815  24.762  0.00  0.00    +0.041 A 
ATOM     26  C   UNL     1      -0.685   3.997  24.655  0.00  0.00    +0.056 A 
ATOM     27 CL   UNL     1      -0.049   3.630  24.278  0.00  0.00    -0.082 Cl
ENDBRANCH  19  20
ENDBRANCH  18  19
ENDBRANCH  15  16
BRANCH  10   9
ATOM      9  C   UNL     1      -3.275  -0.119  24.519  0.00  0.00    +0.103 C 
BRANCH   9   8
ATOM      3  C   UNL     1      -2.965  -1.499  24.729  0.00  0.00    +0.136 A 
ATOM      4  C   UNL     1      -3.147  -2.295  24.621  0.00  0.00    +0.037 A 
ATOM      5  C   UNL     1      -3.820  -2.512  24.196  0.00  0.00    +0.003 A 
ATOM      6  C   UNL     1      -4.312  -1.930  23.877  0.00  0.00    -0.000 A 
ATOM      7  C   UNL     1      -4.129  -1.132  23.986  0.00  0.00    +0.000 A 
ATOM      8  C   UNL     1      -3.457  -0.916  24.411  0.00  0.00    +0.028 A 
BRANCH   3   2
ATOM      1  C   UNL     1      -1.615  -1.751  25.121  0.00  0.00    +0.252 C 
ATOM      2  O   UNL     1      -2.292  -1.282  25.155  0.00  0.00    -0.472 OA
ENDBRANCH   3   2
ENDBRANCH   9   8
ENDBRANCH  10   9
TORSDOF 6
ENDMDL
MODEL 4
REMARK VINA RESULT:     -12.0      1.649      2.803
REMARK  Name = 
REMARK  6 active torsions:
REMARK  status: ('A' for Active; 'I' for Inactive)
REMARK    1  A    between atoms: O_2  and  C_3
REMARK    2  A    between atoms: C_8  and  C_9
REMARK    3  A    between atoms: C_9  and  N_10
REMARK    4  A    between atoms: C_15  and  C_16
REMARK    5  A    between atoms: C_18  and  C_19
REMARK    6  A    between atoms: C_19  and  C_20
REMARK                            x       y       z     vdW  Elec       q    Type
REMARK                         _______ _______ _______ _____ _____    ______ ____
ROOT
ATOM     10  N   UNL     1      -1.259   2.179  25.351  0.00  0.00    -0.260 NA
ATOM     11  C   UNL     1      -0.797   2.770  25.697  0.00  0.00    +0.106 C 
ATOM     12  C   UNL     1      -0.096   2.423  25.962  0.00  0.00    +0.170 C 
ATOM     13  O   UNL     1       0.524   2.813  26.341  0.00  0.00    -0.222 OA
ATOM     14  C   UNL     1      -0.125   1.619  25.780  0.00  0.00    +0.060 C 
ATOM     15  C   UNL     1      -0.844   1.468  25.403  0.00  0.00    +0.140 C 
ENDROOT
BRANCH  15  16
ATOM     16  C   UNL     1      -1.102   0.735  25.126  0.00  0.00    +0.251 A 
ATOM     17  N   UNL     1      -1.538   0.181  25.554  0.00  0.00    -0.193 NA
ATOM     18  C   UNL     1      -1.674  -0.469  25.065  0.00  0.00    +0.185 A 
ATOM     28  N   UNL     1      -1.322  -0.317  24.334  0.00  0.00    -0.060 NA
ATOM     29  O   UNL     1      -0.968   0.427  24.372  0.00  0.00    -0.336 OA
BRANCH  18  19
ATOM     19  C   UNL     1      -2.090  -1.151  25.270  0.00  0.00    +0.096 C 
BRANCH  19  20
ATOM     20  C   UNL     1      -2.798  -1.335  24.887  0.00  0.00    -0.004 A 
ATOM     21  C   UNL     1      -3.371  -0.752  24.777  0.00  0.00    -0.001 A 
ATOM     22  C   UNL     1      -4.078  -0.936  24.394  0.00  0.00    +0.029 A 
ATOM     23  C   UNL     1      -4.212  -1.703  24.121  0.00  0.00    +0.141 A 
ATOM     24  F   UNL     1      -4.919  -1.887  23.738  0.00  0.00    -0.204 F 
ATOM     25  C   UNL     1      -3.639  -2.286  24.231  0.00  0.00    +0.041 A 
ATOM     26  C   UNL     1      -2.931  -2.102  24.614  0.00  0.00    +0.056 A 
ATOM     27 CL   UNL     1      -2.358  -2.685  24.724  0.00  0.00    -0.082 Cl
ENDBRANCH  19  20
ENDBRANCH  18  19
ENDBRANCH  15  16
BRANCH  10   9
ATOM      9  C   UNL     1      -2.005   2.282  25.014  0.00  0.00    +0.103 C 
BRANCH   9   8
ATOM      3  C   UNL     1      -3.016   3.228  24.659  0.00  0.00    +0.136 A 
ATOM      4  C   UNL     1      -3.460   3.899  24.838  0.00  0.00    +0.037 A 
ATOM      5  C   UNL     1      -3.339   4.297  25.551  0.00  0.00    +0.003 A 
ATOM      6  C   UNL     1      -2.772   4.023  26.085  0.00  0.00    -0.000 A 
ATOM      7  C   UNL     1      -2.327   3.351  25.906  0.00  0.00    +0.000 A 
ATOM      8  C   UNL     1      -2.449   2.954  25.194  0.00  0.00    +0.028 A 
BRANCH   3   2
ATOM      1  C   UNL     1      -3.816   2.978  23.503  0.00  0.00    +0.252 C 
ATOM      2  O   UNL     1      -3.137   2.830  23.947  0.00  0.00    -0.472 OA
ENDBRANCH   3   2
ENDBRANCH   9   8
ENDBRANCH  10   9
TORSDOF 6
ENDMDL
MODEL 5
REMARK VINA RESULT:     -11.9      2.321      4.400
REMARK  Name = 
REMARK  6 active torsions:
REMARK  status: ('A' for Active; 'I' for Inactive)
REMARK    1  A    between atoms: O_2  and  C_3
REMARK    2  A    between atoms: C_8  and  C_9
REMARK    3  A    between atoms: C_9  and  N_10
REMARK    4  A    between atoms: C_15  and  C_16
REMARK    5  A    between atoms: C_18  and  C_19
REMARK    6  A    between atoms: C_19  and  C_20
REMARK                            x       y       z     vdW  Elec       q    Type
REMARK                         _______ _______ _______ _____ _____    ______ ____
ROOT
ATOM     10  N   UNL     1      -1.235   1.440  25.194  0.00  0.00    -0.260 NA
ATOM     11  C   UNL     1      -0.511   1.398  25.589  0.00  0.00    +0.106 C 
ATOM     12  C   UNL     1      -0.235   2.169  25.696  0.00  0.00    +0.170 C 
ATOM     13  O   UNL     1       0.470   2.384  26.066  0.00  0.00    -0.222 OA
ATOM     14  C   UNL     1      -0.788   2.686  25.368  0.00  0.00    +0.060 C 
ATOM     15  C   UNL     1      -1.406   2.235  25.058  0.00  0.00    +0.140 C 
ENDROOT
BRANCH  15  16
ATOM     16  C   UNL     1      -2.077   2.528  24.678  0.00  0.00    +0.251 A 
ATOM     17  N   UNL     1      -2.742   2.847  25.047  0.00  0.00    -0.193 NA
ATOM     18  C   UNL     1      -3.278   3.070  24.460  0.00  0.00    +0.185 A 
ATOM     28  N   UNL     1      -2.943   2.889  23.728  0.00  0.00    -0.060 NA
ATOM     29  O   UNL     1      -2.201   2.554  23.863  0.00  0.00    -0.336 OA
BRANCH  18  19
ATOM     19  C   UNL     1      -4.017   3.414  24.583  0.00  0.00    +0.096 C 
BRANCH  19  20
ATOM     20  C   UNL     1      -4.650   2.951  24.842  0.00  0.00    -0.004 A 
ATOM     21  C   UNL     1      -4.782   2.209  24.508  0.00  0.00    -0.001 A 
ATOM     22  C   UNL     1      -5.414   1.747  24.766  0.00  0.00    +0.029 A 
ATOM     23  C   UNL     1      -5.915   2.027  25.360  0.00  0.00    +0.141 A 
ATOM     24  F   UNL     1      -6.547   1.565  25.618  0.00  0.00    -0.204 F 
ATOM     25  C   UNL     1      -5.782   2.770  25.694  0.00  0.00    +0.041 A 
ATOM     26  C   UNL     1      -5.150   3.232  25.435  0.00  0.00    +0.056 A 
ATOM     27 CL   UNL     1      -5.017   3.974  25.770  0.00  0.00    -0.082 Cl
ENDBRANCH  19  20
ENDBRANCH  18  19
ENDBRANCH  15  16
BRANCH  10   9
ATOM      9  C   UNL     1      -1.705   0.798  24.975  0.00  0.00    +0.103 C 
BRANCH   9   8
ATOM      3  C   UNL     1      -1.843  -0.580  25.331  0.00  0.00    +0.136 A 
ATOM      4  C   UNL     1      -1.535  -1.344  25.359  0.00  0.00    +0.037 A 
ATOM      5  C   UNL     1      -0.781  -1.498  25.060  0.00  0.00    +0.003 A 
ATOM      6  C   UNL     1      -0.335  -0.885  24.732  0.00  0.00    -0.000 A 
ATOM      7  C   UNL     1      -0.643  -0.120  24.705  0.00  0.00    +0.000 A 
ATOM      8  C   UNL     1      -1.396   0.033  25.003  0.00  0.00    +0.028 A 
BRANCH   3   2
ATOM      1  C   UNL     1      -3.122  -1.049  25.760  0.00  0.00    +0.252 C 
ATOM      2  O   UNL     1      -2.597  -0.427  25.629  0.00  0.00    -0.472 OA
ENDBRANCH   3   2
ENDBRANCH   9   8
ENDBRANCH  10   9
TORSDOF 6
ENDMDL
MODEL 6
REMARK VINA RESULT:     -11.8      2.169      4.427
REMARK  Name = 
REMARK  6 active torsions:
REMARK  status: ('A' for Active; 'I' for Inactive)
REMARK    1  A    between atoms: O_2  and  C_3
REMARK    2  A    between atoms: C_8  and  C_9
REMARK    3  A    between atoms: C_9  and  N_10
REMARK    4  A    between atoms: C_15  and  C_16
REMARK    5  A    between atoms: C_18  and  C_19
REMARK    6  A    between atoms: C_19  and  C_20
REMARK                            x       y       z     vdW  Elec       q    Type
REMARK                         _______ _______ _______ _____ _____    ______ ____
ROOT
ATOM     10  N   UNL     1      -3.305  -0.676  24.561  0.00  0.00    -0.260 NA
ATOM     11  C   UNL     1      -3.277  -1.446  24.265  0.00  0.00    +0.106 C 
ATOM     12  C   UNL     1      -4.039  -1.657  24.028  0.00  0.00    +0.170 C 
ATOM     13  O   UNL     1      -4.261  -2.380  23.700  0.00  0.00    -0.222 OA
ATOM     14  C   UNL     1      -4.538  -1.017  24.177  0.00  0.00    +0.060 C 
ATOM     15  C   UNL     1      -4.084  -0.411  24.506  0.00  0.00    +0.140 C 
ENDROOT
BRANCH  15  16
ATOM     16  C   UNL     1      -4.362   0.331  24.739  0.00  0.00    +0.251 A 
ATOM     17  N   UNL     1      -4.299   1.030  24.307  0.00  0.00    -0.193 NA
ATOM     18  C   UNL     1      -4.650   1.634  24.746  0.00  0.00    +0.185 A 
ATOM     28  N   UNL     1      -4.929   1.308  25.451  0.00  0.00    -0.060 NA
ATOM     29  O   UNL     1      -4.751   0.502  25.447  0.00  0.00    -0.336 OA
BRANCH  18  19
ATOM     19  C   UNL     1      -4.710   2.425  24.521  0.00  0.00    +0.096 C 
BRANCH  19  20
ATOM     20  C   UNL     1      -4.128   2.965  24.747  0.00  0.00    -0.004 A 
ATOM     21  C   UNL     1      -3.948   3.067  25.545  0.00  0.00    -0.001 A 
ATOM     22  C   UNL     1      -3.366   3.607  25.770  0.00  0.00    +0.029 A 
ATOM     23  C   UNL     1      -2.963   4.043  25.198  0.00  0.00    +0.141 A 
ATOM     24  F   UNL     1      -2.381   4.583  25.423  0.00  0.00    -0.204 F 
ATOM     25  C   UNL     1      -3.144   3.940  24.399  0.00  0.00    +0.041 A 
ATOM     26  C   UNL     1      -3.726   3.401  24.174  0.00  0.00    +0.056 A 
ATOM     27 CL   UNL     1      -3.906   3.298  23.375  0.00  0.00    -0.082 Cl
ENDBRANCH  19  20
ENDBRANCH  18  19
ENDBRANCH  15  16
BRANCH  10   9
ATOM      9  C   UNL     1      -2.667  -0.247  24.859  0.00  0.00    +0.103 C 
BRANCH   9   8
ATOM      3  C   UNL     1      -1.254  -0.193  24.645  0.00  0.00    +0.136 A 
ATOM      4  C   UNL     1      -0.511  -0.544  24.697  0.00  0.00    +0.037 A 
ATOM      5  C   UNL     1      -0.433  -1.302  25.015  0.00  0.00    +0.003 A 
ATOM      6  C   UNL     1      -1.101  -1.708  25.282  0.00  0.00    -0.000 A 
ATOM      7  C   UNL     1      -1.845  -1.355  25.229  0.00  0.00    +0.000 A 
ATOM      8  C   UNL     1      -1.922  -0.599  24.911  0.00  0.00    +0.028 A 
BRANCH   3   2
ATOM      1  C   UNL     1      -0.662   1.026  24.191  0.00  0.00    +0.252 C 
ATOM      2  O   UNL     1      -1.332   0.565  24.326  0.00  0.00    -0.472 OA
ENDBRANCH   3   2
ENDBRANCH   9   8
ENDBRANCH  10   9
TORSDOF 6
ENDMDL
MODEL 7
REMARK VINA RESULT:     -11.6      2.599      5.309
REMARK  Name = 
REMARK  6 active torsions:
REMARK  status: ('A' for Active; 'I' for Inactive)
REMARK    1  A    between atoms: O_2  and  C_3
REMARK    2  A    between atoms: C_8  and  C_9
REMARK    3  A    between atoms: C_9  and  N_10
REMARK    4  A    between atoms: C_15  and  C_16
REMARK    5  A    between atoms: C_18  and  C_19
REMARK    6  A    between atoms: C_19  and  C_20
REMARK                            x       y       z     vdW  Elec       q    Type
REMARK                         _______ _______ _______ _____ _____    ______ ____
ROOT
ATOM     10  N   UNL     1      -1.744  -0.260  24.810  0.00  0.00    -0.260 NA
ATOM     11  C   UNL     1      -1.621  -1.049  25.019  0.00  0.00    +0.106 C 
ATOM     12  C   UNL     1      -0.814  -1.151  25.162  0.00  0.00    +0.170 C 
ATOM     13  O   UNL     1      -0.448  -1.855  25.385  0.00  0.00    -0.222 OA
ATOM     14  C   UNL     1      -0.440  -0.426  25.042  0.00  0.00    +0.060 C 
ATOM     15  C   UNL     1      -1.015   0.125  24.824  0.00  0.00    +0.140 C 
ENDROOT
BRANCH  15  16
ATOM     16  C   UNL     1      -0.883   0.921  24.652  0.00  0.00    +0.251 A 
ATOM     17  N   UNL     1      -0.722   1.515  25.200  0.00  0.00    -0.193 NA
ATOM     18  C   UNL     1      -0.628   2.224  24.787  0.00  0.00    +0.185 A 
ATOM     28  N   UNL     1      -0.733   2.067  23.984  0.00  0.00    -0.060 NA
ATOM     29  O   UNL     1      -0.890   1.262  23.900  0.00  0.00    -0.336 OA
BRANCH  18  19
ATOM     19  C   UNL     1      -0.461   2.960  25.120  0.00  0.00    +0.096 C 
BRANCH  19  20
ATOM     20  C   UNL     1      -1.076   3.474  25.318  0.00  0.00    -0.004 A 
ATOM     21  C   UNL     1      -1.725   3.195  25.743  0.00  0.00    -0.001 A 
ATOM     22  C   UNL     1      -2.340   3.709  25.941  0.00  0.00    +0.029 A 
ATOM     23  C   UNL     1      -2.304   4.501  25.714  0.00  0.00    +0.141 A 
ATOM     24  F   UNL     1      -2.919   5.015  25.912  0.00  0.00    -0.204 F 
ATOM     25  C   UNL     1      -1.654   4.780  25.290  0.00  0.00    +0.041 A 
ATOM     26  C   UNL     1      -1.040   4.266  25.092  0.00  0.00    +0.056 A 
ATOM     27 CL   UNL     1      -0.389   4.545  24.667  0.00  0.00    -0.082 Cl
ENDBRANCH  19  20
ENDBRANCH  18  19
ENDBRANCH  15  16
BRANCH  10   9
ATOM      9  C   UNL     1      -2.470   0.084  24.621  0.00  0.00    +0.103 C 
BRANCH   9   8
ATOM      3  C   UNL     1      -3.883  -0.130  24.671  0.00  0.00    +0.136 A 
ATOM      4  C   UNL     1      -4.539  -0.607  24.523  0.00  0.00    +0.037 A 
ATOM      5  C   UNL     1      -4.439  -1.350  24.177  0.00  0.00    +0.003 A 
ATOM      6  C   UNL     1      -3.682  -1.615  23.978  0.00  0.00    -0.000 A 
ATOM      7  C   UNL     1      -3.027  -1.136  24.127  0.00  0.00    +0.000 A 
ATOM      8  C   UNL     1      -3.126  -0.395  24.473  0.00  0.00    +0.028 A 
BRANCH   3   2
ATOM      1  C   UNL     1      -4.740   0.926  25.110  0.00  0.00    +0.252 C 
ATOM      2  O   UNL     1      -3.982   0.613  25.017  0.00  0.00    -0.472 OA
ENDBRANCH   3   2
ENDBRANCH   9   8
ENDBRANCH  10   9
TORSDOF 6
ENDMDL
