MODEL 1
REMARK VINA RESULT:     -11.2      0.000      0.000
REMARK  Name = 
REMARK  9 active torsions:
REMARK  status: ('A' for Active; 'I' for Inactive)
REMARK    1  A    between atoms: O_2  and  C_3
REMARK    2  A    between atoms: C_6  and  C_7
REMARK    3  A    between atoms: C_7  and  C_8
REMARK    4  A    between atoms: C_8  and  N_9
REMARK    5  A    between atoms: C_8  and  C_29
REMARK    6  A    between atoms: C_10  and  C_12
REMARK    7  A    between atoms: C_14  and  N_15
REMARK    8  A    between atoms: C_16  and  C_18
REMARK    9  A    between atoms: C_18  and  C_19
REMARK                            x       y       z     vdW  Elec       q    Type
REMARK                         _______ _______ _______ _____ _____    ______ ____
ROOT
ATOM     12  C   UNL     1      -3.029   2.988  24.747  0.00  0.00    +0.033 C 
ATOM     13  C   UNL     1      -2.329   2.632  24.499  0.00  0.00    -0.002 C 
ATOM     14  C   UNL     1      -1.604   3.001  24.645  0.00  0.00    +0.150 C 
ATOM     24  C   UNL     1      -1.582   3.726  25.038  0.00  0.00    +0.206 C 
ATOM     25  O   UNL     1      -0.858   4.094  25.183  0.00  0.00    -0.218 OA
ATOM     26  C   UNL     1      -2.283   4.082  25.286  0.00  0.00    +0.189 C 
ATOM     27  O   UNL     1      -2.261   4.807  25.679  0.00  0.00    -0.220 OA
ATOM     28  C   UNL     1      -3.007   3.713  25.141  0.00  0.00    +0.066 C 
ENDROOT
BRANCH  12  10
ATOM      9  N   UNL     1      -3.981   1.966  25.050  0.00  0.00    -0.194 NA
ATOM     10  C   UNL     1      -3.753   2.620  24.602  0.00  0.00    +0.261 C 
ATOM     11  O   UNL     1      -4.249   2.907  24.009  0.00  0.00    -0.269 OA
BRANCH   9   8
ATOM      8  C   UNL     1      -4.705   1.599  24.905  0.00  0.00    +0.179 C 
BRANCH   8  29
ATOM     29  C   UNL     1      -5.390   1.876  25.272  0.00  0.00    +0.281 C 
ATOM     30  N   UNL     1      -6.090   1.941  24.840  0.00  0.00    -0.086 NA
ATOM     31  O   UNL     1      -5.375   2.087  26.068  0.00  0.00    -0.270 OA
ENDBRANCH   8  29
BRANCH   8   7
ATOM      7  C   UNL     1      -4.744   0.953  24.391  0.00  0.00    +0.057 C 
BRANCH   7   6
ATOM      3  C   UNL     1      -3.662  -1.186  25.009  0.00  0.00    +0.139 A 
ATOM      4  C   UNL     1      -3.977  -0.699  25.596  0.00  0.00    +0.037 A 
ATOM      5  C   UNL     1      -4.338   0.014  25.389  0.00  0.00    -0.001 A 
ATOM      6  C   UNL     1      -4.384   0.240  24.598  0.00  0.00    -0.020 A 
ATOM     32  C   UNL     1      -4.069  -0.248  24.011  0.00  0.00    -0.001 A 
ATOM     33  C   UNL     1      -3.708  -0.961  24.216  0.00  0.00    +0.037 A 
BRANCH   3   2
ATOM      1  C   UNL     1      -3.495  -2.591  24.810  0.00  0.00    +0.252 C 
ATOM      2  O   UNL     1      -3.302  -1.899  25.214  0.00  0.00    -0.471 OA
ENDBRANCH   3   2
ENDBRANCH   7   6
ENDBRANCH   8   7
ENDBRANCH   9   8
ENDBRANCH  12  10
BRANCH  14  15
ATOM     15  N   UNL     1      -0.903   2.644  24.397  0.00  0.00    -0.200 NA
ATOM     16  C   UNL     1      -0.676   1.916  24.713  0.00  0.00    +0.247 C 
ATOM     17  O   UNL     1      -1.150   1.545  25.276  0.00  0.00    -0.273 OA
BRANCH  16  18
ATOM     18  C   UNL     1       0.026   1.559  24.465  0.00  0.00    +0.120 C 
BRANCH  18  19
ATOM     19  C   UNL     1       0.021   0.777  24.205  0.00  0.00    +0.016 A 
ATOM     20  C   UNL     1      -0.231   0.124  24.640  0.00  0.00    +0.003 A 
ATOM     21  C   UNL     1      -0.141  -0.547  24.169  0.00  0.00    +0.007 A 
ATOM     22  C   UNL     1       0.168  -0.309  23.442  0.00  0.00    +0.035 A 
ATOM     23  S   UNL     1       0.268   0.510  23.464  0.00  0.00    -0.090 S 
ENDBRANCH  18  19
ENDBRANCH  16  18
ENDBRANCH  14  15
TORSDOF 9
ENDMDL
MODEL 2
REMARK VINA RESULT:     -11.1      1.307      3.778
REMARK  Name = 
REMARK  9 active torsions:
REMARK  status: ('A' for Active; 'I' for Inactive)
REMARK    1  A    between atoms: O_2  and  C_3
REMARK    2  A    between atoms: C_6  and  C_7
REMARK    3  A    between atoms: C_7  and  C_8
REMARK    4  A    between atoms: C_8  and  N_9
REMARK    5  A    between atoms: C_8  and  C_29
REMARK    6  A    between atoms: C_10  and  C_12
REMARK    7  A    between atoms: C_14  and  N_15
REMARK    8  A    between atoms: C_16  and  C_18
REMARK    9  A    between atoms: C_18  and  C_19
REMARK                            x       y       z     vdW  Elec       q    Type
REMARK                         _______ _______ _______ _____ _____    ______ ____
ROOT
ATOM     12  C   UNL     1      -4.021   2.931  24.943  0.00  0.00    +0.033 C 
ATOM     13  C   UNL     1      -4.156   2.159  24.690  0.00  0.00    -0.002 C 
ATOM     14  C   UNL     1      -4.884   1.798  24.836  0.00  0.00    +0.150 C 
ATOM     24  C   UNL     1      -5.476   2.210  25.237  0.00  0.00    +0.206 C 
ATOM     25  O   UNL     1      -6.203   1.849  25.383  0.00  0.00    -0.218 OA
ATOM     26  C   UNL     1      -5.341   2.983  25.490  0.00  0.00    +0.189 C 
ATOM     27  O   UNL     1      -5.932   3.396  25.891  0.00  0.00    -0.220 OA
ATOM     28  C   UNL     1      -4.613   3.344  25.344  0.00  0.00    +0.066 C 
ENDROOT
BRANCH  12  10
ATOM      9  N   UNL     1      -2.603   2.978  25.122  0.00  0.00    -0.194 NA
ATOM     10  C   UNL     1      -3.293   3.292  24.797  0.00  0.00    +0.261 C 
ATOM     11  O   UNL     1      -3.257   3.968  24.327  0.00  0.00    -0.269 OA
BRANCH   9   8
ATOM      8  C   UNL     1      -1.877   3.339  24.976  0.00  0.00    +0.179 C 
BRANCH   8  29
ATOM     29  C   UNL     1      -1.630   3.973  25.442  0.00  0.00    +0.281 C 
ATOM     30  N   UNL     1      -1.303   4.643  25.088  0.00  0.00    -0.086 NA
ATOM     31  O   UNL     1      -1.709   3.938  26.262  0.00  0.00    -0.270 OA
ENDBRANCH   8  29
BRANCH   8   7
ATOM      7  C   UNL     1      -1.397   3.067  24.361  0.00  0.00    +0.057 C 
BRANCH   7   6
ATOM      3  C   UNL     1      -0.433   0.789  24.462  0.00  0.00    +0.139 A 
ATOM      4  C   UNL     1      -0.372   1.292  25.113  0.00  0.00    +0.037 A 
ATOM      5  C   UNL     1      -0.694   2.051  25.079  0.00  0.00    -0.001 A 
ATOM      6  C   UNL     1      -1.075   2.308  24.395  0.00  0.00    -0.020 A 
ATOM     32  C   UNL     1      -1.136   1.805  23.744  0.00  0.00    -0.001 A 
ATOM     33  C   UNL     1      -0.816   1.046  23.776  0.00  0.00    +0.037 A 
BRANCH   3   2
ATOM      1  C   UNL     1       0.103  -0.357  23.799  0.00  0.00    +0.252 C 
ATOM      2  O   UNL     1      -0.113   0.030  24.494  0.00  0.00    -0.471 OA
ENDBRANCH   3   2
ENDBRANCH   7   6
ENDBRANCH   8   7
ENDBRANCH   9   8
ENDBRANCH  12  10
BRANCH  14  15
ATOM     15  N   UNL     1      -5.019   1.024  24.582  0.00  0.00    -0.200 NA
ATOM     16  C   UNL     1      -4.554   0.408  24.873  0.00  0.00    +0.247 C 
ATOM     17  O   UNL     1      -3.954   0.564  25.416  0.00  0.00    -0.273 OA
BRANCH  16  18
ATOM     18  C   UNL     1      -4.689  -0.366  24.618  0.00  0.00    +0.120 C 
BRANCH  18  19
ATOM     19  C   UNL     1      -4.092  -0.931  24.679  0.00  0.00    +0.016 A 
ATOM     20  C   UNL     1      -3.706  -1.155  25.373  0.00  0.00    +0.003 A 
ATOM     21  C   UNL     1      -3.150  -1.733  25.180  0.00  0.00    +0.007 A 
ATOM     22  C   UNL     1      -3.192  -1.866  24.367  0.00  0.00    +0.035 A 
ATOM     23  S   UNL     1      -3.774  -1.370  24.057  0.00  0.00    -0.090 S 
ENDBRANCH  18  19
ENDBRANCH  16  18
ENDBRANCH  14  15
TORSDOF 9
ENDMDL
MODEL 3
REMARK VINA RESULT:     -11.1      1.693      3.715
REMARK  Name = 
REMARK  9 active torsions:
REMARK  status: ('A' for Active; 'I' for Inactive)
REMARK    1  A    between atoms: O_2  and  C_3
REMARK    2  A    between atoms: C_6  and  C_7
REMARK    3  A    between atoms: C_7  and  C_8
REMARK    4  A    between atoms: C_8  and  N_9
REMARK    5  A    between atoms: C_8  and  C_29
REMARK    6  A    between atoms: C_10  and  C_12
REMARK    7  A    between atoms: C_14  and  N_15
REMARK    8  A    between atoms: C_16  and  C_18
REMARK    9  A    between atoms: C_18  and  C_19
REMARK                            x       y       z     vdW  Elec       q    Type
REMARK                         _______ _______ _______ _____ _____    ______ ____
ROOT
ATOM     12  C   UNL     1      -1.246   2.604  25.292  0.00  0.00    +0.033 C 
ATOM     13  C   UNL     1      -2.042   2.746  25.449  0.00  0.00    -0.002 C 
ATOM     14  C   UNL     1      -2.329   3.520  25.460  0.00  0.00    +0.150 C 
ATOM     24  C   UNL     1      -1.817   4.152  25.315  0.00  0.00    +0.206 C 
ATOM     25  O   UNL     1      -2.104   4.925  25.326  0.00  0.00    -0.218 OA
ATOM     26  C   UNL     1      -1.021   4.009  25.158  0.00  0.00    +0.189 C 
ATOM     27  O   UNL     1      -0.510   4.640  25.012  0.00  0.00    -0.220 OA
ATOM     28  C   UNL     1      -0.734   3.235  25.146  0.00  0.00    +0.066 C 
ENDROOT
BRANCH  12  10
ATOM      9  N   UNL     1      -1.311   1.267  24.791  0.00  0.00    -0.194 NA
ATOM     10  C   UNL     1      -0.959   1.830  25.280  0.00  0.00    +0.261 C 
ATOM     11  O   UNL     1      -0.321   1.621  25.759  0.00  0.00    -0.269 OA
BRANCH   9   8
ATOM      8  C   UNL     1      -1.023   0.494  24.780  0.00  0.00    +0.179 C 
BRANCH   8  29
ATOM     29  C   UNL     1      -0.471   0.267  24.211  0.00  0.00    +0.281 C 
ATOM     30  N   UNL     1       0.194  -0.168  24.433  0.00  0.00    -0.086 NA
ATOM     31  O   UNL     1      -0.583   0.473  23.420  0.00  0.00    -0.270 OA
ENDBRANCH   8  29
BRANCH   8   7
ATOM      7  C   UNL     1      -1.289  -0.053  25.339  0.00  0.00    +0.057 C 
BRANCH   7   6
ATOM      3  C   UNL     1      -3.250  -1.479  24.838  0.00  0.00    +0.139 A 
ATOM      4  C   UNL     1      -3.358  -0.726  25.158  0.00  0.00    +0.037 A 
ATOM      5  C   UNL     1      -2.704  -0.251  25.325  0.00  0.00    -0.001 A 
ATOM      6  C   UNL     1      -1.943  -0.528  25.172  0.00  0.00    -0.020 A 
ATOM     32  C   UNL     1      -1.834  -1.281  24.852  0.00  0.00    -0.001 A 
ATOM     33  C   UNL     1      -2.487  -1.756  24.685  0.00  0.00    +0.037 A 
BRANCH   3   2
ATOM      1  C   UNL     1      -4.238  -1.945  23.919  0.00  0.00    +0.252 C 
ATOM      2  O   UNL     1      -3.902  -1.954  24.671  0.00  0.00    -0.471 OA
ENDBRANCH   3   2
ENDBRANCH   7   6
ENDBRANCH   8   7
ENDBRANCH   9   8
ENDBRANCH  12  10
BRANCH  14  15
ATOM     15  N   UNL     1      -3.126   3.663  25.618  0.00  0.00    -0.200 NA
ATOM     16  C   UNL     1      -3.701   3.431  25.073  0.00  0.00    +0.247 C 
ATOM     17  O   UNL     1      -3.480   3.057  24.373  0.00  0.00    -0.273 OA
BRANCH  16  18
ATOM     18  C   UNL     1      -4.500   3.574  25.230  0.00  0.00    +0.120 C 
BRANCH  18  19
ATOM     19  C   UNL     1      -5.034   2.946  25.253  0.00  0.00    +0.016 A 
ATOM     20  C   UNL     1      -5.219   2.445  24.625  0.00  0.00    +0.003 A 
ATOM     21  C   UNL     1      -5.776   1.898  24.890  0.00  0.00    +0.007 A 
ATOM     22  C   UNL     1      -5.936   2.061  25.683  0.00  0.00    +0.035 A 
ATOM     23  S   UNL     1      -5.477   2.709  25.907  0.00  0.00    -0.090 S 
ENDBRANCH  18  19
ENDBRANCH  16  18
ENDBRANCH  14  15
TORSDOF 9
ENDMDL
MODEL 4
REMARK VINA RESULT:     -11.1      1.604      3.793
REMARK  Name = 
REMARK  9 active torsions:
REMARK  status: ('A' for Active; 'I' for Inactive)
REMARK    1  A    between atoms: O_2  and  C_3
REMARK    2  A    between atoms: C_6  and  C_7
REMARK    3  A    between atoms: C_7  and  C_8
REMARK    4  A    between atoms: C_8  and  N_9
REMARK    5  A    between atoms: C_8  and  C_29
REMARK    6  A    between atoms: C_10  and  C_12
REMARK    7  A    between atoms: C_14  and  N_15
REMARK    8  A    between atoms: C_16  and  C_18
REMARK    9  A    between atoms: C_18  and  C_19
REMARK                            x       y       z     vdW  Elec       q    Type
REMARK                         _______ _______ _______ _____ _____    ______ ____
ROOT
ATOM     12  C   UNL     1      -1.279   1.628  24.472  0.00  0.00    +0.033 C 
ATOM     13  C   UNL     1      -1.702   1.008  24.812  0.00  0.00    -0.002 C 
ATOM     14  C   UNL     1      -1.376   0.250  24.839  0.00  0.00    +0.150 C 
ATOM     24  C   UNL     1      -0.625   0.114  24.524  0.00  0.00    +0.206 C 
ATOM     25  O   UNL     1      -0.299  -0.644  24.551  0.00  0.00    -0.218 OA
ATOM     26  C   UNL     1      -0.201   0.733  24.184  0.00  0.00    +0.189 C 
ATOM     27  O   UNL     1       0.549   0.597  23.869  0.00  0.00    -0.220 OA
ATOM     28  C   UNL     1      -0.528   1.491  24.157  0.00  0.00    +0.066 C 
ENDROOT
BRANCH  12  10
ATOM      9  N   UNL     1      -2.190   2.602  24.984  0.00  0.00    -0.194 NA
ATOM     10  C   UNL     1      -1.605   2.385  24.445  0.00  0.00    +0.261 C 
ATOM     11  O   UNL     1      -1.345   2.925  23.878  0.00  0.00    -0.269 OA
BRANCH   9   8
ATOM      8  C   UNL     1      -2.515   3.359  24.957  0.00  0.00    +0.179 C 
BRANCH   8  29
ATOM     29  C   UNL     1      -2.165   3.975  25.379  0.00  0.00    +0.281 C 
ATOM     30  N   UNL     1      -1.986   4.686  25.000  0.00  0.00    -0.086 NA
ATOM     31  O   UNL     1      -1.994   3.882  26.180  0.00  0.00    -0.270 OA
ENDBRANCH   8  29
BRANCH   8   7
ATOM      7  C   UNL     1      -3.193   3.501  24.506  0.00  0.00    +0.057 C 
BRANCH   7   6
ATOM      3  C   UNL     1      -5.391   2.665  25.279  0.00  0.00    +0.139 A 
ATOM      4  C   UNL     1      -4.958   3.185  25.752  0.00  0.00    +0.037 A 
ATOM      5  C   UNL     1      -4.225   3.463  25.493  0.00  0.00    -0.001 A 
ATOM      6  C   UNL     1      -3.925   3.223  24.764  0.00  0.00    -0.020 A 
ATOM     32  C   UNL     1      -4.358   2.704  24.291  0.00  0.00    -0.001 A 
ATOM     33  C   UNL     1      -5.091   2.424  24.548  0.00  0.00    +0.037 A 
BRANCH   3   2
ATOM      1  C   UNL     1      -6.214   1.593  25.738  0.00  0.00    +0.252 C 
ATOM      2  O   UNL     1      -6.123   2.386  25.536  0.00  0.00    -0.471 OA
ENDBRANCH   3   2
ENDBRANCH   7   6
ENDBRANCH   8   7
ENDBRANCH   9   8
ENDBRANCH  12  10
BRANCH  14  15
ATOM     15  N   UNL     1      -1.800  -0.370  25.179  0.00  0.00    -0.200 NA
ATOM     16  C   UNL     1      -2.520  -0.606  24.852  0.00  0.00    +0.247 C 
ATOM     17  O   UNL     1      -2.815  -0.222  24.185  0.00  0.00    -0.273 OA
BRANCH  16  18
ATOM     18  C   UNL     1      -2.944  -1.227  25.193  0.00  0.00    +0.120 C 
BRANCH  18  19
ATOM     19  C   UNL     1      -3.406  -1.719  24.720  0.00  0.00    +0.016 A 
ATOM     20  C   UNL     1      -4.045  -1.484  24.255  0.00  0.00    +0.003 A 
ATOM     21  C   UNL     1      -4.344  -2.153  23.876  0.00  0.00    +0.007 A 
ATOM     22  C   UNL     1      -3.890  -2.801  24.106  0.00  0.00    +0.035 A 
ATOM     23  S   UNL     1      -3.309  -2.534  24.628  0.00  0.00    -0.090 S 
ENDBRANCH  18  19
ENDBRANCH  16  18
ENDBRANCH  14  15
TORSDOF 9
ENDMDL
MODEL 5
REMARK VINA RESULT:     -10.9      1.190      3.773
REMARK  Name = 
REMARK  9 active torsions:
REMARK  status: ('A' for Active; 'I' for Inactive)
REMARK    1  A    between atoms: O_2  and  C_3
REMARK    2  A    between atoms: C_6  and  C_7
REMARK    3  A    between atoms: C_7  and  C_8
REMARK    4  A    between atoms: C_8  and  N_9
REMARK    5  A    between atoms: C_8  and  C_29
REMARK    6  A    between atoms: C_10  and  C_12
REMARK    7  A    between atoms: C_14  and  N_15
REMARK    8  A    between atoms: C_16  and  C_18
REMARK    9  A    between atoms: C_18  and  C_19
REMARK                            x       y       z     vdW  Elec       q    Type
REMARK                         _______ _______ _______ _____ _____    ______ ____
ROOT
ATOM     12  C   UNL     1      -3.993  -0.047  24.706  0.00  0.00    +0.033 C 
ATOM     13  C   UNL     1      -3.210   0.088  24.925  0.00  0.00    -0.002 C 
ATOM     14  C   UNL     1      -2.691  -0.548  25.018  0.00  0.00    +0.150 C 
ATOM     24  C   UNL     1      -2.957  -1.319  24.891  0.00  0.00    +0.206 C 
ATOM     25  O   UNL     1      -2.439  -1.954  24.983  0.00  0.00    -0.218 OA
ATOM     26  C   UNL     1      -3.740  -1.455  24.672  0.00  0.00    +0.189 C 
ATOM     27  O   UNL     1      -4.006  -2.225  24.545  0.00  0.00    -0.220 OA
ATOM     28  C   UNL     1      -4.259  -0.819  24.580  0.00  0.00    +0.066 C 
ENDROOT
BRANCH  12  10
ATOM      9  N   UNL     1      -4.466   1.235  25.123  0.00  0.00    -0.194 NA
ATOM     10  C   UNL     1      -4.511   0.587  24.614  0.00  0.00    +0.261 C 
ATOM     11  O   UNL     1      -5.075   0.573  24.012  0.00  0.00    -0.269 OA
BRANCH   9   8
ATOM      8  C   UNL     1      -4.985   1.869  25.030  0.00  0.00    +0.179 C 
BRANCH   8  29
ATOM     29  C   UNL     1      -5.732   1.846  25.379  0.00  0.00    +0.281 C 
ATOM     30  N   UNL     1      -6.404   1.994  24.924  0.00  0.00    -0.086 NA
ATOM     31  O   UNL     1      -5.808   1.676  26.182  0.00  0.00    -0.270 OA
ENDBRANCH   8  29
BRANCH   8   7
ATOM      7  C   UNL     1      -4.757   2.528  24.587  0.00  0.00    +0.057 C 
BRANCH   7   6
ATOM      3  C   UNL     1      -3.035   4.074  25.467  0.00  0.00    +0.139 A 
ATOM      4  C   UNL     1      -3.641   3.808  25.959  0.00  0.00    +0.037 A 
ATOM      5  C   UNL     1      -4.215   3.292  25.666  0.00  0.00    -0.001 A 
ATOM      6  C   UNL     1      -4.183   3.043  24.880  0.00  0.00    -0.020 A 
ATOM     32  C   UNL     1      -3.577   3.309  24.388  0.00  0.00    -0.001 A 
ATOM     33  C   UNL     1      -3.003   3.824  24.680  0.00  0.00    +0.037 A 
BRANCH   3   2
ATOM      1  C   UNL     1      -1.922   4.940  25.245  0.00  0.00    +0.252 C 
ATOM      2  O   UNL     1      -2.461   4.589  25.759  0.00  0.00    -0.471 OA
ENDBRANCH   3   2
ENDBRANCH   7   6
ENDBRANCH   8   7
ENDBRANCH   9   8
ENDBRANCH  12  10
BRANCH  14  15
ATOM     15  N   UNL     1      -1.907  -0.412  25.237  0.00  0.00    -0.200 NA
ATOM     16  C   UNL     1      -1.418   0.046  24.755  0.00  0.00    +0.247 C 
ATOM     17  O   UNL     1      -1.712   0.368  24.056  0.00  0.00    -0.273 OA
BRANCH  16  18
ATOM     18  C   UNL     1      -0.634   0.182  24.974  0.00  0.00    +0.120 C 
BRANCH  18  19
ATOM     19  C   UNL     1      -0.320   0.943  24.933  0.00  0.00    +0.016 A 
ATOM     20  C   UNL     1      -0.297   1.491  25.548  0.00  0.00    +0.003 A 
ATOM     21  C   UNL     1       0.063   2.177  25.265  0.00  0.00    +0.007 A 
ATOM     22  C   UNL     1       0.263   2.053  24.474  0.00  0.00    +0.035 A 
ATOM     23  S   UNL     1       0.026   1.289  24.269  0.00  0.00    -0.090 S 
ENDBRANCH  18  19
ENDBRANCH  16  18
ENDBRANCH  14  15
TORSDOF 9
ENDMDL
MODEL 6
REMARK VINA RESULT:     -10.7      1.562      3.482
REMARK  Name = 
REMARK  9 active torsions:
REMARK  status: ('A' for Active; 'I' for Inactive)
REMARK    1  A    between atoms: O_2  and  C_3
REMARK    2  A    between atoms: C_6  and  C_7
REMARK    3  A    between atoms: C_7  and  C_8
REMARK    4  A    between atoms: C_8  and  N_9
REMARK    5  A    between atoms: C_8  and  C_29
REMARK    6  A    between atoms: C_10  and  C_12
REMARK    7  A    between atoms: C_14  and  N_15
REMARK    8  A    between atoms: C_16  and  C_18
REMARK    9  A    between atoms: C_18  and  C_19
REMARK                            x       y       z     vdW  Elec       q    Type
REMARK                         _______ _______ _______ _____ _____    ______ ____
ROOT
ATOM     12  C   UNL     1      -4.394   0.800  24.985  0.00  0.00    +0.033 C 
ATOM     13  C   UNL     1      -3.840   1.378  24.792  0.00  0.00    -0.002 C 
ATOM     14  C   UNL     1      -4.085   2.152  24.642  0.00  0.00    +0.150 C 
ATOM     24  C   UNL     1      -4.887   2.346  24.687  0.00  0.00    +0.206 C 
ATOM     25  O   UNL     1      -5.132   3.120  24.538  0.00  0.00    -0.218 OA
ATOM     26  C   UNL     1      -5.441   1.768  24.880  0.00  0.00    +0.189 C 
ATOM     27  O   UNL     1      -6.241   1.962  24.925  0.00  0.00    -0.220 OA
ATOM     28  C   UNL     1      -5.195   0.994  25.030  0.00  0.00    +0.066 C 
ENDROOT
BRANCH  12  10
ATOM      9  N   UNL     1      -3.614  -0.343  24.626  0.00  0.00    -0.194 NA
ATOM     10  C   UNL     1      -4.149   0.026  25.134  0.00  0.00    +0.261 C 
ATOM     11  O   UNL     1      -4.440  -0.377  25.792  0.00  0.00    -0.269 OA
BRANCH   9   8
ATOM      8  C   UNL     1      -3.370  -1.116  24.776  0.00  0.00    +0.179 C 
BRANCH   8  29
ATOM     29  C   UNL     1      -3.772  -1.750  24.433  0.00  0.00    +0.281 C 
ATOM     30  N   UNL     1      -3.890  -2.444  24.863  0.00  0.00    -0.086 NA
ATOM     31  O   UNL     1      -4.054  -1.691  23.661  0.00  0.00    -0.270 OA
ENDBRANCH   8  29
BRANCH   8   7
ATOM      7  C   UNL     1      -2.723  -1.256  25.269  0.00  0.00    +0.057 C 
BRANCH   7   6
ATOM      3  C   UNL     1      -0.426  -0.855  24.440  0.00  0.00    +0.139 A 
ATOM      4  C   UNL     1      -0.913  -1.400  24.057  0.00  0.00    +0.037 A 
ATOM      5  C   UNL     1      -1.679  -1.533  24.334  0.00  0.00    -0.001 A 
ATOM      6  C   UNL     1      -1.957  -1.123  24.993  0.00  0.00    -0.020 A 
ATOM     32  C   UNL     1      -1.469  -0.579  25.376  0.00  0.00    -0.001 A 
ATOM     33  C   UNL     1      -0.704  -0.445  25.100  0.00  0.00    +0.037 A 
BRANCH   3   2
ATOM      1  C   UNL     1       0.461  -0.267  23.488  0.00  0.00    +0.252 C 
ATOM      2  O   UNL     1       0.340  -0.721  24.164  0.00  0.00    -0.471 OA
ENDBRANCH   3   2
ENDBRANCH   7   6
ENDBRANCH   8   7
ENDBRANCH   9   8
ENDBRANCH  12  10
BRANCH  14  15
ATOM     15  N   UNL     1      -3.531   2.731  24.449  0.00  0.00    -0.200 NA
ATOM     16  C   UNL     1      -2.960   2.956  25.001  0.00  0.00    +0.247 C 
ATOM     17  O   UNL     1      -2.945   2.604  25.746  0.00  0.00    -0.273 OA
BRANCH  16  18
ATOM     18  C   UNL     1      -2.405   3.536  24.807  0.00  0.00    +0.120 C 
BRANCH  18  19
ATOM     19  C   UNL     1      -1.603   3.399  24.939  0.00  0.00    +0.016 A 
ATOM     20  C   UNL     1      -1.227   3.396  25.673  0.00  0.00    +0.003 A 
ATOM     21  C   UNL     1      -0.427   3.236  25.549  0.00  0.00    +0.007 A 
ATOM     22  C   UNL     1      -0.309   3.139  24.738  0.00  0.00    +0.035 A 
ATOM     23  S   UNL     1      -1.036   3.239  24.361  0.00  0.00    -0.090 S 
ENDBRANCH  18  19
ENDBRANCH  16  18
ENDBRANCH  14  15
TORSDOF 9
ENDMDL
MODEL 7
REMARK VINA RESULT:     -10.6      1.717      5.271
REMARK  Name = 
REMARK  9 active torsions:
REMARK  status: ('A' for Active; 'I' for Inactive)
REMARK    1  A    between atoms: O_2  and  C_3
REMARK    2  A    between atoms: C_6  and  C_7
REMARK    3  A    between atoms: C_7  and  C_8
REMARK    4  A    between atoms: C_8  and  N_9
REMARK    5  A    between atoms: C_8  and  C_29
REMARK    6  A    between atoms: C_10  and  C_12
REMARK    7  A    between atoms: C_14  and  N_15
REMARK    8  A    between atoms: C_16  and  C_18
REMARK    9  A    between atoms: C_18  and  C_19
REMARK                            x       y       z     vdW  Elec       q    Type
REMARK                         _______ _______ _______ _____ _____    ______ ____
ROOT
ATOM     12  C   UNL     1      -2.339  -0.480  24.541  0.00  0.00    +0.033 C 
ATOM     13  C   UNL     1      -2.971   0.039  24.441  0.00  0.00    -0.002 C 
ATOM     14  C   UNL     1      -3.737  -0.256  24.351  0.00  0.00    +0.150 C 
ATOM     24  C   UNL     1      -3.869  -1.071  24.360  0.00  0.00    +0.206 C 
ATOM     25  O   UNL     1      -4.634  -1.366  24.269  0.00  0.00    -0.218 OA
ATOM     26  C   UNL     1      -3.236  -1.590  24.459  0.00  0.00    +0.189 C 
ATOM     27  O   UNL     1      -3.368  -2.404  24.468  0.00  0.00    -0.220 OA
ATOM     28  C   UNL     1      -2.471  -1.295  24.550  0.00  0.00    +0.066 C 
ENDROOT
BRANCH  12  10
ATOM      9  N   UNL     1      -1.378   0.556  24.328  0.00  0.00    -0.194 NA
ATOM     10  C   UNL     1      -1.574  -0.186  24.632  0.00  0.00    +0.261 C 
ATOM     11  O   UNL     1      -1.005  -0.634  25.026  0.00  0.00    -0.269 OA
BRANCH   9   8
ATOM      8  C   UNL     1      -0.613   0.849  24.419  0.00  0.00    +0.179 C 
BRANCH   8  29
ATOM     29  C   UNL     1      -0.042   0.702  23.841  0.00  0.00    +0.281 C 
ATOM     30  N   UNL     1       0.706   0.433  24.061  0.00  0.00    -0.086 NA
ATOM     31  O   UNL     1      -0.219   0.823  23.045  0.00  0.00    -0.270 OA
ENDBRANCH   8  29
BRANCH   8   7
ATOM      7  C   UNL     1      -0.417   1.291  25.089  0.00  0.00    +0.057 C 
BRANCH   7   6
ATOM      3  C   UNL     1      -1.166   3.643  25.279  0.00  0.00    +0.139 A 
ATOM      4  C   UNL     1      -1.238   3.134  25.924  0.00  0.00    +0.037 A 
ATOM      5  C   UNL     1      -0.988   2.350  25.860  0.00  0.00    -0.001 A 
ATOM      6  C   UNL     1      -0.667   2.075  25.152  0.00  0.00    -0.020 A 
ATOM     32  C   UNL     1      -0.595   2.584  24.507  0.00  0.00    -0.001 A 
ATOM     33  C   UNL     1      -0.844   3.368  24.570  0.00  0.00    +0.037 A 
BRANCH   3   2
ATOM      1  C   UNL     1      -0.999   5.024  24.956  0.00  0.00    +0.252 C 
ATOM      2  O   UNL     1      -1.415   4.426  25.342  0.00  0.00    -0.471 OA
ENDBRANCH   3   2
ENDBRANCH   7   6
ENDBRANCH   8   7
ENDBRANCH   9   8
ENDBRANCH  12  10
BRANCH  14  15
ATOM     15  N   UNL     1      -4.370   0.263  24.251  0.00  0.00    -0.200 NA
ATOM     16  C   UNL     1      -4.563   0.797  24.850  0.00  0.00    +0.247 C 
ATOM     17  O   UNL     1      -4.123   0.813  25.547  0.00  0.00    -0.273 OA
BRANCH  16  18
ATOM     18  C   UNL     1      -5.197   1.317  24.750  0.00  0.00    +0.120 C 
BRANCH  18  19
ATOM     19  C   UNL     1      -5.116   2.111  24.959  0.00  0.00    +0.016 A 
ATOM     20  C   UNL     1      -4.700   2.683  24.535  0.00  0.00    +0.003 A 
ATOM     21  C   UNL     1      -4.763   3.398  24.942  0.00  0.00    +0.007 A 
ATOM     22  C   UNL     1      -5.218   3.268  25.617  0.00  0.00    +0.035 A 
ATOM     23  S   UNL     1      -5.437   2.472  25.628  0.00  0.00    -0.090 S 
ENDBRANCH  18  19
ENDBRANCH  16  18
ENDBRANCH  14  15
TORSDOF 9
ENDMDL
MODEL 8
REMARK VINA RESULT:     -10.6      1.608      3.676
REMARK  Name = 
REMARK  9 active torsions:
REMARK  status: ('A' for Active; 'I' for Inactive)
REMARK    1  A    between atoms: O_2  and  C_3
REMARK    2  A    between atoms: C_6  and  C_7
REMARK    3  A    between atoms: C_7  and  C_8
REMARK    4  A    between atoms: C_8  and  N_9
REMARK    5  A    between atoms: C_8  and  C_29
REMARK    6  A    between atoms: C_10  and  C_12
REMARK    7  A    between atoms: C_14  and  N_15
REMARK    8  A    between atoms: C_16  and  C_18
REMARK    9  A    between atoms: C_18  and  C_19
REMARK                            x       y       z     vdW  Elec       q    Type
REMARK                         _______ _______ _______ _____ _____    ______ ____
ROOT
ATOM     12  C   UNL     1      -1.179   0.069  24.355  0.00  0.00    +0.033 C 
ATOM     13  C   UNL     1      -1.048   0.767  24.771  0.00  0.00    -0.002 C 
ATOM     14  C   UNL     1      -0.338   1.178  24.675  0.00  0.00    +0.150 C 
ATOM     24  C   UNL     1       0.240   0.888  24.161  0.00  0.00    +0.206 C 
ATOM     25  O   UNL     1       0.949   1.299  24.065  0.00  0.00    -0.218 OA
ATOM     26  C   UNL     1       0.108   0.190  23.744  0.00  0.00    +0.189 C 
ATOM     27  O   UNL     1       0.685  -0.100  23.231  0.00  0.00    -0.220 OA
ATOM     28  C   UNL     1      -0.602  -0.221  23.841  0.00  0.00    +0.066 C 
ENDROOT
BRANCH  12  10
ATOM      9  N   UNL     1      -2.502  -0.010  24.891  0.00  0.00    -0.194 NA
ATOM     10  C   UNL     1      -1.888  -0.342  24.451  0.00  0.00    +0.261 C 
ATOM     11  O   UNL     1      -1.983  -1.085  24.105  0.00  0.00    -0.269 OA
BRANCH   9   8
ATOM      8  C   UNL     1      -3.210  -0.421  24.986  0.00  0.00    +0.179 C 
BRANCH   8  29
ATOM     29  C   UNL     1      -3.264  -1.027  25.544  0.00  0.00    +0.281 C 
ATOM     30  N   UNL     1      -3.579  -1.758  25.328  0.00  0.00    -0.086 NA
ATOM     31  O   UNL     1      -3.004  -0.902  26.316  0.00  0.00    -0.270 OA
ENDBRANCH   8  29
BRANCH   8   7
ATOM      7  C   UNL     1      -3.866  -0.226  24.523  0.00  0.00    +0.057 C 
BRANCH   7   6
ATOM      3  C   UNL     1      -5.050   1.916  24.897  0.00  0.00    +0.139 A 
ATOM      4  C   UNL     1      -4.535   1.835  24.257  0.00  0.00    +0.037 A 
ATOM      5  C   UNL     1      -4.141   1.121  24.133  0.00  0.00    -0.001 A 
ATOM      6  C   UNL     1      -4.260   0.488  24.648  0.00  0.00    -0.020 A 
ATOM     32  C   UNL     1      -4.775   0.569  25.288  0.00  0.00    -0.001 A 
ATOM     33  C   UNL     1      -5.169   1.282  25.413  0.00  0.00    +0.037 A 
BRANCH   3   2
ATOM      1  C   UNL     1      -5.486   2.950  25.780  0.00  0.00    +0.252 C 
ATOM      2  O   UNL     1      -5.445   2.629  25.022  0.00  0.00    -0.471 OA
ENDBRANCH   3   2
ENDBRANCH   7   6
ENDBRANCH   8   7
ENDBRANCH   9   8
ENDBRANCH  12  10
BRANCH  14  15
ATOM     15  N   UNL     1      -0.206   1.877  25.092  0.00  0.00    -0.200 NA
ATOM     16  C   UNL     1      -0.596   2.570  24.870  0.00  0.00    +0.247 C 
ATOM     17  O   UNL     1      -1.118   2.563  24.231  0.00  0.00    -0.273 OA
BRANCH  16  18
ATOM     18  C   UNL     1      -0.464   3.270  25.288  0.00  0.00    +0.120 C 
BRANCH  18  19
ATOM     19  C   UNL     1      -1.061   3.836  25.342  0.00  0.00    +0.016 A 
ATOM     20  C   UNL     1      -1.763   3.760  25.768  0.00  0.00    +0.003 A 
ATOM     21  C   UNL     1      -2.197   4.454  25.670  0.00  0.00    +0.007 A 
ATOM     22  C   UNL     1      -1.764   4.960  25.184  0.00  0.00    +0.035 A 
ATOM     23  S   UNL     1      -1.061   4.578  24.981  0.00  0.00    -0.090 S 
ENDBRANCH  18  19
ENDBRANCH  16  18
ENDBRANCH  14  15
TORSDOF 9
ENDMDL
