MODEL 1
REMARK VINA RESULT:      -8.0      0.000      0.000
REMARK  Name = 
REMARK  7 active torsions:
REMARK  status: ('A' for Active; 'I' for Inactive)
REMARK    1  A    between atoms: C_2  and  C_4
REMARK    2  A    between atoms: C_6  and  C_7
REMARK    3  A    between atoms: C_7  and  C_8
REMARK    4  A    between atoms: C_25  and  C_26
REMARK    5  A    between atoms: C_26  and  N_27
REMARK    6  A    between atoms: C_28  and  C_30
REMARK    7  A    between atoms: C_33  and  C_36
REMARK                            x       y       z     vdW  Elec       q    Type
REMARK                         _______ _______ _______ _____ _____    ______ ____
ROOT
ATOM      4  C   UNL     1      -1.323   0.017  24.475  0.00  0.00    +0.006 C 
ATOM      5  C   UNL     1      -0.563   0.143  24.181  0.00  0.00    +0.005 C 
ATOM      6  C   UNL     1      -0.411   0.791  23.695  0.00  0.00    +0.027 C 
ATOM     22  C   UNL     1      -1.019   1.315  23.503  0.00  0.00    -0.048 C 
ATOM     23  C   UNL     1      -0.867   1.964  23.017  0.00  0.00    +0.026 C 
ATOM     24  C   UNL     1      -1.780   1.189  23.798  0.00  0.00    -0.033 C 
ATOM     25  C   UNL     1      -1.932   0.540  24.283  0.00  0.00    +0.043 C 
ENDROOT
BRANCH   4   2
ATOM      1  C   UNL     1      -1.338  -0.580  25.774  0.00  0.00    +0.000 C 
ATOM      2  C   UNL     1      -1.475  -0.632  24.962  0.00  0.00    +0.000 C 
ATOM      3  C   UNL     1      -1.764  -1.332  24.636  0.00  0.00    +0.000 C 
ENDBRANCH   4   2
BRANCH   6   7
ATOM      7  C   UNL     1       0.350   0.917  23.401  0.00  0.00    +0.089 C 
BRANCH   7   8
ATOM      8  C   UNL     1       0.767   0.295  23.054  0.00  0.00    +0.226 C 
ATOM      9  O   UNL     1       0.359  -0.312  22.673  0.00  0.00    -0.275 OA
ATOM     10  N   UNL     1       1.590   0.281  23.089  0.00  0.00    -0.276 N 
ATOM     11  C   UNL     1       1.998   0.889  23.470  0.00  0.00    +0.115 C 
ATOM     12  C   UNL     1       2.822   0.875  23.505  0.00  0.00    +0.114 C 
ATOM     13  N   UNL     1       3.239   0.252  23.158  0.00  0.00    -0.290 N 
ATOM     14  C   UNL     1       2.832  -0.355  22.777  0.00  0.00    +0.114 C 
ATOM     15  C   UNL     1       2.008  -0.342  22.742  0.00  0.00    +0.115 C 
ATOM     16  C   UNL     1       4.064   0.238  23.193  0.00  0.00    +0.132 A 
ATOM     17  N   UNL     1       4.471   0.845  23.574  0.00  0.00    -0.229 NA
ATOM     18  C   UNL     1       5.295   0.831  23.609  0.00  0.00    +0.100 A 
ATOM     19  C   UNL     1       5.712   0.209  23.263  0.00  0.00    +0.021 A 
ATOM     20  C   UNL     1       5.304  -0.399  22.881  0.00  0.00    +0.004 A 
ATOM     21  C   UNL     1       4.480  -0.384  22.847  0.00  0.00    +0.034 A 
ENDBRANCH   7   8
ENDBRANCH   6   7
BRANCH  25  26
ATOM     26  C   UNL     1      -2.692   0.414  24.578  0.00  0.00    +0.120 C 
BRANCH  26  27
ATOM     27  N   UNL     1      -3.165   1.056  24.789  0.00  0.00    -0.201 NA
ATOM     28  C   UNL     1      -3.986   0.981  24.788  0.00  0.00    +0.265 C 
ATOM     29  O   UNL     1      -4.335   0.264  24.575  0.00  0.00    -0.268 OA
BRANCH  28  30
ATOM     30  C   UNL     1      -4.459   1.624  24.999  0.00  0.00    +0.055 A 
ATOM     31  C   UNL     1      -5.170   1.498  25.399  0.00  0.00    +0.005 A 
ATOM     32  C   UNL     1      -5.643   2.140  25.611  0.00  0.00    +0.010 A 
ATOM     33  C   UNL     1      -5.405   2.908  25.422  0.00  0.00    +0.068 A 
ATOM     34  C   UNL     1      -4.695   3.032  25.023  0.00  0.00    +0.010 A 
ATOM     35  C   UNL     1      -4.222   2.390  24.811  0.00  0.00    +0.005 A 
BRANCH  33  36
ATOM     36  C   UNL     1      -5.878   3.549  25.634  0.00  0.00    +0.100 C 
ATOM     37  N   UNL     1      -6.352   4.192  25.845  0.00  0.00    -0.191 NA
ENDBRANCH  33  36
ENDBRANCH  28  30
ENDBRANCH  26  27
ENDBRANCH  25  26
TORSDOF 7
ENDMDL
MODEL 2
REMARK VINA RESULT:      -6.5      1.348      7.458
REMARK  Name = 
REMARK  7 active torsions:
REMARK  status: ('A' for Active; 'I' for Inactive)
REMARK    1  A    between atoms: C_2  and  C_4
REMARK    2  A    between atoms: C_6  and  C_7
REMARK    3  A    between atoms: C_7  and  C_8
REMARK    4  A    between atoms: C_25  and  C_26
REMARK    5  A    between atoms: C_26  and  N_27
REMARK    6  A    between atoms: C_28  and  C_30
REMARK    7  A    between atoms: C_33  and  C_36
REMARK                            x       y       z     vdW  Elec       q    Type
REMARK                         _______ _______ _______ _____ _____    ______ ____
ROOT
ATOM      4  C   UNL     1      -0.187   0.268  23.692  0.00  0.00    +0.006 C 
ATOM      5  C   UNL     1      -0.749   0.746  24.060  0.00  0.00    +0.005 C 
ATOM      6  C   UNL     1      -0.570   1.530  24.240  0.00  0.00    +0.027 C 
ATOM     22  C   UNL     1       0.172   1.837  24.053  0.00  0.00    -0.048 C 
ATOM     23  C   UNL     1       0.351   2.622  24.233  0.00  0.00    +0.026 C 
ATOM     24  C   UNL     1       0.735   1.359  23.684  0.00  0.00    -0.033 C 
ATOM     25  C   UNL     1       0.556   0.575  23.504  0.00  0.00    +0.043 C 
ENDROOT
BRANCH   4   2
ATOM      1  C   UNL     1      -0.325  -1.095  24.099  0.00  0.00    +0.000 C 
ATOM      2  C   UNL     1      -0.367  -0.517  23.512  0.00  0.00    +0.000 C 
ATOM      3  C   UNL     1      -0.588  -0.723  22.745  0.00  0.00    +0.000 C 
ENDBRANCH   4   2
BRANCH   6   7
ATOM      7  C   UNL     1      -1.133   2.008  24.609  0.00  0.00    +0.089 C 
BRANCH   7   8
ATOM      8  C   UNL     1      -1.737   2.352  24.165  0.00  0.00    +0.226 C 
ATOM      9  O   UNL     1      -1.555   2.779  23.483  0.00  0.00    -0.275 OA
ATOM     10  N   UNL     1      -2.522   2.268  24.402  0.00  0.00    -0.276 N 
ATOM     11  C   UNL     1      -2.705   1.841  25.084  0.00  0.00    +0.115 C 
ATOM     12  C   UNL     1      -3.489   1.757  25.322  0.00  0.00    +0.114 C 
ATOM     13  N   UNL     1      -4.094   2.101  24.877  0.00  0.00    -0.290 N 
ATOM     14  C   UNL     1      -3.913   2.528  24.196  0.00  0.00    +0.114 C 
ATOM     15  C   UNL     1      -3.127   2.612  23.958  0.00  0.00    +0.115 C 
ATOM     16  C   UNL     1      -4.880   2.017  25.115  0.00  0.00    +0.132 A 
ATOM     17  N   UNL     1      -5.062   1.590  25.796  0.00  0.00    -0.229 NA
ATOM     18  C   UNL     1      -5.847   1.506  26.034  0.00  0.00    +0.100 A 
ATOM     19  C   UNL     1      -6.451   1.850  25.590  0.00  0.00    +0.021 A 
ATOM     20  C   UNL     1      -6.270   2.278  24.908  0.00  0.00    +0.004 A 
ATOM     21  C   UNL     1      -5.484   2.361  24.671  0.00  0.00    +0.034 A 
ENDBRANCH   7   8
ENDBRANCH   6   7
BRANCH  25  26
ATOM     26  C   UNL     1       1.118   0.097  23.135  0.00  0.00    +0.120 C 
BRANCH  26  27
ATOM     27  N   UNL     1       1.917   0.178  23.325  0.00  0.00    -0.201 NA
ATOM     28  C   UNL     1       2.494  -0.011  22.767  0.00  0.00    +0.265 C 
ATOM     29  O   UNL     1       2.273  -0.280  22.019  0.00  0.00    -0.268 OA
BRANCH  28  30
ATOM     30  C   UNL     1       3.293   0.069  22.957  0.00  0.00    +0.055 A 
ATOM     31  C   UNL     1       3.690  -0.544  23.341  0.00  0.00    +0.005 A 
ATOM     32  C   UNL     1       4.488  -0.464  23.531  0.00  0.00    +0.010 A 
ATOM     33  C   UNL     1       4.891   0.230  23.337  0.00  0.00    +0.068 A 
ATOM     34  C   UNL     1       4.494   0.843  22.953  0.00  0.00    +0.010 A 
ATOM     35  C   UNL     1       3.695   0.763  22.764  0.00  0.00    +0.005 A 
BRANCH  33  36
ATOM     36  C   UNL     1       5.689   0.311  23.527  0.00  0.00    +0.100 C 
ATOM     37  N   UNL     1       6.489   0.391  23.717  0.00  0.00    -0.191 NA
ENDBRANCH  33  36
ENDBRANCH  28  30
ENDBRANCH  26  27
ENDBRANCH  25  26
TORSDOF 7
ENDMDL
MODEL 3
REMARK VINA RESULT:      -4.8     14.494     15.848
REMARK  Name = 
REMARK  7 active torsions:
REMARK  status: ('A' for Active; 'I' for Inactive)
REMARK    1  A    between atoms: C_2  and  C_4
REMARK    2  A    between atoms: C_6  and  C_7
REMARK    3  A    between atoms: C_7  and  C_8
REMARK    4  A    between atoms: C_25  and  C_26
REMARK    5  A    between atoms: C_26  and  N_27
REMARK    6  A    between atoms: C_28  and  C_30
REMARK    7  A    between atoms: C_33  and  C_36
REMARK                            x       y       z     vdW  Elec       q    Type
REMARK                         _______ _______ _______ _____ _____    ______ ____
ROOT
ATOM      4  C   UNL     1      -5.210 -10.286  15.968  0.00  0.00    +0.006 C 
ATOM      5  C   UNL     1      -5.118 -10.245  15.150  0.00  0.00    +0.005 C 
ATOM      6  C   UNL     1      -5.755 -10.410  14.654  0.00  0.00    +0.027 C 
ATOM     22  C   UNL     1      -6.486 -10.616  14.976  0.00  0.00    -0.048 C 
ATOM     23  C   UNL     1      -7.124 -10.781  14.480  0.00  0.00    +0.026 C 
ATOM     24  C   UNL     1      -6.579 -10.657  15.795  0.00  0.00    -0.033 C 
ATOM     25  C   UNL     1      -5.942 -10.493  16.291  0.00  0.00    +0.043 C 
ENDROOT
BRANCH   4   2
ATOM      1  C   UNL     1      -4.574  -9.437  16.925  0.00  0.00    +0.000 C 
ATOM      2  C   UNL     1      -4.572 -10.121  16.465  0.00  0.00    +0.000 C 
ATOM      3  C   UNL     1      -3.933 -10.641  16.500  0.00  0.00    +0.000 C 
ENDBRANCH   4   2
BRANCH   6   7
ATOM      7  C   UNL     1      -5.662 -10.369  13.835  0.00  0.00    +0.089 C 
BRANCH   7   8
ATOM      8  C   UNL     1      -5.917  -9.700  13.424  0.00  0.00    +0.226 C 
ATOM      9  O   UNL     1      -6.412  -9.153  13.793  0.00  0.00    -0.275 OA
ATOM     10  N   UNL     1      -5.675  -9.579  12.645  0.00  0.00    -0.276 N 
ATOM     11  C   UNL     1      -5.180 -10.126  12.276  0.00  0.00    +0.115 C 
ATOM     12  C   UNL     1      -4.939 -10.005  11.497  0.00  0.00    +0.114 C 
ATOM     13  N   UNL     1      -5.193  -9.335  11.085  0.00  0.00    -0.290 N 
ATOM     14  C   UNL     1      -5.688  -8.789  11.454  0.00  0.00    +0.114 C 
ATOM     15  C   UNL     1      -5.930  -8.910  12.233  0.00  0.00    +0.115 C 
ATOM     16  C   UNL     1      -4.952  -9.214  10.305  0.00  0.00    +0.132 A 
ATOM     17  N   UNL     1      -4.457  -9.761   9.937  0.00  0.00    -0.229 NA
ATOM     18  C   UNL     1      -4.215  -9.640   9.157  0.00  0.00    +0.100 A 
ATOM     19  C   UNL     1      -4.469  -8.971   8.746  0.00  0.00    +0.021 A 
ATOM     20  C   UNL     1      -4.965  -8.424   9.115  0.00  0.00    +0.004 A 
ATOM     21  C   UNL     1      -5.206  -8.546   9.894  0.00  0.00    +0.034 A 
ENDBRANCH   7   8
ENDBRANCH   6   7
BRANCH  25  26
ATOM     26  C   UNL     1      -6.034 -10.534  17.110  0.00  0.00    +0.120 C 
BRANCH  26  27
ATOM     27  N   UNL     1      -6.790 -10.553  17.440  0.00  0.00    -0.201 NA
ATOM     28  C   UNL     1      -6.882 -10.669  18.251  0.00  0.00    +0.265 C 
ATOM     29  O   UNL     1      -6.220 -10.768  18.732  0.00  0.00    -0.268 OA
BRANCH  28  30
ATOM     30  C   UNL     1      -7.639 -10.688  18.581  0.00  0.00    +0.055 A 
ATOM     31  C   UNL     1      -7.730 -10.737  19.400  0.00  0.00    +0.005 A 
ATOM     32  C   UNL     1      -8.486 -10.756  19.730  0.00  0.00    +0.010 A 
ATOM     33  C   UNL     1      -9.151 -10.726  19.242  0.00  0.00    +0.068 A 
ATOM     34  C   UNL     1      -9.058 -10.678  18.423  0.00  0.00    +0.010 A 
ATOM     35  C   UNL     1      -8.303 -10.659  18.093  0.00  0.00    +0.005 A 
BRANCH  33  36
ATOM     36  C   UNL     1      -9.905 -10.745  19.571  0.00  0.00    +0.100 C 
ATOM     37  N   UNL     1     -10.662 -10.764  19.902  0.00  0.00    -0.191 NA
ENDBRANCH  33  36
ENDBRANCH  28  30
ENDBRANCH  26  27
ENDBRANCH  25  26
TORSDOF 7
ENDMDL
