REMARK  Name = 
REMARK  3 active torsions:
REMARK  status: ('A' for Active; 'I' for Inactive)
REMARK    1  A    between atoms: C_4  and  C_8
REMARK    2  A    between atoms: C_15  and  O_17
REMARK    3  A    between atoms: O_17  and  C_18
REMARK                            x       y       z     vdW  Elec       q    Type
REMARK                         _______ _______ _______ _____ _____    ______ ____
ROOT
ATOM      8  C   UNL     1       0.314  -2.630   0.000  0.00  0.00    +0.249 C 
ATOM      9  O   UNL     1       0.314  -3.455   0.000  0.00  0.00    -0.270 OA
ATOM     10  N   UNL     1       1.028  -2.217   0.000  0.00  0.00    -0.270 N 
ATOM     11  C   UNL     1       0.967  -1.395   0.000  0.00  0.00    +0.126 C 
ATOM     12  C   UNL     1       1.571  -0.834   0.000  0.00  0.00    +0.164 C 
ATOM     13  O   UNL     1       2.387  -0.957   0.000  0.00  0.00    -0.348 OA
ATOM     14  C   UNL     1       2.800  -1.671   0.000  0.00  0.00    +0.187 C 
ATOM     15  C   UNL     1       2.498  -2.439   0.000  0.00  0.00    +0.217 C 
ATOM     16  C   UNL     1       1.710  -2.682   0.000  0.00  0.00    +0.140 C 
ENDROOT
BRANCH   8   4
ATOM      1  F   UNL     1      -1.115  -0.155   0.000  0.00  0.00    -0.204 F 
ATOM      2  C   UNL     1      -1.115  -0.980   0.000  0.00  0.00    +0.140 A 
ATOM      3  C   UNL     1      -0.401  -1.393   0.000  0.00  0.00    +0.034 A 
ATOM      4  C   UNL     1      -0.401  -2.217   0.000  0.00  0.00    +0.056 A 
ATOM      5  C   UNL     1      -1.115  -2.630   0.000  0.00  0.00    +0.005 A 
ATOM      6  C   UNL     1      -1.830  -2.217   0.000  0.00  0.00    +0.002 A 
ATOM      7  C   UNL     1      -1.830  -1.393   0.000  0.00  0.00    +0.030 A 
ENDBRANCH   8   4
BRANCH  15  17
ATOM     17  O   UNL     1       3.059  -3.044   0.000  0.00  0.00    -0.459 OA
BRANCH  17  18
ATOM     18  C   UNL     1       2.816  -3.832   0.000  0.00  0.00    +0.245 A 
ATOM     19  C   UNL     1       3.377  -4.437   0.000  0.00  0.00    +0.156 A 
ATOM     20  N   UNL     1       3.134  -5.225   0.000  0.00  0.00    -0.236 NA
ATOM     21  C   UNL     1       2.330  -5.409   0.000  0.00  0.00    +0.120 A 
ATOM     22  C   UNL     1       1.769  -4.804   0.000  0.00  0.00    +0.123 A 
ATOM     23  N   UNL     1       2.012  -4.016   0.000  0.00  0.00    -0.207 NA
ENDBRANCH  17  18
ENDBRANCH  15  17
TORSDOF 3
