MODEL 1
REMARK VINA RESULT:     -16.5      0.000      0.000
REMARK  Name = 
REMARK  2 active torsions:
REMARK  status: ('A' for Active; 'I' for Inactive)
REMARK    1  A    between atoms: C_5  and  C_8
REMARK    2  A    between atoms: C_17  and  C_24
REMARK                            x       y       z     vdW  Elec       q    Type
REMARK                         _______ _______ _______ _____ _____    ______ ____
ROOT
ATOM      8  C   UNL     1      -3.774   3.346  24.413  0.00  0.00    +0.249 C 
ATOM      9  O   UNL     1      -3.598   4.217  24.267  0.00  0.00    -0.270 OA
ATOM     10  N   UNL     1      -3.158   2.729  24.224  0.00  0.00    -0.276 N 
ATOM     11  C   UNL     1      -2.393   2.551  23.938  0.00  0.00    +0.096 C 
ATOM     12  C   UNL     1      -2.407   1.567  24.029  0.00  0.00    +0.043 C 
ATOM     13  C   UNL     1      -2.260   0.766  24.041  0.00  0.00    +0.011 C 
ATOM     14  C   UNL     1      -2.785   1.200  24.210  0.00  0.00    +0.058 C 
ATOM     15  C   UNL     1      -2.757   2.150  24.116  0.00  0.00    +0.099 C 
ATOM     16  C   UNL     1      -3.640   1.200  24.548  0.00  0.00    +0.041 A 
ATOM     17  C   UNL     1      -4.220   0.682  24.822  0.00  0.00    +0.013 A 
ATOM     18  C   UNL     1      -4.945   0.977  25.083  0.00  0.00    +0.006 A 
ATOM     19  C   UNL     1      -5.090   1.789  25.069  0.00  0.00    +0.061 A 
ATOM     20  C   UNL     1      -4.510   2.307  24.794  0.00  0.00    +0.261 A 
ATOM     21  O   UNL     1      -4.652   3.322  24.762  0.00  0.00    -0.267 OA
ATOM     22  N   UNL     1      -3.785   2.013  24.534  0.00  0.00    -0.299 N 
ATOM     23  C   UNL     1      -3.300   1.577  24.381  0.00  0.00    +0.110 C 
ENDROOT
BRANCH   8   5
ATOM      1  F   UNL     1      -6.285   1.564  25.892  0.00  0.00    -0.204 F 
ATOM      2  C   UNL     1      -5.686   1.981  25.509  0.00  0.00    +0.140 A 
ATOM      3  C   UNL     1      -5.652   1.802  24.719  0.00  0.00    +0.030 A 
ATOM      4  C   UNL     1      -4.963   2.292  24.316  0.00  0.00    +0.007 A 
ATOM      5  C   UNL     1      -4.488   2.815  24.741  0.00  0.00    +0.054 A 
ATOM      6  C   UNL     1      -4.611   2.922  25.549  0.00  0.00    +0.007 A 
ATOM      7  C   UNL     1      -5.211   2.504  25.933  0.00  0.00    +0.030 A 
ENDBRANCH   8   5
BRANCH  17  24
ATOM     24  C   UNL     1      -4.075  -0.130  24.836  0.00  0.00    +0.020 A 
ATOM     25  C   UNL     1      -4.277  -0.596  24.186  0.00  0.00    +0.003 A 
ATOM     26  C   UNL     1      -4.132  -1.408  24.200  0.00  0.00    +0.021 A 
ATOM     27  C   UNL     1      -3.785  -1.754  24.864  0.00  0.00    +0.099 A 
ATOM     28  N   UNL     1      -3.583  -1.288  25.513  0.00  0.00    -0.242 NA
ATOM     29  C   UNL     1      -3.728  -0.476  25.500  0.00  0.00    +0.099 A 
ENDBRANCH  17  24
TORSDOF 2
ENDMDL
MODEL 2
REMARK VINA RESULT:     -15.9      1.198      2.276
REMARK  Name = 
REMARK  2 active torsions:
REMARK  status: ('A' for Active; 'I' for Inactive)
REMARK    1  A    between atoms: C_5  and  C_8
REMARK    2  A    between atoms: C_17  and  C_24
REMARK                            x       y       z     vdW  Elec       q    Type
REMARK                         _______ _______ _______ _____ _____    ______ ____
ROOT
ATOM      8  C   UNL     1      -3.947   3.262  24.290  0.00  0.00    +0.249 C 
ATOM      9  O   UNL     1      -4.123   4.146  24.303  0.00  0.00    -0.270 OA
ATOM     10  N   UNL     1      -4.517   2.689  24.668  0.00  0.00    -0.276 N 
ATOM     11  C   UNL     1      -5.231   2.565  25.084  0.00  0.00    +0.096 C 
ATOM     12  C   UNL     1      -5.207   1.581  25.167  0.00  0.00    +0.043 C 
ATOM     13  C   UNL     1      -5.335   0.790  25.316  0.00  0.00    +0.011 C 
ATOM     14  C   UNL     1      -4.848   1.187  25.002  0.00  0.00    +0.058 C 
ATOM     15  C   UNL     1      -4.886   2.139  24.931  0.00  0.00    +0.099 C 
ATOM     16  C   UNL     1      -4.047   1.127  24.556  0.00  0.00    +0.041 A 
ATOM     17  C   UNL     1      -3.497   0.568  24.300  0.00  0.00    +0.013 A 
ATOM     18  C   UNL     1      -2.821   0.811  23.894  0.00  0.00    +0.006 A 
ATOM     19  C   UNL     1      -2.695   1.612  23.744  0.00  0.00    +0.061 A 
ATOM     20  C   UNL     1      -3.245   2.171  24.000  0.00  0.00    +0.261 A 
ATOM     21  O   UNL     1      -3.124   3.176  23.834  0.00  0.00    -0.267 OA
ATOM     22  N   UNL     1      -3.921   1.928  24.406  0.00  0.00    -0.299 N 
ATOM     23  C   UNL     1      -4.370   1.528  24.699  0.00  0.00    +0.110 C 
ENDROOT
BRANCH   8   5
ATOM      1  F   UNL     1      -1.320   1.285  23.360  0.00  0.00    -0.204 F 
ATOM      2  C   UNL     1      -1.971   1.751  23.562  0.00  0.00    +0.140 A 
ATOM      3  C   UNL     1      -2.603   1.614  23.073  0.00  0.00    +0.030 A 
ATOM      4  C   UNL     1      -3.321   2.158  23.331  0.00  0.00    +0.007 A 
ATOM      5  C   UNL     1      -3.272   2.681  23.966  0.00  0.00    +0.054 A 
ATOM      6  C   UNL     1      -2.573   2.740  24.400  0.00  0.00    +0.007 A 
ATOM      7  C   UNL     1      -1.922   2.274  24.198  0.00  0.00    +0.030 A 
ENDBRANCH   8   5
BRANCH  17  24
ATOM     24  C   UNL     1      -3.623  -0.234  24.449  0.00  0.00    +0.020 A 
ATOM     25  C   UNL     1      -4.015  -0.701  23.893  0.00  0.00    +0.003 A 
ATOM     26  C   UNL     1      -4.141  -1.502  24.043  0.00  0.00    +0.021 A 
ATOM     27  C   UNL     1      -3.876  -1.837  24.749  0.00  0.00    +0.099 A 
ATOM     28  N   UNL     1      -3.484  -1.370  25.305  0.00  0.00    -0.242 NA
ATOM     29  C   UNL     1      -3.358  -0.569  25.155  0.00  0.00    +0.099 A 
ENDBRANCH  17  24
TORSDOF 2
ENDMDL
MODEL 3
REMARK VINA RESULT:     -15.6      1.587      2.711
REMARK  Name = 
REMARK  2 active torsions:
REMARK  status: ('A' for Active; 'I' for Inactive)
REMARK    1  A    between atoms: C_5  and  C_8
REMARK    2  A    between atoms: C_17  and  C_24
REMARK                            x       y       z     vdW  Elec       q    Type
REMARK                         _______ _______ _______ _____ _____    ______ ____
ROOT
ATOM      8  C   UNL     1      -4.910   3.220  25.348  0.00  0.00    +0.249 C 
ATOM      9  O   UNL     1      -5.740   3.527  25.511  0.00  0.00    -0.270 OA
ATOM     10  N   UNL     1      -4.788   2.371  25.104  0.00  0.00    -0.276 N 
ATOM     11  C   UNL     1      -5.123   1.625  24.931  0.00  0.00    +0.096 C 
ATOM     12  C   UNL     1      -4.302   1.120  24.715  0.00  0.00    +0.043 C 
ATOM     13  C   UNL     1      -3.732   0.575  24.511  0.00  0.00    +0.011 C 
ATOM     14  C   UNL     1      -3.760   1.250  24.699  0.00  0.00    +0.058 C 
ATOM     15  C   UNL     1      -4.563   1.725  24.905  0.00  0.00    +0.099 C 
ATOM     16  C   UNL     1      -3.221   1.980  24.848  0.00  0.00    +0.041 A 
ATOM     17  C   UNL     1      -2.427   2.203  24.834  0.00  0.00    +0.013 A 
ATOM     18  C   UNL     1      -2.213   2.976  25.026  0.00  0.00    +0.006 A 
ATOM     19  C   UNL     1      -2.793   3.526  25.232  0.00  0.00    +0.061 A 
ATOM     20  C   UNL     1      -3.586   3.303  25.246  0.00  0.00    +0.261 A 
ATOM     21  O   UNL     1      -4.336   3.957  25.496  0.00  0.00    -0.267 OA
ATOM     22  N   UNL     1      -3.801   2.530  25.054  0.00  0.00    -0.299 N 
ATOM     23  C   UNL     1      -3.747   1.887  24.873  0.00  0.00    +0.110 C 
ENDROOT
BRANCH   8   5
ATOM      1  F   UNL     1      -1.731   4.422  25.701  0.00  0.00    -0.204 F 
ATOM      2  C   UNL     1      -2.494   4.131  25.586  0.00  0.00    +0.140 A 
ATOM      3  C   UNL     1      -2.660   4.021  24.800  0.00  0.00    +0.030 A 
ATOM      4  C   UNL     1      -3.532   3.692  24.706  0.00  0.00    +0.007 A 
ATOM      5  C   UNL     1      -4.021   3.550  25.355  0.00  0.00    +0.054 A 
ATOM      6  C   UNL     1      -3.748   3.699  26.119  0.00  0.00    +0.007 A 
ATOM      7  C   UNL     1      -2.984   3.990  26.234  0.00  0.00    +0.030 A 
ENDBRANCH   8   5
BRANCH  17  24
ATOM     24  C   UNL     1      -1.847   1.653  24.629  0.00  0.00    +0.020 A 
ATOM     25  C   UNL     1      -1.491   1.191  25.212  0.00  0.00    +0.003 A 
ATOM     26  C   UNL     1      -0.912   0.641  25.006  0.00  0.00    +0.021 A 
ATOM     27  C   UNL     1      -0.688   0.553  24.217  0.00  0.00    +0.099 A 
ATOM     28  N   UNL     1      -1.044   1.015  23.634  0.00  0.00    -0.242 NA
ATOM     29  C   UNL     1      -1.624   1.565  23.839  0.00  0.00    +0.099 A 
ENDBRANCH  17  24
TORSDOF 2
ENDMDL
MODEL 4
REMARK VINA RESULT:     -15.4      2.394      3.951
REMARK  Name = 
REMARK  2 active torsions:
REMARK  status: ('A' for Active; 'I' for Inactive)
REMARK    1  A    between atoms: C_5  and  C_8
REMARK    2  A    between atoms: C_17  and  C_24
REMARK                            x       y       z     vdW  Elec       q    Type
REMARK                         _______ _______ _______ _____ _____    ______ ____
ROOT
ATOM      8  C   UNL     1      -3.294  -2.420  24.680  0.00  0.00    +0.249 C 
ATOM      9  O   UNL     1      -3.615  -3.260  24.628  0.00  0.00    -0.270 OA
ATOM     10  N   UNL     1      -2.414  -2.276  24.648  0.00  0.00    -0.276 N 
ATOM     11  C   UNL     1      -1.643  -2.591  24.584  0.00  0.00    +0.096 C 
ATOM     12  C   UNL     1      -1.118  -1.756  24.625  0.00  0.00    +0.043 C 
ATOM     13  C   UNL     1      -0.551  -1.171  24.644  0.00  0.00    +0.011 C 
ATOM     14  C   UNL     1      -1.251  -1.216  24.675  0.00  0.00    +0.058 C 
ATOM     15  C   UNL     1      -1.745  -2.033  24.634  0.00  0.00    +0.099 C 
ATOM     16  C   UNL     1      -2.005  -0.696  24.754  0.00  0.00    +0.041 A 
ATOM     17  C   UNL     1      -2.233   0.093  24.829  0.00  0.00    +0.013 A 
ATOM     18  C   UNL     1      -3.033   0.287  24.884  0.00  0.00    +0.006 A 
ATOM     19  C   UNL     1      -3.604  -0.308  24.865  0.00  0.00    +0.061 A 
ATOM     20  C   UNL     1      -3.376  -1.097  24.790  0.00  0.00    +0.261 A 
ATOM     21  O   UNL     1      -4.055  -1.865  24.762  0.00  0.00    -0.267 OA
ATOM     22  N   UNL     1      -2.576  -1.291  24.735  0.00  0.00    -0.299 N 
ATOM     23  C   UNL     1      -1.911  -1.220  24.708  0.00  0.00    +0.110 C 
ENDROOT
BRANCH   8   5
ATOM      1  F   UNL     1      -4.624   0.727  24.685  0.00  0.00    -0.204 F 
ATOM      2  C   UNL     1      -4.294  -0.028  24.712  0.00  0.00    +0.140 A 
ATOM      3  C   UNL     1      -3.952  -0.182  25.431  0.00  0.00    +0.030 A 
ATOM      4  C   UNL     1      -3.588  -1.045  25.426  0.00  0.00    +0.007 A 
ATOM      5  C   UNL     1      -3.634  -1.539  24.767  0.00  0.00    +0.054 A 
ATOM      6  C   UNL     1      -4.008  -1.278  24.081  0.00  0.00    +0.007 A 
ATOM      7  C   UNL     1      -4.339  -0.522  24.053  0.00  0.00    +0.030 A 
ENDBRANCH   8   5
BRANCH  17  24
ATOM     24  C   UNL     1      -1.662   0.688  24.849  0.00  0.00    +0.020 A 
ATOM     25  C   UNL     1      -1.344   0.931  25.570  0.00  0.00    +0.003 A 
ATOM     26  C   UNL     1      -0.773   1.526  25.589  0.00  0.00    +0.021 A 
ATOM     27  C   UNL     1      -0.519   1.878  24.888  0.00  0.00    +0.099 A 
ATOM     28  N   UNL     1      -0.837   1.635  24.167  0.00  0.00    -0.242 NA
ATOM     29  C   UNL     1      -1.408   1.040  24.147  0.00  0.00    +0.099 A 
ENDBRANCH  17  24
TORSDOF 2
ENDMDL
MODEL 5
REMARK VINA RESULT:     -15.2      1.562      2.983
REMARK  Name = 
REMARK  2 active torsions:
REMARK  status: ('A' for Active; 'I' for Inactive)
REMARK    1  A    between atoms: C_5  and  C_8
REMARK    2  A    between atoms: C_17  and  C_24
REMARK                            x       y       z     vdW  Elec       q    Type
REMARK                         _______ _______ _______ _____ _____    ______ ____
ROOT
ATOM      8  C   UNL     1      -4.961   2.575  25.006  0.00  0.00    +0.249 C 
ATOM      9  O   UNL     1      -5.833   2.773  25.115  0.00  0.00    -0.270 OA
ATOM     10  N   UNL     1      -4.336   3.132  25.315  0.00  0.00    -0.276 N 
ATOM     11  C   UNL     1      -4.149   3.844  25.710  0.00  0.00    +0.096 C 
ATOM     12  C   UNL     1      -3.163   3.795  25.684  0.00  0.00    +0.043 C 
ATOM     13  C   UNL     1      -2.358   3.903  25.744  0.00  0.00    +0.011 C 
ATOM     14  C   UNL     1      -2.799   3.425  25.479  0.00  0.00    +0.058 C 
ATOM     15  C   UNL     1      -3.751   3.487  25.513  0.00  0.00    +0.099 C 
ATOM     16  C   UNL     1      -2.808   2.622  25.033  0.00  0.00    +0.041 A 
ATOM     17  C   UNL     1      -2.295   2.057  24.720  0.00  0.00    +0.013 A 
ATOM     18  C   UNL     1      -2.597   1.386  24.348  0.00  0.00    +0.006 A 
ATOM     19  C   UNL     1      -3.414   1.280  24.289  0.00  0.00    +0.061 A 
ATOM     20  C   UNL     1      -3.927   1.844  24.602  0.00  0.00    +0.261 A 
ATOM     21  O   UNL     1      -4.947   1.749  24.548  0.00  0.00    -0.267 OA
ATOM     22  N   UNL     1      -3.624   2.515  24.974  0.00  0.00    -0.299 N 
ATOM     23  C   UNL     1      -3.182   2.955  25.218  0.00  0.00    +0.110 C 
ENDROOT
BRANCH   8   5
ATOM      1  F   UNL     1      -3.174  -0.107  23.873  0.00  0.00    -0.204 F 
ATOM      2  C   UNL     1      -3.595   0.556  24.124  0.00  0.00    +0.140 A 
ATOM      3  C   UNL     1      -3.478   1.191  23.632  0.00  0.00    +0.030 A 
ATOM      4  C   UNL     1      -3.970   1.925  23.945  0.00  0.00    +0.007 A 
ATOM      5  C   UNL     1      -4.436   1.884  24.624  0.00  0.00    +0.054 A 
ATOM      6  C   UNL     1      -4.483   1.182  25.052  0.00  0.00    +0.007 A 
ATOM      7  C   UNL     1      -4.062   0.517  24.802  0.00  0.00    +0.030 A 
ENDBRANCH   8   5
BRANCH  17  24
ATOM     24  C   UNL     1      -1.478   2.163  24.780  0.00  0.00    +0.020 A 
ATOM     25  C   UNL     1      -1.070   1.862  25.430  0.00  0.00    +0.003 A 
ATOM     26  C   UNL     1      -0.253   1.969  25.489  0.00  0.00    +0.021 A 
ATOM     27  C   UNL     1       0.154   2.376  24.899  0.00  0.00    +0.099 A 
ATOM     28  N   UNL     1      -0.255   2.677  24.249  0.00  0.00    -0.242 NA
ATOM     29  C   UNL     1      -1.071   2.570  24.189  0.00  0.00    +0.099 A 
ENDBRANCH  17  24
TORSDOF 2
ENDMDL
MODEL 6
REMARK VINA RESULT:     -15.1      2.085      3.713
REMARK  Name = 
REMARK  2 active torsions:
REMARK  status: ('A' for Active; 'I' for Inactive)
REMARK    1  A    between atoms: C_5  and  C_8
REMARK    2  A    between atoms: C_17  and  C_24
REMARK                            x       y       z     vdW  Elec       q    Type
REMARK                         _______ _______ _______ _____ _____    ______ ____
ROOT
ATOM      8  C   UNL     1      -1.807  -1.801  24.915  0.00  0.00    +0.249 C 
ATOM      9  O   UNL     1      -1.339  -2.553  25.081  0.00  0.00    -0.270 OA
ATOM     10  N   UNL     1      -1.383  -1.021  24.826  0.00  0.00    -0.276 N 
ATOM     11  C   UNL     1      -0.661  -0.601  24.824  0.00  0.00    +0.096 C 
ATOM     12  C   UNL     1      -1.001   0.310  24.643  0.00  0.00    +0.043 C 
ATOM     13  C   UNL     1      -1.117   1.104  24.503  0.00  0.00    +0.011 C 
ATOM     14  C   UNL     1      -1.509   0.524  24.562  0.00  0.00    +0.058 C 
ATOM     15  C   UNL     1      -1.165  -0.349  24.736  0.00  0.00    +0.099 C 
ATOM     16  C   UNL     1      -2.382   0.238  24.528  0.00  0.00    +0.041 A 
ATOM     17  C   UNL     1      -3.146   0.526  24.411  0.00  0.00    +0.013 A 
ATOM     18  C   UNL     1      -3.789   0.010  24.437  0.00  0.00    +0.006 A 
ATOM     19  C   UNL     1      -3.668  -0.794  24.579  0.00  0.00    +0.061 A 
ATOM     20  C   UNL     1      -2.904  -1.081  24.696  0.00  0.00    +0.261 A 
ATOM     21  O   UNL     1      -2.712  -2.073  24.876  0.00  0.00    -0.267 OA
ATOM     22  N   UNL     1      -2.261  -0.565  24.671  0.00  0.00    -0.299 N 
ATOM     23  C   UNL     1      -1.910   0.002  24.610  0.00  0.00    +0.110 C 
ENDROOT
BRANCH   8   5
ATOM      1  F   UNL     1      -5.056  -1.044  24.178  0.00  0.00    -0.204 F 
ATOM      2  C   UNL     1      -4.275  -1.212  24.381  0.00  0.00    +0.140 A 
ATOM      3  C   UNL     1      -4.075  -0.891  25.099  0.00  0.00    +0.030 A 
ATOM      4  C   UNL     1      -3.184  -1.100  25.298  0.00  0.00    +0.007 A 
ATOM      5  C   UNL     1      -2.712  -1.546  24.790  0.00  0.00    +0.054 A 
ATOM      6  C   UNL     1      -3.021  -1.826  24.078  0.00  0.00    +0.007 A 
ATOM      7  C   UNL     1      -3.803  -1.658  23.874  0.00  0.00    +0.030 A 
ENDBRANCH   8   5
BRANCH  17  24
ATOM     24  C   UNL     1      -3.267   1.330  24.269  0.00  0.00    +0.020 A 
ATOM     25  C   UNL     1      -3.258   1.617  23.496  0.00  0.00    +0.003 A 
ATOM     26  C   UNL     1      -3.380   2.421  23.353  0.00  0.00    +0.021 A 
ATOM     27  C   UNL     1      -3.509   2.937  23.983  0.00  0.00    +0.099 A 
ATOM     28  N   UNL     1      -3.518   2.649  24.756  0.00  0.00    -0.242 NA
ATOM     29  C   UNL     1      -3.397   1.846  24.899  0.00  0.00    +0.099 A 
ENDBRANCH  17  24
TORSDOF 2
ENDMDL
MODEL 7
REMARK VINA RESULT:     -15.0      2.382      4.195
REMARK  Name = 
REMARK  2 active torsions:
REMARK  status: ('A' for Active; 'I' for Inactive)
REMARK    1  A    between atoms: C_5  and  C_8
REMARK    2  A    between atoms: C_17  and  C_24
REMARK                            x       y       z     vdW  Elec       q    Type
REMARK                         _______ _______ _______ _____ _____    ______ ____
ROOT
ATOM      8  C   UNL     1      -1.979  -2.113  24.773  0.00  0.00    +0.249 C 
ATOM      9  O   UNL     1      -1.711  -2.973  24.783  0.00  0.00    -0.270 OA
ATOM     10  N   UNL     1      -2.811  -1.908  24.523  0.00  0.00    -0.276 N 
ATOM     11  C   UNL     1      -3.559  -2.169  24.258  0.00  0.00    +0.096 C 
ATOM     12  C   UNL     1      -4.022  -1.300  24.186  0.00  0.00    +0.043 C 
ATOM     13  C   UNL     1      -4.536  -0.677  24.075  0.00  0.00    +0.011 C 
ATOM     14  C   UNL     1      -3.872  -0.771  24.281  0.00  0.00    +0.058 C 
ATOM     15  C   UNL     1      -3.438  -1.620  24.346  0.00  0.00    +0.099 C 
ATOM     16  C   UNL     1      -3.131  -0.305  24.562  0.00  0.00    +0.041 A 
ATOM     17  C   UNL     1      -2.879   0.466  24.713  0.00  0.00    +0.013 A 
ATOM     18  C   UNL     1      -2.109   0.603  24.974  0.00  0.00    +0.006 A 
ATOM     19  C   UNL     1      -1.591  -0.029  25.085  0.00  0.00    +0.061 A 
ATOM     20  C   UNL     1      -1.843  -0.800  24.934  0.00  0.00    +0.261 A 
ATOM     21  O   UNL     1      -1.230  -1.613  25.060  0.00  0.00    -0.267 OA
ATOM     22  N   UNL     1      -2.614  -0.938  24.673  0.00  0.00    -0.299 N 
ATOM     23  C   UNL     1      -3.244  -0.821  24.480  0.00  0.00    +0.110 C 
ENDROOT
BRANCH   8   5
ATOM      1  F   UNL     1      -0.491   0.933  25.198  0.00  0.00    -0.204 F 
ATOM      2  C   UNL     1      -0.866   0.203  25.120  0.00  0.00    +0.140 A 
ATOM      3  C   UNL     1      -1.396   0.071  25.720  0.00  0.00    +0.030 A 
ATOM      4  C   UNL     1      -1.803  -0.765  25.601  0.00  0.00    +0.007 A 
ATOM      5  C   UNL     1      -1.617  -1.258  24.966  0.00  0.00    +0.054 A 
ATOM      6  C   UNL     1      -1.057  -1.022  24.409  0.00  0.00    +0.007 A 
ATOM      7  C   UNL     1      -0.682  -0.291  24.486  0.00  0.00    +0.030 A 
ENDBRANCH   8   5
BRANCH  17  24
ATOM     24  C   UNL     1      -3.397   1.099  24.602  0.00  0.00    +0.020 A 
ATOM     25  C   UNL     1      -3.402   1.506  23.885  0.00  0.00    +0.003 A 
ATOM     26  C   UNL     1      -3.920   2.139  23.774  0.00  0.00    +0.021 A 
ATOM     27  C   UNL     1      -4.432   2.364  24.380  0.00  0.00    +0.099 A 
ATOM     28  N   UNL     1      -4.427   1.956  25.097  0.00  0.00    -0.242 NA
ATOM     29  C   UNL     1      -3.909   1.323  25.208  0.00  0.00    +0.099 A 
ENDBRANCH  17  24
TORSDOF 2
ENDMDL
