MODEL 1
REMARK VINA RESULT:     -13.9      0.000      0.000
REMARK  Name = 
REMARK  6 active torsions:
REMARK  status: ('A' for Active; 'I' for Inactive)
REMARK    1  A    between atoms: N_2  and  C_3
REMARK    2  A    between atoms: C_3  and  C_4
REMARK    3  A    between atoms: C_6  and  C_8
REMARK    4  A    between atoms: C_8  and  C_9
REMARK    5  A    between atoms: C_14  and  C_16
REMARK    6  A    between atoms: C_27  and  C_29
REMARK                            x       y       z     vdW  Elec       q    Type
REMARK                         _______ _______ _______ _____ _____    ______ ____
ROOT
ATOM      9  C   UNL     1      -2.889   2.706  25.275  0.00  0.00    +0.050 C 
ATOM     10  C   UNL     1      -2.636   1.966  25.009  0.00  0.00    +0.063 A 
ATOM     11  C   UNL     1      -1.884   1.883  24.680  0.00  0.00    +0.023 A 
ATOM     12  C   UNL     1      -1.387   2.537  24.615  0.00  0.00    +0.034 C 
ATOM     13  C   UNL     1      -1.640   3.276  24.880  0.00  0.00    +0.010 C 
ATOM     14  C   UNL     1      -1.142   3.930  24.816  0.00  0.00    +0.059 C 
ATOM     15  C   UNL     1      -0.657   3.349  24.489  0.00  0.00    +0.005 C 
ATOM     18  C   UNL     1      -1.396   4.669  25.081  0.00  0.00    +0.154 C 
ATOM     19  O   UNL     1      -0.897   5.324  25.016  0.00  0.00    -0.223 OA
ATOM     20  C   UNL     1      -2.147   4.754  25.411  0.00  0.00    +0.033 C 
ATOM     21  C   UNL     1      -2.645   4.099  25.475  0.00  0.00    +0.003 C 
ATOM     22  C   UNL     1      -2.392   3.360  25.210  0.00  0.00    +0.006 C 
ATOM     23  C   UNL     1      -3.143   3.444  25.540  0.00  0.00    +0.000 C 
ATOM     24  S   UNL     1      -1.787   1.091  24.468  0.00  0.00    -0.054 S 
ATOM     25  C   UNL     1      -2.477   0.686  24.666  0.00  0.00    +0.185 A 
ATOM     26  N   UNL     1      -2.619  -0.118  24.551  0.00  0.00    -0.150 NA
ATOM     27  C   UNL     1      -3.339  -0.447  24.778  0.00  0.00    +0.275 C 
ATOM     28  O   UNL     1      -3.920   0.028  25.122  0.00  0.00    -0.268 OA
ATOM     37  N   UNL     1      -3.002   1.228  25.001  0.00  0.00    -0.227 NA
ENDROOT
BRANCH  27  29
ATOM     29  C   UNL     1      -3.481  -1.252  24.662  0.00  0.00    +0.110 A 
ATOM     30  C   UNL     1      -3.230  -1.801  25.224  0.00  0.00    +0.147 A 
ATOM     31  F   UNL     1      -2.836  -1.545  25.903  0.00  0.00    -0.204 F 
ATOM     32  C   UNL     1      -3.372  -2.605  25.109  0.00  0.00    +0.030 A 
ATOM     33  C   UNL     1      -3.765  -2.861  24.430  0.00  0.00    +0.005 A 
ATOM     34  C   UNL     1      -4.017  -2.312  23.867  0.00  0.00    +0.030 A 
ATOM     35  C   UNL     1      -3.875  -1.508  23.984  0.00  0.00    +0.147 A 
ATOM     36  F   UNL     1      -4.126  -0.959  23.421  0.00  0.00    -0.204 F 
ENDBRANCH  27  29
BRANCH  14  16
ATOM     16  C   UNL     1      -0.475   4.383  24.638  0.00  0.00    +0.184 C 
ATOM     17  O   UNL     1       0.065   4.116  24.073  0.00  0.00    -0.220 OA
ENDBRANCH  14  16
BRANCH   9   8
ATOM      8  C   UNL     1      -3.641   2.790  25.604  0.00  0.00    +0.091 C 
BRANCH   8   6
ATOM      1  C   UNL     1      -5.138   2.571  26.262  0.00  0.00    +0.115 C 
ATOM      2  N   UNL     1      -5.056   2.670  25.447  0.00  0.00    -0.274 N 
ATOM      6  C   UNL     1      -4.308   2.780  25.118  0.00  0.00    +0.226 C 
ATOM      7  O   UNL     1      -4.225   2.879  24.304  0.00  0.00    -0.275 OA
BRANCH   2   3
ATOM      3  C   UNL     1      -5.723   2.660  24.960  0.00  0.00    +0.120 C 
BRANCH   3   4
ATOM      4  C   UNL     1      -6.392   2.235  25.187  0.00  0.00    -0.005 C 
ATOM      5  C   UNL     1      -6.847   1.847  24.618  0.00  0.00    -0.003 C 
ENDBRANCH   3   4
ENDBRANCH   2   3
ENDBRANCH   8   6
ENDBRANCH   9   8
TORSDOF 6
ENDMDL
MODEL 2
REMARK VINA RESULT:     -13.6      1.768      4.917
REMARK  Name = 
REMARK  6 active torsions:
REMARK  status: ('A' for Active; 'I' for Inactive)
REMARK    1  A    between atoms: N_2  and  C_3
REMARK    2  A    between atoms: C_3  and  C_4
REMARK    3  A    between atoms: C_6  and  C_8
REMARK    4  A    between atoms: C_8  and  C_9
REMARK    5  A    between atoms: C_14  and  C_16
REMARK    6  A    between atoms: C_27  and  C_29
REMARK                            x       y       z     vdW  Elec       q    Type
REMARK                         _______ _______ _______ _____ _____    ______ ____
ROOT
ATOM      9  C   UNL     1      -3.465   0.044  24.438  0.00  0.00    +0.050 C 
ATOM     10  C   UNL     1      -2.776   0.482  24.565  0.00  0.00    +0.063 A 
ATOM     11  C   UNL     1      -2.058   0.094  24.685  0.00  0.00    +0.023 A 
ATOM     12  C   UNL     1      -2.028  -0.730  24.678  0.00  0.00    +0.034 C 
ATOM     13  C   UNL     1      -2.716  -1.167  24.551  0.00  0.00    +0.010 C 
ATOM     14  C   UNL     1      -2.685  -1.992  24.544  0.00  0.00    +0.059 C 
ATOM     15  C   UNL     1      -1.891  -1.821  24.686  0.00  0.00    +0.005 C 
ATOM     18  C   UNL     1      -3.374  -2.428  24.416  0.00  0.00    +0.154 C 
ATOM     19  O   UNL     1      -3.344  -3.254  24.409  0.00  0.00    -0.223 OA
ATOM     20  C   UNL     1      -4.092  -2.041  24.296  0.00  0.00    +0.033 C 
ATOM     21  C   UNL     1      -4.122  -1.217  24.303  0.00  0.00    +0.003 C 
ATOM     22  C   UNL     1      -3.435  -0.779  24.430  0.00  0.00    +0.006 C 
ATOM     23  C   UNL     1      -4.152  -0.392  24.310  0.00  0.00    +0.000 C 
ATOM     24  S   UNL     1      -1.475   0.668  24.797  0.00  0.00    -0.054 S 
ATOM     25  C   UNL     1      -1.833   1.408  24.745  0.00  0.00    +0.185 A 
ATOM     26  N   UNL     1      -1.453   2.137  24.823  0.00  0.00    -0.150 NA
ATOM     27  C   UNL     1      -1.885   2.836  24.758  0.00  0.00    +0.275 C 
ATOM     28  O   UNL     1      -2.697   2.808  24.615  0.00  0.00    -0.268 OA
ATOM     37  N   UNL     1      -2.638   1.294  24.602  0.00  0.00    -0.227 NA
ENDROOT
BRANCH  27  29
ATOM     29  C   UNL     1      -1.506   3.565  24.835  0.00  0.00    +0.110 A 
ATOM     30  C   UNL     1      -0.898   3.772  24.318  0.00  0.00    +0.147 A 
ATOM     31  F   UNL     1      -0.669   3.250  23.722  0.00  0.00    -0.204 F 
ATOM     32  C   UNL     1      -0.519   4.501  24.396  0.00  0.00    +0.030 A 
ATOM     33  C   UNL     1      -0.748   5.023  24.992  0.00  0.00    +0.005 A 
ATOM     34  C   UNL     1      -1.357   4.816  25.510  0.00  0.00    +0.030 A 
ATOM     35  C   UNL     1      -1.735   4.087  25.431  0.00  0.00    +0.147 A 
ATOM     36  F   UNL     1      -2.344   3.881  25.950  0.00  0.00    -0.204 F 
ENDBRANCH  27  29
BRANCH  14  16
ATOM     16  C   UNL     1      -2.379  -2.756  24.586  0.00  0.00    +0.184 C 
ATOM     17  O   UNL     1      -1.563  -2.872  24.617  0.00  0.00    -0.220 OA
ENDBRANCH  14  16
BRANCH   9   8
ATOM      8  C   UNL     1      -4.183   0.432  24.317  0.00  0.00    +0.091 C 
BRANCH   8   6
ATOM      1  C   UNL     1      -5.319   1.607  24.087  0.00  0.00    +0.115 C 
ATOM      2  N   UNL     1      -5.169   1.320  24.846  0.00  0.00    -0.274 N 
ATOM      6  C   UNL     1      -4.601   0.733  24.962  0.00  0.00    +0.226 C 
ATOM      7  O   UNL     1      -4.452   0.448  25.720  0.00  0.00    -0.275 OA
BRANCH   2   3
ATOM      3  C   UNL     1      -5.588   1.622  25.491  0.00  0.00    +0.120 C 
BRANCH   3   4
ATOM      4  C   UNL     1      -5.959   2.356  25.434  0.00  0.00    -0.005 C 
ATOM      5  C   UNL     1      -6.128   2.786  26.118  0.00  0.00    -0.003 C 
ENDBRANCH   3   4
ENDBRANCH   2   3
ENDBRANCH   8   6
ENDBRANCH   9   8
TORSDOF 6
ENDMDL
MODEL 3
REMARK VINA RESULT:     -13.0      1.618      3.245
REMARK  Name = 
REMARK  6 active torsions:
REMARK  status: ('A' for Active; 'I' for Inactive)
REMARK    1  A    between atoms: N_2  and  C_3
REMARK    2  A    between atoms: C_3  and  C_4
REMARK    3  A    between atoms: C_6  and  C_8
REMARK    4  A    between atoms: C_8  and  C_9
REMARK    5  A    between atoms: C_14  and  C_16
REMARK    6  A    between atoms: C_27  and  C_29
REMARK                            x       y       z     vdW  Elec       q    Type
REMARK                         _______ _______ _______ _____ _____    ______ ____
ROOT
ATOM      9  C   UNL     1      -3.623   2.192  24.428  0.00  0.00    +0.050 C 
ATOM     10  C   UNL     1      -3.961   1.466  24.631  0.00  0.00    +0.063 A 
ATOM     11  C   UNL     1      -4.672   1.447  25.049  0.00  0.00    +0.023 A 
ATOM     12  C   UNL     1      -5.045   2.150  25.263  0.00  0.00    +0.034 C 
ATOM     13  C   UNL     1      -4.707   2.874  25.060  0.00  0.00    +0.010 C 
ATOM     14  C   UNL     1      -5.080   3.578  25.274  0.00  0.00    +0.059 C 
ATOM     15  C   UNL     1      -5.612   3.033  25.590  0.00  0.00    +0.005 C 
ATOM     18  C   UNL     1      -4.742   4.303  25.070  0.00  0.00    +0.154 C 
ATOM     19  O   UNL     1      -5.115   5.008  25.285  0.00  0.00    -0.223 OA
ATOM     20  C   UNL     1      -4.031   4.323  24.653  0.00  0.00    +0.033 C 
ATOM     21  C   UNL     1      -3.658   3.619  24.439  0.00  0.00    +0.003 C 
ATOM     22  C   UNL     1      -3.996   2.895  24.642  0.00  0.00    +0.006 C 
ATOM     23  C   UNL     1      -3.285   2.915  24.224  0.00  0.00    +0.000 C 
ATOM     24  S   UNL     1      -4.872   0.655  25.172  0.00  0.00    -0.054 S 
ATOM     25  C   UNL     1      -4.286   0.187  24.831  0.00  0.00    +0.185 A 
ATOM     26  N   UNL     1      -4.265  -0.638  24.824  0.00  0.00    -0.150 NA
ATOM     27  C   UNL     1      -3.640  -1.032  24.460  0.00  0.00    +0.275 C 
ATOM     28  O   UNL     1      -3.034  -0.602  24.101  0.00  0.00    -0.268 OA
ATOM     37  N   UNL     1      -3.722   0.689  24.496  0.00  0.00    -0.227 NA
ENDROOT
BRANCH  27  29
ATOM     29  C   UNL     1      -3.619  -1.857  24.453  0.00  0.00    +0.110 A 
ATOM     30  C   UNL     1      -3.223  -2.265  25.050  0.00  0.00    +0.147 A 
ATOM     31  F   UNL     1      -2.846  -1.848  25.654  0.00  0.00    -0.204 F 
ATOM     32  C   UNL     1      -3.202  -3.090  25.044  0.00  0.00    +0.030 A 
ATOM     33  C   UNL     1      -3.578  -3.507  24.439  0.00  0.00    +0.005 A 
ATOM     34  C   UNL     1      -3.975  -3.098  23.841  0.00  0.00    +0.030 A 
ATOM     35  C   UNL     1      -3.995  -2.274  23.849  0.00  0.00    +0.147 A 
ATOM     36  F   UNL     1      -4.392  -1.866  23.251  0.00  0.00    -0.204 F 
ENDBRANCH  27  29
BRANCH  14  16
ATOM     16  C   UNL     1      -5.638   4.093  25.598  0.00  0.00    +0.184 C 
ATOM     17  O   UNL     1      -6.311   3.791  25.968  0.00  0.00    -0.220 OA
ENDBRANCH  14  16
BRANCH   9   8
ATOM      8  C   UNL     1      -2.912   2.211  24.010  0.00  0.00    +0.091 C 
BRANCH   8   6
ATOM      1  C   UNL     1      -1.516   1.975  23.163  0.00  0.00    +0.115 C 
ATOM      2  N   UNL     1      -1.498   2.004  23.987  0.00  0.00    -0.274 N 
ATOM      6  C   UNL     1      -2.196   2.122  24.411  0.00  0.00    +0.226 C 
ATOM      7  O   UNL     1      -2.178   2.150  25.235  0.00  0.00    -0.275 OA
BRANCH   2   3
ATOM      3  C   UNL     1      -0.782   1.914  24.388  0.00  0.00    +0.120 C 
BRANCH   3   4
ATOM      4  C   UNL     1      -0.109   1.669  23.979  0.00  0.00    -0.005 C 
ATOM      5  C   UNL     1       0.629   1.695  24.347  0.00  0.00    -0.003 C 
ENDBRANCH   3   4
ENDBRANCH   2   3
ENDBRANCH   8   6
ENDBRANCH   9   8
TORSDOF 6
ENDMDL
MODEL 4
REMARK VINA RESULT:     -12.6      1.561      3.217
REMARK  Name = 
REMARK  6 active torsions:
REMARK  status: ('A' for Active; 'I' for Inactive)
REMARK    1  A    between atoms: N_2  and  C_3
REMARK    2  A    between atoms: C_3  and  C_4
REMARK    3  A    between atoms: C_6  and  C_8
REMARK    4  A    between atoms: C_8  and  C_9
REMARK    5  A    between atoms: C_14  and  C_16
REMARK    6  A    between atoms: C_27  and  C_29
REMARK                            x       y       z     vdW  Elec       q    Type
REMARK                         _______ _______ _______ _____ _____    ______ ____
ROOT
ATOM      9  C   UNL     1      -1.405   2.000  24.873  0.00  0.00    +0.050 C 
ATOM     10  C   UNL     1      -2.105   1.561  24.857  0.00  0.00    +0.063 A 
ATOM     11  C   UNL     1      -2.829   1.937  24.975  0.00  0.00    +0.023 A 
ATOM     12  C   UNL     1      -2.855   2.750  25.108  0.00  0.00    +0.034 C 
ATOM     13  C   UNL     1      -2.157   3.189  25.123  0.00  0.00    +0.010 C 
ATOM     14  C   UNL     1      -2.183   4.002  25.256  0.00  0.00    +0.059 C 
ATOM     15  C   UNL     1      -2.988   3.826  25.291  0.00  0.00    +0.005 C 
ATOM     18  C   UNL     1      -1.484   4.440  25.272  0.00  0.00    +0.154 C 
ATOM     19  O   UNL     1      -1.510   5.255  25.405  0.00  0.00    -0.223 OA
ATOM     20  C   UNL     1      -0.759   4.065  25.154  0.00  0.00    +0.033 C 
ATOM     21  C   UNL     1      -0.733   3.251  25.021  0.00  0.00    +0.003 C 
ATOM     22  C   UNL     1      -1.431   2.812  25.006  0.00  0.00    +0.006 C 
ATOM     23  C   UNL     1      -0.707   2.437  24.889  0.00  0.00    +0.000 C 
ATOM     24  S   UNL     1      -3.423   1.365  24.929  0.00  0.00    -0.054 S 
ATOM     25  C   UNL     1      -3.065   0.637  24.784  0.00  0.00    +0.185 A 
ATOM     26  N   UNL     1      -3.453  -0.087  24.698  0.00  0.00    -0.150 NA
ATOM     27  C   UNL     1      -3.019  -0.773  24.554  0.00  0.00    +0.275 C 
ATOM     28  O   UNL     1      -2.197  -0.737  24.495  0.00  0.00    -0.268 OA
ATOM     37  N   UNL     1      -2.249   0.757  24.740  0.00  0.00    -0.227 NA
ENDROOT
BRANCH  27  29
ATOM     29  C   UNL     1      -3.407  -1.496  24.468  0.00  0.00    +0.110 A 
ATOM     30  C   UNL     1      -3.872  -1.639  23.803  0.00  0.00    +0.147 A 
ATOM     31  F   UNL     1      -3.950  -1.058  23.222  0.00  0.00    -0.204 F 
ATOM     32  C   UNL     1      -4.260  -2.362  23.717  0.00  0.00    +0.030 A 
ATOM     33  C   UNL     1      -4.182  -2.943  24.298  0.00  0.00    +0.005 A 
ATOM     34  C   UNL     1      -3.716  -2.800  24.965  0.00  0.00    +0.030 A 
ATOM     35  C   UNL     1      -3.329  -2.077  25.049  0.00  0.00    +0.147 A 
ATOM     36  F   UNL     1      -2.863  -1.934  25.716  0.00  0.00    -0.204 F 
ENDBRANCH  27  29
BRANCH  14  16
ATOM     16  C   UNL     1      -2.489   4.755  25.401  0.00  0.00    +0.184 C 
ATOM     17  O   UNL     1      -3.220   4.837  25.775  0.00  0.00    -0.220 OA
ENDBRANCH  14  16
BRANCH   9   8
ATOM      8  C   UNL     1      -0.681   1.623  24.756  0.00  0.00    +0.091 C 
BRANCH   8   6
ATOM      1  C   UNL     1       0.575   0.574  24.547  0.00  0.00    +0.115 C 
ATOM      2  N   UNL     1       0.178   0.877  23.891  0.00  0.00    -0.274 N 
ATOM      6  C   UNL     1      -0.450   1.402  23.994  0.00  0.00    +0.226 C 
ATOM      7  O   UNL     1      -0.847   1.705  23.339  0.00  0.00    -0.275 OA
BRANCH   2   3
ATOM      3  C   UNL     1       0.409   0.655  23.130  0.00  0.00    +0.120 C 
BRANCH   3   4
ATOM      4  C   UNL     1       0.926   0.021  23.025  0.00  0.00    -0.005 C 
ATOM      5  C   UNL     1       1.267  -0.114  22.285  0.00  0.00    -0.003 C 
ENDBRANCH   3   4
ENDBRANCH   2   3
ENDBRANCH   8   6
ENDBRANCH   9   8
TORSDOF 6
ENDMDL
MODEL 5
REMARK VINA RESULT:     -12.4      2.101      5.389
REMARK  Name = 
REMARK  6 active torsions:
REMARK  status: ('A' for Active; 'I' for Inactive)
REMARK    1  A    between atoms: N_2  and  C_3
REMARK    2  A    between atoms: C_3  and  C_4
REMARK    3  A    between atoms: C_6  and  C_8
REMARK    4  A    between atoms: C_8  and  C_9
REMARK    5  A    between atoms: C_14  and  C_16
REMARK    6  A    between atoms: C_27  and  C_29
REMARK                            x       y       z     vdW  Elec       q    Type
REMARK                         _______ _______ _______ _____ _____    ______ ____
ROOT
ATOM      9  C   UNL     1      -2.598  -0.324  24.985  0.00  0.00    +0.050 C 
ATOM     10  C   UNL     1      -3.290   0.117  24.893  0.00  0.00    +0.063 A 
ATOM     11  C   UNL     1      -3.977  -0.246  24.617  0.00  0.00    +0.023 A 
ATOM     12  C   UNL     1      -3.973  -1.049  24.432  0.00  0.00    +0.034 C 
ATOM     13  C   UNL     1      -3.283  -1.491  24.523  0.00  0.00    +0.010 C 
ATOM     14  C   UNL     1      -3.279  -2.295  24.339  0.00  0.00    +0.059 C 
ATOM     15  C   UNL     1      -4.063  -2.111  24.162  0.00  0.00    +0.005 C 
ATOM     18  C   UNL     1      -2.587  -2.735  24.430  0.00  0.00    +0.154 C 
ATOM     19  O   UNL     1      -2.584  -3.540  24.245  0.00  0.00    -0.223 OA
ATOM     20  C   UNL     1      -1.900  -2.373  24.706  0.00  0.00    +0.033 C 
ATOM     21  C   UNL     1      -1.904  -1.569  24.891  0.00  0.00    +0.003 C 
ATOM     22  C   UNL     1      -2.595  -1.127  24.800  0.00  0.00    +0.006 C 
ATOM     23  C   UNL     1      -1.908  -0.765  25.076  0.00  0.00    +0.000 C 
ATOM     24  S   UNL     1      -4.571   0.326  24.583  0.00  0.00    -0.054 S 
ATOM     25  C   UNL     1      -4.251   1.042  24.838  0.00  0.00    +0.185 A 
ATOM     26  N   UNL     1      -4.652   1.761  24.892  0.00  0.00    -0.150 NA
ATOM     27  C   UNL     1      -4.257   2.435  25.158  0.00  0.00    +0.275 C 
ATOM     28  O   UNL     1      -3.462   2.389  25.370  0.00  0.00    -0.268 OA
ATOM     37  N   UNL     1      -3.459   0.913  25.030  0.00  0.00    -0.227 NA
ENDROOT
BRANCH  27  29
ATOM     29  C   UNL     1      -4.658   3.154  25.212  0.00  0.00    +0.110 A 
ATOM     30  C   UNL     1      -5.233   3.264  25.792  0.00  0.00    +0.147 A 
ATOM     31  F   UNL     1      -5.409   2.654  26.319  0.00  0.00    -0.204 F 
ATOM     32  C   UNL     1      -5.634   3.983  25.847  0.00  0.00    +0.030 A 
ATOM     33  C   UNL     1      -5.459   4.593  25.319  0.00  0.00    +0.005 A 
ATOM     34  C   UNL     1      -4.882   4.483  24.738  0.00  0.00    +0.030 A 
ATOM     35  C   UNL     1      -4.483   3.764  24.685  0.00  0.00    +0.147 A 
ATOM     36  F   UNL     1      -3.906   3.655  24.104  0.00  0.00    -0.204 F 
ENDBRANCH  27  29
BRANCH  14  16
ATOM     16  C   UNL     1      -3.548  -3.035  24.092  0.00  0.00    +0.184 C 
ATOM     17  O   UNL     1      -4.311  -3.116  23.789  0.00  0.00    -0.220 OA
ENDBRANCH  14  16
BRANCH   9   8
ATOM      8  C   UNL     1      -1.911   0.039  25.261  0.00  0.00    +0.091 C 
BRANCH   8   6
ATOM      1  C   UNL     1      -0.720   1.012  25.858  0.00  0.00    +0.115 C 
ATOM      2  N   UNL     1      -0.849   0.969  25.044  0.00  0.00    -0.274 N 
ATOM      6  C   UNL     1      -1.444   0.483  24.745  0.00  0.00    +0.226 C 
ATOM      7  O   UNL     1      -1.572   0.440  23.932  0.00  0.00    -0.275 OA
BRANCH   2   3
ATOM      3  C   UNL     1      -0.381   1.413  24.528  0.00  0.00    +0.120 C 
BRANCH   3   4
ATOM      4  C   UNL     1       0.072   2.039  24.818  0.00  0.00    -0.005 C 
ATOM      5  C   UNL     1       0.439   2.560  24.293  0.00  0.00    -0.003 C 
ENDBRANCH   3   4
ENDBRANCH   2   3
ENDBRANCH   8   6
ENDBRANCH   9   8
TORSDOF 6
ENDMDL
MODEL 6
REMARK VINA RESULT:     -12.2      2.139      4.068
REMARK  Name = 
REMARK  6 active torsions:
REMARK  status: ('A' for Active; 'I' for Inactive)
REMARK    1  A    between atoms: N_2  and  C_3
REMARK    2  A    between atoms: C_3  and  C_4
REMARK    3  A    between atoms: C_6  and  C_8
REMARK    4  A    between atoms: C_8  and  C_9
REMARK    5  A    between atoms: C_14  and  C_16
REMARK    6  A    between atoms: C_27  and  C_29
REMARK                            x       y       z     vdW  Elec       q    Type
REMARK                         _______ _______ _______ _____ _____    ______ ____
ROOT
ATOM      9  C   UNL     1      -3.473   0.926  24.898  0.00  0.00    +0.050 C 
ATOM     10  C   UNL     1      -2.788   1.228  24.550  0.00  0.00    +0.063 A 
ATOM     11  C   UNL     1      -2.757   2.021  24.325  0.00  0.00    +0.023 A 
ATOM     12  C   UNL     1      -3.408   2.511  24.447  0.00  0.00    +0.034 C 
ATOM     13  C   UNL     1      -4.093   2.209  24.794  0.00  0.00    +0.010 C 
ATOM     14  C   UNL     1      -4.745   2.699  24.916  0.00  0.00    +0.059 C 
ATOM     15  C   UNL     1      -4.225   3.237  24.569  0.00  0.00    +0.005 C 
ATOM     18  C   UNL     1      -5.429   2.396  25.264  0.00  0.00    +0.154 C 
ATOM     19  O   UNL     1      -6.082   2.887  25.386  0.00  0.00    -0.223 OA
ATOM     20  C   UNL     1      -5.461   1.604  25.490  0.00  0.00    +0.033 C 
ATOM     21  C   UNL     1      -4.809   1.114  25.368  0.00  0.00    +0.003 C 
ATOM     22  C   UNL     1      -4.125   1.416  25.020  0.00  0.00    +0.006 C 
ATOM     23  C   UNL     1      -4.157   0.623  25.246  0.00  0.00    +0.000 C 
ATOM     24  S   UNL     1      -2.012   2.162  23.997  0.00  0.00    -0.054 S 
ATOM     25  C   UNL     1      -1.585   1.458  24.020  0.00  0.00    +0.185 A 
ATOM     26  N   UNL     1      -0.813   1.349  23.749  0.00  0.00    -0.150 NA
ATOM     27  C   UNL     1      -0.456   0.609  23.809  0.00  0.00    +0.275 C 
ATOM     28  O   UNL     1      -0.869  -0.024  24.140  0.00  0.00    -0.268 OA
ATOM     37  N   UNL     1      -2.065   0.880  24.362  0.00  0.00    -0.227 NA
ENDROOT
BRANCH  27  29
ATOM     29  C   UNL     1       0.316   0.500  23.538  0.00  0.00    +0.110 A 
ATOM     30  C   UNL     1       0.925   0.978  23.821  0.00  0.00    +0.147 A 
ATOM     31  F   UNL     1       0.763   1.566  24.377  0.00  0.00    -0.204 F 
ATOM     32  C   UNL     1       1.697   0.868  23.550  0.00  0.00    +0.030 A 
ATOM     33  C   UNL     1       1.859   0.280  22.995  0.00  0.00    +0.005 A 
ATOM     34  C   UNL     1       1.249  -0.199  22.711  0.00  0.00    +0.030 A 
ATOM     35  C   UNL     1       0.478  -0.088  22.982  0.00  0.00    +0.147 A 
ATOM     36  F   UNL     1      -0.131  -0.567  22.698  0.00  0.00    -0.204 F 
ENDBRANCH  27  29
BRANCH  14  16
ATOM     16  C   UNL     1      -5.216   3.376  24.918  0.00  0.00    +0.184 C 
ATOM     17  O   UNL     1      -4.865   4.123  24.891  0.00  0.00    -0.220 OA
ENDBRANCH  14  16
BRANCH   9   8
ATOM      8  C   UNL     1      -3.505   0.133  25.124  0.00  0.00    +0.091 C 
BRANCH   8   6
ATOM      1  C   UNL     1      -3.398  -1.463  25.530  0.00  0.00    +0.115 C 
ATOM      2  N   UNL     1      -3.627  -1.245  24.768  0.00  0.00    -0.274 N 
ATOM      6  C   UNL     1      -3.681  -0.448  24.564  0.00  0.00    +0.226 C 
ATOM      7  O   UNL     1      -3.910  -0.231  23.803  0.00  0.00    -0.275 OA
BRANCH   2   3
ATOM      3  C   UNL     1      -3.803  -1.826  24.208  0.00  0.00    +0.120 C 
BRANCH   3   4
ATOM      4  C   UNL     1      -3.653  -2.620  24.377  0.00  0.00    -0.005 C 
ATOM      5  C   UNL     1      -3.898  -3.207  23.850  0.00  0.00    -0.003 C 
ENDBRANCH   3   4
ENDBRANCH   2   3
ENDBRANCH   8   6
ENDBRANCH   9   8
TORSDOF 6
ENDMDL
MODEL 7
REMARK VINA RESULT:     -11.4      2.318      5.846
REMARK  Name = 
REMARK  6 active torsions:
REMARK  status: ('A' for Active; 'I' for Inactive)
REMARK    1  A    between atoms: N_2  and  C_3
REMARK    2  A    between atoms: C_3  and  C_4
REMARK    3  A    between atoms: C_6  and  C_8
REMARK    4  A    between atoms: C_8  and  C_9
REMARK    5  A    between atoms: C_14  and  C_16
REMARK    6  A    between atoms: C_27  and  C_29
REMARK                            x       y       z     vdW  Elec       q    Type
REMARK                         _______ _______ _______ _____ _____    ______ ____
ROOT
ATOM      9  C   UNL     1      -1.746  -0.445  24.549  0.00  0.00    +0.050 C 
ATOM     10  C   UNL     1      -2.091   0.300  24.628  0.00  0.00    +0.063 A 
ATOM     11  C   UNL     1      -2.912   0.375  24.636  0.00  0.00    +0.023 A 
ATOM     12  C   UNL     1      -3.389  -0.293  24.564  0.00  0.00    +0.034 C 
ATOM     13  C   UNL     1      -3.044  -1.039  24.485  0.00  0.00    +0.010 C 
ATOM     14  C   UNL     1      -3.521  -1.708  24.413  0.00  0.00    +0.059 C 
ATOM     15  C   UNL     1      -4.101  -1.126  24.475  0.00  0.00    +0.005 C 
ATOM     18  C   UNL     1      -3.175  -2.453  24.333  0.00  0.00    +0.154 C 
ATOM     19  O   UNL     1      -3.653  -3.124  24.261  0.00  0.00    -0.223 OA
ATOM     20  C   UNL     1      -2.355  -2.529  24.325  0.00  0.00    +0.033 C 
ATOM     21  C   UNL     1      -1.878  -1.860  24.397  0.00  0.00    +0.003 C 
ATOM     22  C   UNL     1      -2.222  -1.114  24.477  0.00  0.00    +0.006 C 
ATOM     23  C   UNL     1      -1.401  -1.190  24.469  0.00  0.00    +0.000 C 
ATOM     24  S   UNL     1      -3.093   1.176  24.722  0.00  0.00    -0.054 S 
ATOM     25  C   UNL     1      -2.385   1.595  24.767  0.00  0.00    +0.185 A 
ATOM     26  N   UNL     1      -2.308   2.412  24.855  0.00  0.00    -0.150 NA
ATOM     27  C   UNL     1      -1.559   2.755  24.892  0.00  0.00    +0.275 C 
ATOM     28  O   UNL     1      -0.886   2.281  24.841  0.00  0.00    -0.268 OA
ATOM     37  N   UNL     1      -1.764   1.054  24.709  0.00  0.00    -0.227 NA
ENDROOT
BRANCH  27  29
ATOM     29  C   UNL     1      -1.483   3.572  24.979  0.00  0.00    +0.110 A 
ATOM     30  C   UNL     1      -1.866   3.959  25.598  0.00  0.00    +0.147 A 
ATOM     31  F   UNL     1      -2.327   3.529  26.130  0.00  0.00    -0.204 F 
ATOM     32  C   UNL     1      -1.789   4.776  25.686  0.00  0.00    +0.030 A 
ATOM     33  C   UNL     1      -1.328   5.205  25.153  0.00  0.00    +0.005 A 
ATOM     34  C   UNL     1      -0.944   4.818  24.533  0.00  0.00    +0.030 A 
ATOM     35  C   UNL     1      -1.021   4.002  24.447  0.00  0.00    +0.147 A 
ATOM     36  F   UNL     1      -0.637   3.614  23.827  0.00  0.00    -0.204 F 
ENDBRANCH  27  29
BRANCH  14  16
ATOM     16  C   UNL     1      -4.199  -2.175  24.362  0.00  0.00    +0.184 C 
ATOM     17  O   UNL     1      -4.873  -1.884  23.985  0.00  0.00    -0.220 OA
ENDBRANCH  14  16
BRANCH   9   8
ATOM      8  C   UNL     1      -0.925  -0.520  24.541  0.00  0.00    +0.091 C 
BRANCH   8   6
ATOM      1  C   UNL     1       0.725  -0.547  24.555  0.00  0.00    +0.115 C 
ATOM      2  N   UNL     1       0.321  -0.382  23.855  0.00  0.00    -0.274 N 
ATOM      6  C   UNL     1      -0.503  -0.368  23.847  0.00  0.00    +0.226 C 
ATOM      7  O   UNL     1      -0.907  -0.203  23.148  0.00  0.00    -0.275 OA
BRANCH   2   3
ATOM      3  C   UNL     1       0.743  -0.230  23.162  0.00  0.00    +0.120 C 
BRANCH   3   4
ATOM      4  C   UNL     1       1.547  -0.052  23.199  0.00  0.00    -0.005 C 
ATOM      5  C   UNL     1       1.979   0.052  22.503  0.00  0.00    -0.003 C 
ENDBRANCH   3   4
ENDBRANCH   2   3
ENDBRANCH   8   6
ENDBRANCH   9   8
TORSDOF 6
ENDMDL
MODEL 8
REMARK VINA RESULT:     -11.2      1.939      3.941
REMARK  Name = 
REMARK  6 active torsions:
REMARK  status: ('A' for Active; 'I' for Inactive)
REMARK    1  A    between atoms: N_2  and  C_3
REMARK    2  A    between atoms: C_3  and  C_4
REMARK    3  A    between atoms: C_6  and  C_8
REMARK    4  A    between atoms: C_8  and  C_9
REMARK    5  A    between atoms: C_14  and  C_16
REMARK    6  A    between atoms: C_27  and  C_29
REMARK                            x       y       z     vdW  Elec       q    Type
REMARK                         _______ _______ _______ _____ _____    ______ ____
ROOT
ATOM      9  C   UNL     1      -3.501   2.525  25.286  0.00  0.00    +0.050 C 
ATOM     10  C   UNL     1      -3.225   1.833  24.929  0.00  0.00    +0.063 A 
ATOM     11  C   UNL     1      -3.762   1.277  24.641  0.00  0.00    +0.023 A 
ATOM     12  C   UNL     1      -4.572   1.411  24.709  0.00  0.00    +0.034 C 
ATOM     13  C   UNL     1      -4.848   2.102  25.066  0.00  0.00    +0.010 C 
ATOM     14  C   UNL     1      -5.659   2.236  25.134  0.00  0.00    +0.059 C 
ATOM     15  C   UNL     1      -5.666   1.503  24.756  0.00  0.00    +0.005 C 
ATOM     18  C   UNL     1      -5.933   2.927  25.491  0.00  0.00    +0.154 C 
ATOM     19  O   UNL     1      -6.745   3.062  25.559  0.00  0.00    -0.223 OA
ATOM     20  C   UNL     1      -5.398   3.484  25.779  0.00  0.00    +0.033 C 
ATOM     21  C   UNL     1      -4.587   3.350  25.711  0.00  0.00    +0.003 C 
ATOM     22  C   UNL     1      -4.311   2.659  25.354  0.00  0.00    +0.006 C 
ATOM     23  C   UNL     1      -3.776   3.215  25.643  0.00  0.00    +0.000 C 
ATOM     24  S   UNL     1      -3.330   0.651  24.319  0.00  0.00    -0.054 S 
ATOM     25  C   UNL     1      -2.528   0.821  24.407  0.00  0.00    +0.185 A 
ATOM     26  N   UNL     1      -1.901   0.345  24.162  0.00  0.00    -0.150 NA
ATOM     27  C   UNL     1      -1.123   0.589  24.289  0.00  0.00    +0.275 C 
ATOM     28  O   UNL     1      -0.973   1.309  24.662  0.00  0.00    -0.268 OA
ATOM     37  N   UNL     1      -2.463   1.552  24.785  0.00  0.00    -0.227 NA
ENDROOT
BRANCH  27  29
ATOM     29  C   UNL     1      -0.496   0.113  24.044  0.00  0.00    +0.110 A 
ATOM     30  C   UNL     1      -0.070   0.308  23.366  0.00  0.00    +0.147 A 
ATOM     31  F   UNL     1      -0.271   0.980  22.931  0.00  0.00    -0.204 F 
ATOM     32  C   UNL     1       0.558  -0.168  23.120  0.00  0.00    +0.030 A 
ATOM     33  C   UNL     1       0.759  -0.840  23.555  0.00  0.00    +0.005 A 
ATOM     34  C   UNL     1       0.333  -1.036  24.234  0.00  0.00    +0.030 A 
ATOM     35  C   UNL     1      -0.294  -0.559  24.478  0.00  0.00    +0.147 A 
ATOM     36  F   UNL     1      -0.721  -0.755  25.158  0.00  0.00    -0.204 F 
ENDBRANCH  27  29
BRANCH  14  16
ATOM     16  C   UNL     1      -6.472   2.116  25.071  0.00  0.00    +0.184 C 
ATOM     17  O   UNL     1      -6.763   1.491  24.616  0.00  0.00    -0.220 OA
ENDBRANCH  14  16
BRANCH   9   8
ATOM      8  C   UNL     1      -2.964   3.081  25.574  0.00  0.00    +0.091 C 
BRANCH   8   6
ATOM      1  C   UNL     1      -1.662   3.966  26.067  0.00  0.00    +0.115 C 
ATOM      2  N   UNL     1      -1.962   4.063  25.305  0.00  0.00    -0.274 N 
ATOM      6  C   UNL     1      -2.613   3.621  25.058  0.00  0.00    +0.226 C 
ATOM      7  O   UNL     1      -2.914   3.718  24.297  0.00  0.00    -0.275 OA
BRANCH   2   3
ATOM      3  C   UNL     1      -1.611   4.604  24.788  0.00  0.00    +0.120 C 
BRANCH   3   4
ATOM      4  C   UNL     1      -0.896   4.962  24.990  0.00  0.00    -0.005 C 
ATOM      5  C   UNL     1      -0.638   5.628  24.577  0.00  0.00    -0.003 C 
ENDBRANCH   3   4
ENDBRANCH   2   3
ENDBRANCH   8   6
ENDBRANCH   9   8
TORSDOF 6
ENDMDL
