MODEL 1
REMARK VINA RESULT:     -11.0      0.000      0.000
REMARK  Name = 
REMARK  7 active torsions:
REMARK  status: ('A' for Active; 'I' for Inactive)
REMARK    1  A    between atoms: C_5  and  S_8
REMARK    2  A    between atoms: S_8  and  N_11
REMARK    3  A    between atoms: N_11  and  C_12
REMARK    4  A    between atoms: C_12  and  C_13
REMARK    5  A    between atoms: C_16  and  N_17
REMARK    6  A    between atoms: N_17  and  C_18
REMARK    7  A    between atoms: C_18  and  C_19
REMARK                            x       y       z     vdW  Elec       q    Type
REMARK                         _______ _______ _______ _____ _____    ______ ____
ROOT
ATOM     13  C   UNL     1      -4.121   1.651  24.769  0.00  0.00    +0.166 C 
ATOM     14  O   UNL     1      -4.538   2.048  25.360  0.00  0.00    -0.350 OA
ATOM     15  C   UNL     1      -4.222   2.807  25.429  0.00  0.00    +0.162 C 
ATOM     16  C   UNL     1      -3.610   2.879  24.881  0.00  0.00    +0.135 C 
ATOM     26  C   UNL     1      -3.547   2.165  24.473  0.00  0.00    +0.199 C 
ATOM     27  O   UNL     1      -3.006   1.995  23.874  0.00  0.00    -0.219 OA
ENDROOT
BRANCH  13  12
ATOM     12  C   UNL     1      -4.254   0.877  24.518  0.00  0.00    +0.148 C 
BRANCH  12  11
ATOM     11  N   UNL     1      -4.389   0.282  25.072  0.00  0.00    -0.075 NA
BRANCH  11   8
ATOM      8  S   UNL     1      -4.200  -0.502  24.891  0.00  0.00    +0.077 S 
ATOM      9  O   UNL     1      -4.627  -0.443  24.188  0.00  0.00    -0.152 OA
ATOM     10  O   UNL     1      -3.772  -0.561  25.595  0.00  0.00    -0.152 OA
BRANCH   8   5
ATOM      1  C   UNL     1      -3.442  -3.631  24.169  0.00  0.00    +0.031 C 
ATOM      2  C   UNL     1      -3.632  -2.848  24.349  0.00  0.00    -0.022 A 
ATOM      3  C   UNL     1      -3.354  -2.507  25.048  0.00  0.00    -0.003 A 
ATOM      4  C   UNL     1      -3.543  -1.725  25.229  0.00  0.00    +0.020 A 
ATOM      5  C   UNL     1      -4.010  -1.283  24.711  0.00  0.00    +0.124 A 
ATOM      6  C   UNL     1      -4.287  -1.624  24.013  0.00  0.00    +0.020 A 
ATOM      7  C   UNL     1      -4.098  -2.407  23.832  0.00  0.00    -0.003 A 
ENDBRANCH   8   5
ENDBRANCH  11   8
ENDBRANCH  12  11
ENDBRANCH  13  12
BRANCH  16  17
ATOM     17  N   UNL     1      -3.142   3.549  24.762  0.00  0.00    -0.209 NA
BRANCH  17  18
ATOM     18  C   UNL     1      -2.706   3.864  25.388  0.00  0.00    +0.115 C 
BRANCH  18  19
ATOM     19  C   UNL     1      -2.060   4.353  25.234  0.00  0.00    -0.005 A 
ATOM     20  C   UNL     1      -1.305   4.028  25.157  0.00  0.00    -0.001 A 
ATOM     21  C   UNL     1      -0.659   4.517  25.004  0.00  0.00    +0.029 A 
ATOM     22  C   UNL     1      -0.767   5.332  24.927  0.00  0.00    +0.140 A 
ATOM     23  F   UNL     1      -0.121   5.821  24.774  0.00  0.00    -0.204 F 
ATOM     24  C   UNL     1      -1.522   5.657  25.005  0.00  0.00    +0.029 A 
ATOM     25  C   UNL     1      -2.168   5.167  25.158  0.00  0.00    -0.001 A 
ENDBRANCH  18  19
ENDBRANCH  17  18
ENDBRANCH  16  17
TORSDOF 7
ENDMDL
MODEL 2
REMARK VINA RESULT:     -10.7      2.260      6.045
REMARK  Name = 
REMARK  7 active torsions:
REMARK  status: ('A' for Active; 'I' for Inactive)
REMARK    1  A    between atoms: C_5  and  S_8
REMARK    2  A    between atoms: S_8  and  N_11
REMARK    3  A    between atoms: N_11  and  C_12
REMARK    4  A    between atoms: C_12  and  C_13
REMARK    5  A    between atoms: C_16  and  N_17
REMARK    6  A    between atoms: N_17  and  C_18
REMARK    7  A    between atoms: C_18  and  C_19
REMARK                            x       y       z     vdW  Elec       q    Type
REMARK                         _______ _______ _______ _____ _____    ______ ____
ROOT
ATOM     13  C   UNL     1      -4.038   1.924  24.753  0.00  0.00    +0.166 C 
ATOM     14  O   UNL     1      -4.612   1.723  25.309  0.00  0.00    -0.350 OA
ATOM     15  C   UNL     1      -4.775   0.919  25.227  0.00  0.00    +0.162 C 
ATOM     16  C   UNL     1      -4.301   0.623  24.620  0.00  0.00    +0.135 C 
ATOM     26  C   UNL     1      -3.846   1.244  24.327  0.00  0.00    +0.199 C 
ATOM     27  O   UNL     1      -3.295   1.195  23.715  0.00  0.00    -0.219 OA
ENDROOT
BRANCH  13  12
ATOM     12  C   UNL     1      -3.713   2.674  24.642  0.00  0.00    +0.148 C 
BRANCH  12  11
ATOM     11  N   UNL     1      -3.445   3.108  25.290  0.00  0.00    -0.075 NA
BRANCH  11   8
ATOM      8  S   UNL     1      -2.820   3.640  25.201  0.00  0.00    +0.077 S 
ATOM      9  O   UNL     1      -3.214   3.998  24.571  0.00  0.00    -0.152 OA
ATOM     10  O   UNL     1      -2.425   3.281  25.831  0.00  0.00    -0.152 OA
BRANCH   8   5
ATOM      1  C   UNL     1      -0.320   5.765  24.845  0.00  0.00    +0.031 C 
ATOM      2  C   UNL     1      -0.946   5.233  24.934  0.00  0.00    -0.022 A 
ATOM      3  C   UNL     1      -0.818   4.425  24.828  0.00  0.00    -0.003 A 
ATOM      4  C   UNL     1      -1.442   3.893  24.917  0.00  0.00    +0.020 A 
ATOM      5  C   UNL     1      -2.196   4.170  25.112  0.00  0.00    +0.124 A 
ATOM      6  C   UNL     1      -2.322   4.979  25.218  0.00  0.00    +0.020 A 
ATOM      7  C   UNL     1      -1.698   5.510  25.129  0.00  0.00    -0.003 A 
ENDBRANCH   8   5
ENDBRANCH  11   8
ENDBRANCH  12  11
ENDBRANCH  13  12
BRANCH  16  17
ATOM     17  N   UNL     1      -4.286  -0.158  24.353  0.00  0.00    -0.209 NA
BRANCH  17  18
ATOM     18  C   UNL     1      -4.300  -0.780  24.896  0.00  0.00    +0.115 C 
BRANCH  18  19
ATOM     19  C   UNL     1      -4.047  -1.531  24.668  0.00  0.00    -0.005 A 
ATOM     20  C   UNL     1      -3.499  -1.939  25.131  0.00  0.00    -0.001 A 
ATOM     21  C   UNL     1      -3.245  -2.690  24.903  0.00  0.00    +0.029 A 
ATOM     22  C   UNL     1      -3.539  -3.034  24.212  0.00  0.00    +0.140 A 
ATOM     23  F   UNL     1      -3.286  -3.785  23.984  0.00  0.00    -0.204 F 
ATOM     24  C   UNL     1      -4.087  -2.625  23.750  0.00  0.00    +0.029 A 
ATOM     25  C   UNL     1      -4.340  -1.874  23.978  0.00  0.00    -0.001 A 
ENDBRANCH  18  19
ENDBRANCH  17  18
ENDBRANCH  16  17
TORSDOF 7
ENDMDL
MODEL 3
REMARK VINA RESULT:     -10.6      1.689      2.030
REMARK  Name = 
REMARK  7 active torsions:
REMARK  status: ('A' for Active; 'I' for Inactive)
REMARK    1  A    between atoms: C_5  and  S_8
REMARK    2  A    between atoms: S_8  and  N_11
REMARK    3  A    between atoms: N_11  and  C_12
REMARK    4  A    between atoms: C_12  and  C_13
REMARK    5  A    between atoms: C_16  and  N_17
REMARK    6  A    between atoms: N_17  and  C_18
REMARK    7  A    between atoms: C_18  and  C_19
REMARK                            x       y       z     vdW  Elec       q    Type
REMARK                         _______ _______ _______ _____ _____    ______ ____
ROOT
ATOM     13  C   UNL     1      -1.186   0.555  25.040  0.00  0.00    +0.166 C 
ATOM     14  O   UNL     1      -0.786   0.660  25.754  0.00  0.00    -0.350 OA
ATOM     15  C   UNL     1      -0.572   1.454  25.811  0.00  0.00    +0.162 C 
ATOM     16  C   UNL     1      -0.839   1.840  25.133  0.00  0.00    +0.135 C 
ATOM     26  C   UNL     1      -1.218   1.285  24.656  0.00  0.00    +0.199 C 
ATOM     27  O   UNL     1      -1.569   1.433  23.925  0.00  0.00    -0.219 OA
ENDROOT
BRANCH  13  12
ATOM     12  C   UNL     1      -1.498  -0.155  24.759  0.00  0.00    +0.148 C 
BRANCH  12  11
ATOM     11  N   UNL     1      -1.942  -0.637  25.259  0.00  0.00    -0.075 NA
BRANCH  11   8
ATOM      8  S   UNL     1      -2.480  -1.177  24.942  0.00  0.00    +0.077 S 
ATOM      9  O   UNL     1      -3.081  -0.849  25.403  0.00  0.00    -0.152 OA
ATOM     10  O   UNL     1      -1.880  -1.504  24.480  0.00  0.00    -0.152 OA
BRANCH   8   5
ATOM      1  C   UNL     1      -4.631  -3.334  23.673  0.00  0.00    +0.031 C 
ATOM      2  C   UNL     1      -4.093  -2.794  23.990  0.00  0.00    -0.022 A 
ATOM      3  C   UNL     1      -3.443  -3.065  24.421  0.00  0.00    -0.003 A 
ATOM      4  C   UNL     1      -2.905  -2.525  24.738  0.00  0.00    +0.020 A 
ATOM      5  C   UNL     1      -3.017  -1.715  24.625  0.00  0.00    +0.124 A 
ATOM      6  C   UNL     1      -3.667  -1.446  24.194  0.00  0.00    +0.020 A 
ATOM      7  C   UNL     1      -4.205  -1.985  23.877  0.00  0.00    -0.003 A 
ENDBRANCH   8   5
ENDBRANCH  11   8
ENDBRANCH  12  11
ENDBRANCH  13  12
BRANCH  16  17
ATOM     17  N   UNL     1      -0.743   2.642  24.962  0.00  0.00    -0.209 NA
BRANCH  17  18
ATOM     18  C   UNL     1      -0.843   3.206  25.557  0.00  0.00    +0.115 C 
BRANCH  18  19
ATOM     19  C   UNL     1      -1.032   3.984  25.360  0.00  0.00    -0.005 A 
ATOM     20  C   UNL     1      -0.490   4.447  24.943  0.00  0.00    -0.001 A 
ATOM     21  C   UNL     1      -0.680   5.225  24.746  0.00  0.00    +0.029 A 
ATOM     22  C   UNL     1      -1.410   5.541  24.965  0.00  0.00    +0.140 A 
ATOM     23  F   UNL     1      -1.600   6.319  24.768  0.00  0.00    -0.204 F 
ATOM     24  C   UNL     1      -1.951   5.077  25.382  0.00  0.00    +0.029 A 
ATOM     25  C   UNL     1      -1.762   4.299  25.579  0.00  0.00    -0.001 A 
ENDBRANCH  18  19
ENDBRANCH  17  18
ENDBRANCH  16  17
TORSDOF 7
ENDMDL
MODEL 4
REMARK VINA RESULT:     -10.5      2.829      6.343
REMARK  Name = 
REMARK  7 active torsions:
REMARK  status: ('A' for Active; 'I' for Inactive)
REMARK    1  A    between atoms: C_5  and  S_8
REMARK    2  A    between atoms: S_8  and  N_11
REMARK    3  A    between atoms: N_11  and  C_12
REMARK    4  A    between atoms: C_12  and  C_13
REMARK    5  A    between atoms: C_16  and  N_17
REMARK    6  A    between atoms: N_17  and  C_18
REMARK    7  A    between atoms: C_18  and  C_19
REMARK                            x       y       z     vdW  Elec       q    Type
REMARK                         _______ _______ _______ _____ _____    ______ ____
ROOT
ATOM     13  C   UNL     1      -0.986   0.827  25.242  0.00  0.00    +0.166 C 
ATOM     14  O   UNL     1      -0.899   0.398  25.941  0.00  0.00    -0.350 OA
ATOM     15  C   UNL     1      -1.259  -0.336  25.836  0.00  0.00    +0.162 C 
ATOM     16  C   UNL     1      -1.568  -0.361  25.071  0.00  0.00    +0.135 C 
ATOM     26  C   UNL     1      -1.400   0.358  24.704  0.00  0.00    +0.199 C 
ATOM     27  O   UNL     1      -1.608   0.570  23.935  0.00  0.00    -0.219 OA
ENDROOT
BRANCH  13  12
ATOM     12  C   UNL     1      -0.708   1.592  25.105  0.00  0.00    +0.148 C 
BRANCH  12  11
ATOM     11  N   UNL     1      -0.724   2.151  25.710  0.00  0.00    -0.075 NA
BRANCH  11   8
ATOM      8  S   UNL     1      -0.887   2.942  25.537  0.00  0.00    +0.077 S 
ATOM      9  O   UNL     1      -0.296   2.937  24.960  0.00  0.00    -0.152 OA
ATOM     10  O   UNL     1      -1.477   2.948  26.113  0.00  0.00    -0.152 OA
BRANCH   8   5
ATOM      1  C   UNL     1      -1.535   6.103  24.844  0.00  0.00    +0.031 C 
ATOM      2  C   UNL     1      -1.373   5.312  25.018  0.00  0.00    -0.022 A 
ATOM      3  C   UNL     1      -0.641   4.988  24.817  0.00  0.00    -0.003 A 
ATOM      4  C   UNL     1      -0.478   4.198  24.990  0.00  0.00    +0.020 A 
ATOM      5  C   UNL     1      -1.048   3.732  25.364  0.00  0.00    +0.124 A 
ATOM      6  C   UNL     1      -1.780   4.057  25.564  0.00  0.00    +0.020 A 
ATOM      7  C   UNL     1      -1.942   4.847  25.391  0.00  0.00    -0.003 A 
ENDBRANCH   8   5
ENDBRANCH  11   8
ENDBRANCH  12  11
ENDBRANCH  13  12
BRANCH  16  17
ATOM     17  N   UNL     1      -1.975  -0.995  24.733  0.00  0.00    -0.209 NA
BRANCH  17  18
ATOM     18  C   UNL     1      -2.616  -1.332  25.129  0.00  0.00    +0.115 C 
BRANCH  18  19
ATOM     19  C   UNL     1      -3.164  -1.787  24.713  0.00  0.00    -0.005 A 
ATOM     20  C   UNL     1      -3.064  -2.605  24.658  0.00  0.00    -0.001 A 
ATOM     21  C   UNL     1      -3.611  -3.060  24.242  0.00  0.00    +0.029 A 
ATOM     22  C   UNL     1      -4.260  -2.698  23.882  0.00  0.00    +0.140 A 
ATOM     23  F   UNL     1      -4.808  -3.153  23.466  0.00  0.00    -0.204 F 
ATOM     24  C   UNL     1      -4.360  -1.881  23.937  0.00  0.00    +0.029 A 
ATOM     25  C   UNL     1      -3.812  -1.426  24.353  0.00  0.00    -0.001 A 
ENDBRANCH  18  19
ENDBRANCH  17  18
ENDBRANCH  16  17
TORSDOF 7
ENDMDL
MODEL 5
REMARK VINA RESULT:      -9.8      4.260      5.202
REMARK  Name = 
REMARK  7 active torsions:
REMARK  status: ('A' for Active; 'I' for Inactive)
REMARK    1  A    between atoms: C_5  and  S_8
REMARK    2  A    between atoms: S_8  and  N_11
REMARK    3  A    between atoms: N_11  and  C_12
REMARK    4  A    between atoms: C_12  and  C_13
REMARK    5  A    between atoms: C_16  and  N_17
REMARK    6  A    between atoms: N_17  and  C_18
REMARK    7  A    between atoms: C_18  and  C_19
REMARK                            x       y       z     vdW  Elec       q    Type
REMARK                         _______ _______ _______ _____ _____    ______ ____
ROOT
ATOM     13  C   UNL     1      -0.499   0.604  23.835  0.00  0.00    +0.166 C 
ATOM     14  O   UNL     1      -0.381  -0.135  23.489  0.00  0.00    -0.350 OA
ATOM     15  C   UNL     1       0.416  -0.197  23.285  0.00  0.00    +0.162 C 
ATOM     16  C   UNL     1       0.790   0.505  23.505  0.00  0.00    +0.135 C 
ATOM     26  C   UNL     1       0.225   1.000  23.845  0.00  0.00    +0.199 C 
ATOM     27  O   UNL     1       0.360   1.757  24.143  0.00  0.00    -0.219 OA
ENDROOT
BRANCH  13  12
ATOM     12  C   UNL     1      -1.215   0.896  24.122  0.00  0.00    +0.148 C 
BRANCH  12  11
ATOM     11  N   UNL     1      -1.911   0.471  24.003  0.00  0.00    -0.075 NA
BRANCH  11   8
ATOM      8  S   UNL     1      -2.634   0.785  24.249  0.00  0.00    +0.077 S 
ATOM      9  O   UNL     1      -2.480   0.536  25.020  0.00  0.00    -0.152 OA
ATOM     10  O   UNL     1      -2.789   1.033  23.478  0.00  0.00    -0.152 OA
BRANCH   8   5
ATOM      1  C   UNL     1      -5.524   2.039  25.233  0.00  0.00    +0.031 C 
ATOM      2  C   UNL     1      -4.801   1.725  24.987  0.00  0.00    -0.022 A 
ATOM      3  C   UNL     1      -4.210   2.226  24.702  0.00  0.00    -0.003 A 
ATOM      4  C   UNL     1      -3.487   1.912  24.456  0.00  0.00    +0.020 A 
ATOM      5  C   UNL     1      -3.356   1.098  24.495  0.00  0.00    +0.124 A 
ATOM      6  C   UNL     1      -3.947   0.598  24.780  0.00  0.00    +0.020 A 
ATOM      7  C   UNL     1      -4.670   0.912  25.026  0.00  0.00    -0.003 A 
ENDBRANCH   8   5
ENDBRANCH  11   8
ENDBRANCH  12  11
ENDBRANCH  13  12
BRANCH  16  17
ATOM     17  N   UNL     1       1.590   0.680  23.403  0.00  0.00    -0.209 NA
BRANCH  17  18
ATOM     18  C   UNL     1       2.053   0.218  22.900  0.00  0.00    +0.115 C 
BRANCH  18  19
ATOM     19  C   UNL     1       2.875   0.283  22.920  0.00  0.00    -0.005 A 
ATOM     20  C   UNL     1       3.331  -0.345  23.202  0.00  0.00    -0.001 A 
ATOM     21  C   UNL     1       4.153  -0.280  23.222  0.00  0.00    +0.029 A 
ATOM     22  C   UNL     1       4.520   0.412  22.962  0.00  0.00    +0.140 A 
ATOM     23  F   UNL     1       5.342   0.477  22.983  0.00  0.00    -0.204 F 
ATOM     24  C   UNL     1       4.063   1.039  22.681  0.00  0.00    +0.029 A 
ATOM     25  C   UNL     1       3.241   0.974  22.661  0.00  0.00    -0.001 A 
ENDBRANCH  18  19
ENDBRANCH  17  18
ENDBRANCH  16  17
TORSDOF 7
ENDMDL
MODEL 6
REMARK VINA RESULT:      -7.9     17.947     18.986
REMARK  Name = 
REMARK  7 active torsions:
REMARK  status: ('A' for Active; 'I' for Inactive)
REMARK    1  A    between atoms: C_5  and  S_8
REMARK    2  A    between atoms: S_8  and  N_11
REMARK    3  A    between atoms: N_11  and  C_12
REMARK    4  A    between atoms: C_12  and  C_13
REMARK    5  A    between atoms: C_16  and  N_17
REMARK    6  A    between atoms: N_17  and  C_18
REMARK    7  A    between atoms: C_18  and  C_19
REMARK                            x       y       z     vdW  Elec       q    Type
REMARK                         _______ _______ _______ _____ _____    ______ ____
ROOT
ATOM     13  C   UNL     1      -6.270  -8.469   9.328  0.00  0.00    +0.166 C 
ATOM     14  O   UNL     1      -5.914  -8.831   8.679  0.00  0.00    -0.350 OA
ATOM     15  C   UNL     1      -5.241  -9.228   8.945  0.00  0.00    +0.162 C 
ATOM     16  C   UNL     1      -5.182  -9.110   9.760  0.00  0.00    +0.135 C 
ATOM     26  C   UNL     1      -5.817  -8.641   9.997  0.00  0.00    +0.199 C 
ATOM     27  O   UNL     1      -5.973  -8.389  10.766  0.00  0.00    -0.219 OA
ENDROOT
BRANCH  13  12
ATOM     12  C   UNL     1      -6.958  -8.014   9.313  0.00  0.00    +0.148 C 
BRANCH  12  11
ATOM     11  N   UNL     1      -7.392  -7.946   8.616  0.00  0.00    -0.075 NA
BRANCH  11   8
ATOM      8  S   UNL     1      -8.036  -7.431   8.579  0.00  0.00    +0.077 S 
ATOM      9  O   UNL     1      -8.504  -7.989   8.968  0.00  0.00    -0.152 OA
ATOM     10  O   UNL     1      -7.569  -6.874   8.190  0.00  0.00    -0.152 OA
BRANCH   8   5
ATOM      1  C   UNL     1     -10.613  -5.375   8.432  0.00  0.00    +0.031 C 
ATOM      2  C   UNL     1      -9.968  -5.890   8.469  0.00  0.00    -0.022 A 
ATOM      3  C   UNL     1     -10.070  -6.659   8.749  0.00  0.00    -0.003 A 
ATOM      4  C   UNL     1      -9.426  -7.173   8.786  0.00  0.00    +0.020 A 
ATOM      5  C   UNL     1      -8.680  -6.918   8.542  0.00  0.00    +0.124 A 
ATOM      6  C   UNL     1      -8.579  -6.149   8.262  0.00  0.00    +0.020 A 
ATOM      7  C   UNL     1      -9.223  -5.635   8.225  0.00  0.00    -0.003 A 
ENDBRANCH   8   5
ENDBRANCH  11   8
ENDBRANCH  12  11
ENDBRANCH  13  12
BRANCH  16  17
ATOM     17  N   UNL     1      -4.589  -9.409  10.251  0.00  0.00    -0.209 NA
BRANCH  17  18
ATOM     18  C   UNL     1      -3.827  -9.522   9.956  0.00  0.00    +0.115 C 
BRANCH  18  19
ATOM     19  C   UNL     1      -3.224  -9.776  10.459  0.00  0.00    -0.005 A 
ATOM     20  C   UNL     1      -2.569  -9.292  10.595  0.00  0.00    -0.001 A 
ATOM     21  C   UNL     1      -1.967  -9.546  11.097  0.00  0.00    +0.029 A 
ATOM     22  C   UNL     1      -2.018 -10.284  11.464  0.00  0.00    +0.140 A 
ATOM     23  F   UNL     1      -1.416 -10.538  11.967  0.00  0.00    -0.204 F 
ATOM     24  C   UNL     1      -2.673 -10.767  11.328  0.00  0.00    +0.029 A 
ATOM     25  C   UNL     1      -3.276 -10.513  10.825  0.00  0.00    -0.001 A 
ENDBRANCH  18  19
ENDBRANCH  17  18
ENDBRANCH  16  17
TORSDOF 7
ENDMDL
MODEL 7
REMARK VINA RESULT:      -7.5     14.631     15.845
REMARK  Name = 
REMARK  7 active torsions:
REMARK  status: ('A' for Active; 'I' for Inactive)
REMARK    1  A    between atoms: C_5  and  S_8
REMARK    2  A    between atoms: S_8  and  N_11
REMARK    3  A    between atoms: N_11  and  C_12
REMARK    4  A    between atoms: C_12  and  C_13
REMARK    5  A    between atoms: C_16  and  N_17
REMARK    6  A    between atoms: N_17  and  C_18
REMARK    7  A    between atoms: C_18  and  C_19
REMARK                            x       y       z     vdW  Elec       q    Type
REMARK                         _______ _______ _______ _____ _____    ______ ____
ROOT
ATOM     13  C   UNL     1      -5.886 -10.235  15.386  0.00  0.00    +0.166 C 
ATOM     14  O   UNL     1      -5.324 -10.658  15.816  0.00  0.00    -0.350 OA
ATOM     15  C   UNL     1      -4.667 -10.774  15.332  0.00  0.00    +0.162 C 
ATOM     16  C   UNL     1      -4.823 -10.424  14.602  0.00  0.00    +0.135 C 
ATOM     26  C   UNL     1      -5.576 -10.091  14.634  0.00  0.00    +0.199 C 
ATOM     27  O   UNL     1      -5.954  -9.685  14.024  0.00  0.00    -0.219 OA
ENDROOT
BRANCH  13  12
ATOM     12  C   UNL     1      -6.628  -9.999  15.658  0.00  0.00    +0.148 C 
BRANCH  12  11
ATOM     11  N   UNL     1      -6.806 -10.046  16.461  0.00  0.00    -0.075 NA
BRANCH  11   8
ATOM      8  S   UNL     1      -7.543  -9.793  16.736  0.00  0.00    +0.077 S 
ATOM      9  O   UNL     1      -7.915 -10.339  16.241  0.00  0.00    -0.152 OA
ATOM     10  O   UNL     1      -7.172  -9.248  17.231  0.00  0.00    -0.152 OA
BRANCH   8   5
ATOM      1  C   UNL     1     -10.487  -8.785  17.834  0.00  0.00    +0.031 C 
ATOM      2  C   UNL     1      -9.751  -9.037  17.559  0.00  0.00    -0.022 A 
ATOM      3  C   UNL     1      -9.413  -9.728  17.860  0.00  0.00    -0.003 A 
ATOM      4  C   UNL     1      -8.677  -9.980  17.585  0.00  0.00    +0.020 A 
ATOM      5  C   UNL     1      -8.278  -9.541  17.010  0.00  0.00    +0.124 A 
ATOM      6  C   UNL     1      -8.617  -8.851  16.711  0.00  0.00    +0.020 A 
ATOM      7  C   UNL     1      -9.353  -8.599  16.985  0.00  0.00    -0.003 A 
ENDBRANCH   8   5
ENDBRANCH  11   8
ENDBRANCH  12  11
ENDBRANCH  13  12
BRANCH  16  17
ATOM     17  N   UNL     1      -4.314 -10.410  13.952  0.00  0.00    -0.209 NA
BRANCH  17  18
ATOM     18  C   UNL     1      -3.569 -10.761  14.004  0.00  0.00    +0.115 C 
BRANCH  18  19
ATOM     19  C   UNL     1      -3.021 -10.655  13.396  0.00  0.00    -0.005 A 
ATOM     20  C   UNL     1      -2.249 -10.423  13.574  0.00  0.00    -0.001 A 
ATOM     21  C   UNL     1      -1.701 -10.317  12.967  0.00  0.00    +0.029 A 
ATOM     22  C   UNL     1      -1.924 -10.443  12.182  0.00  0.00    +0.140 A 
ATOM     23  F   UNL     1      -1.376 -10.337  11.575  0.00  0.00    -0.204 F 
ATOM     24  C   UNL     1      -2.695 -10.675  12.006  0.00  0.00    +0.029 A 
ATOM     25  C   UNL     1      -3.243 -10.781  12.613  0.00  0.00    -0.001 A 
ENDBRANCH  18  19
ENDBRANCH  17  18
ENDBRANCH  16  17
TORSDOF 7
ENDMDL
MODEL 8
REMARK VINA RESULT:      -7.1     15.965     17.787
REMARK  Name = 
REMARK  7 active torsions:
REMARK  status: ('A' for Active; 'I' for Inactive)
REMARK    1  A    between atoms: C_5  and  S_8
REMARK    2  A    between atoms: S_8  and  N_11
REMARK    3  A    between atoms: N_11  and  C_12
REMARK    4  A    between atoms: C_12  and  C_13
REMARK    5  A    between atoms: C_16  and  N_17
REMARK    6  A    between atoms: N_17  and  C_18
REMARK    7  A    between atoms: C_18  and  C_19
REMARK                            x       y       z     vdW  Elec       q    Type
REMARK                         _______ _______ _______ _____ _____    ______ ____
ROOT
ATOM     13  C   UNL     1      -4.900  -9.991  11.879  0.00  0.00    +0.166 C 
ATOM     14  O   UNL     1      -4.772 -10.419  11.186  0.00  0.00    -0.350 OA
ATOM     15  C   UNL     1      -5.293 -10.136  10.612  0.00  0.00    +0.162 C 
ATOM     16  C   UNL     1      -5.743  -9.534  10.951  0.00  0.00    +0.135 C 
ATOM     26  C   UNL     1      -5.501  -9.444  11.733  0.00  0.00    +0.199 C 
ATOM     27  O   UNL     1      -5.805  -8.902  12.276  0.00  0.00    -0.219 OA
ENDROOT
BRANCH  13  12
ATOM     12  C   UNL     1      -4.499 -10.092  12.593  0.00  0.00    +0.148 C 
BRANCH  12  11
ATOM     11  N   UNL     1      -3.840 -10.586  12.629  0.00  0.00    -0.075 NA
BRANCH  11   8
ATOM      8  S   UNL     1      -3.361 -10.586  13.301  0.00  0.00    +0.077 S 
ATOM      9  O   UNL     1      -2.708 -10.391  12.836  0.00  0.00    -0.152 OA
ATOM     10  O   UNL     1      -4.013 -10.781  13.766  0.00  0.00    -0.152 OA
BRANCH   8   5
ATOM      1  C   UNL     1      -1.444 -10.587  15.988  0.00  0.00    +0.031 C 
ATOM      2  C   UNL     1      -1.924 -10.587  15.315  0.00  0.00    -0.022 A 
ATOM      3  C   UNL     1      -1.603 -10.393  14.580  0.00  0.00    -0.003 A 
ATOM      4  C   UNL     1      -2.082 -10.392  13.909  0.00  0.00    +0.020 A 
ATOM      5  C   UNL     1      -2.882 -10.587  13.972  0.00  0.00    +0.124 A 
ATOM      6  C   UNL     1      -3.202 -10.781  14.707  0.00  0.00    +0.020 A 
ATOM      7  C   UNL     1      -2.723 -10.781  15.379  0.00  0.00    -0.003 A 
ENDBRANCH   8   5
ENDBRANCH  11   8
ENDBRANCH  12  11
ENDBRANCH  13  12
BRANCH  16  17
ATOM     17  N   UNL     1      -6.333  -9.098  10.572  0.00  0.00    -0.209 NA
BRANCH  17  18
ATOM     18  C   UNL     1      -6.542  -9.276   9.793  0.00  0.00    +0.115 C 
BRANCH  18  19
ATOM     19  C   UNL     1      -7.121  -8.830   9.410  0.00  0.00    -0.005 A 
ATOM     20  C   UNL     1      -6.901  -8.256   8.860  0.00  0.00    -0.001 A 
ATOM     21  C   UNL     1      -7.479  -7.810   8.477  0.00  0.00    +0.029 A 
ATOM     22  C   UNL     1      -8.278  -7.938   8.643  0.00  0.00    +0.140 A 
ATOM     23  F   UNL     1      -8.856  -7.492   8.260  0.00  0.00    -0.204 F 
ATOM     24  C   UNL     1      -8.496  -8.512   9.193  0.00  0.00    +0.029 A 
ATOM     25  C   UNL     1      -7.918  -8.958   9.577  0.00  0.00    -0.001 A 
ENDBRANCH  18  19
ENDBRANCH  17  18
ENDBRANCH  16  17
TORSDOF 7
ENDMDL
