MODEL 1
REMARK VINA RESULT:     -10.3      0.000      0.000
REMARK  Name = 
REMARK  8 active torsions:
REMARK  status: ('A' for Active; 'I' for Inactive)
REMARK    1  A    between atoms: O_2  and  C_3
REMARK    2  A    between atoms: C_3  and  C_4
REMARK    3  A    between atoms: C_4  and  N_5
REMARK    4  A    between atoms: N_5  and  C_6
REMARK    5  A    between atoms: C_7  and  C_12
REMARK    6  A    between atoms: C_15  and  C_17
REMARK    7  A    between atoms: N_21  and  C_22
REMARK    8  A    between atoms: C_22  and  C_23
REMARK                            x       y       z     vdW  Elec       q    Type
REMARK                         _______ _______ _______ _____ _____    ______ ____
ROOT
ATOM     12  C   UNL     1      -2.817   3.108  24.516  0.00  0.00    +0.206 A 
ATOM     13  N   UNL     1      -3.136   3.050  23.757  0.00  0.00    -0.056 NA
ATOM     14  O   UNL     1      -3.787   2.544  23.792  0.00  0.00    -0.336 OA
ATOM     15  C   UNL     1      -3.870   2.289  24.572  0.00  0.00    +0.251 A 
ATOM     16  N   UNL     1      -3.271   2.638  25.019  0.00  0.00    -0.190 NA
ENDROOT
BRANCH  12   7
ATOM      6  C   UNL     1      -1.401   3.247  24.643  0.00  0.00    +0.151 A 
ATOM      7  C   UNL     1      -2.160   3.558  24.732  0.00  0.00    +0.072 A 
ATOM      8  C   UNL     1      -2.263   4.317  25.038  0.00  0.00    +0.008 A 
ATOM      9  C   UNL     1      -1.606   4.766  25.254  0.00  0.00    +0.021 A 
ATOM     10  C   UNL     1      -0.846   4.457  25.166  0.00  0.00    +0.100 A 
ATOM     11  N   UNL     1      -0.744   3.697  24.860  0.00  0.00    -0.228 NA
BRANCH   6   5
ATOM      5  N   UNL     1      -1.298   2.488  24.338  0.00  0.00    -0.218 NA
BRANCH   5   4
ATOM      4  C   UNL     1      -0.564   2.116  24.394  0.00  0.00    +0.146 C 
BRANCH   4   3
ATOM      3  C   UNL     1      -0.417   1.426  23.968  0.00  0.00    +0.166 C 
BRANCH   3   2
ATOM      1  C   UNL     1      -0.049   0.046  23.936  0.00  0.00    +0.174 C 
ATOM      2  O   UNL     1      -0.184   0.739  24.361  0.00  0.00    -0.349 OA
ENDBRANCH   3   2
ENDBRANCH   4   3
ENDBRANCH   5   4
ENDBRANCH   6   5
ENDBRANCH  12   7
BRANCH  15  17
ATOM     17  C   UNL     1      -4.450   1.776  24.856  0.00  0.00    +0.138 C 
ATOM     18  C   UNL     1      -5.147   1.996  25.238  0.00  0.00    +0.027 C 
ATOM     19  C   UNL     1      -5.563   1.308  25.426  0.00  0.00    +0.019 C 
ATOM     20  C   UNL     1      -5.123   0.664  25.159  0.00  0.00    +0.073 C 
ATOM     21  N   UNL     1      -4.435   0.952  24.807  0.00  0.00    -0.263 NA
BRANCH  21  22
ATOM     22  C   UNL     1      -3.837   0.497  24.466  0.00  0.00    +0.101 C 
BRANCH  22  23
ATOM     23  C   UNL     1      -3.821  -0.318  24.585  0.00  0.00    +0.013 A 
ATOM     24  C   UNL     1      -4.115  -0.826  24.005  0.00  0.00    +0.000 A 
ATOM     25  C   UNL     1      -4.099  -1.642  24.124  0.00  0.00    +0.020 A 
ATOM     26  C   UNL     1      -3.789  -1.951  24.823  0.00  0.00    +0.099 A 
ATOM     27  N   UNL     1      -3.496  -1.444  25.404  0.00  0.00    -0.243 NA
ATOM     28  C   UNL     1      -3.512  -0.627  25.284  0.00  0.00    +0.096 A 
ENDBRANCH  22  23
ENDBRANCH  21  22
ENDBRANCH  15  17
TORSDOF 8
ENDMDL
MODEL 2
REMARK VINA RESULT:     -10.0      1.108      4.125
REMARK  Name = 
REMARK  8 active torsions:
REMARK  status: ('A' for Active; 'I' for Inactive)
REMARK    1  A    between atoms: O_2  and  C_3
REMARK    2  A    between atoms: C_3  and  C_4
REMARK    3  A    between atoms: C_4  and  N_5
REMARK    4  A    between atoms: N_5  and  C_6
REMARK    5  A    between atoms: C_7  and  C_12
REMARK    6  A    between atoms: C_15  and  C_17
REMARK    7  A    between atoms: N_21  and  C_22
REMARK    8  A    between atoms: C_22  and  C_23
REMARK                            x       y       z     vdW  Elec       q    Type
REMARK                         _______ _______ _______ _____ _____    ______ ____
ROOT
ATOM     12  C   UNL     1      -3.662  -0.384  24.325  0.00  0.00    +0.206 A 
ATOM     13  N   UNL     1      -3.704  -0.004  23.594  0.00  0.00    -0.056 NA
ATOM     14  O   UNL     1      -3.998   0.757  23.719  0.00  0.00    -0.336 OA
ATOM     15  C   UNL     1      -4.137   0.847  24.527  0.00  0.00    +0.251 A 
ATOM     16  N   UNL     1      -3.929   0.142  24.902  0.00  0.00    -0.190 NA
ENDROOT
BRANCH  12   7
ATOM      6  C   UNL     1      -2.595  -1.302  24.572  0.00  0.00    +0.151 A 
ATOM      7  C   UNL     1      -3.399  -1.155  24.456  0.00  0.00    +0.072 A 
ATOM      8  C   UNL     1      -3.939  -1.778  24.471  0.00  0.00    +0.008 A 
ATOM      9  C   UNL     1      -3.676  -2.549  24.603  0.00  0.00    +0.021 A 
ATOM     10  C   UNL     1      -2.872  -2.697  24.719  0.00  0.00    +0.100 A 
ATOM     11  N   UNL     1      -2.332  -2.072  24.704  0.00  0.00    -0.228 NA
BRANCH   6   5
ATOM      5  N   UNL     1      -2.055  -0.679  24.557  0.00  0.00    -0.218 NA
BRANCH   5   4
ATOM      4  C   UNL     1      -1.245  -0.834  24.554  0.00  0.00    +0.146 C 
BRANCH   4   3
ATOM      3  C   UNL     1      -0.706  -0.217  24.643  0.00  0.00    +0.166 C 
BRANCH   3   2
ATOM      1  C   UNL     1       0.168   0.686  23.963  0.00  0.00    +0.174 C 
ATOM      2  O   UNL     1      -0.144  -0.071  24.056  0.00  0.00    -0.349 OA
ENDBRANCH   3   2
ENDBRANCH   4   3
ENDBRANCH   5   4
ENDBRANCH   6   5
ENDBRANCH  12   7
BRANCH  15  17
ATOM     17  C   UNL     1      -4.431   1.524  24.896  0.00  0.00    +0.138 C 
ATOM     18  C   UNL     1      -5.174   1.599  25.249  0.00  0.00    +0.027 C 
ATOM     19  C   UNL     1      -5.237   2.366  25.548  0.00  0.00    +0.019 C 
ATOM     20  C   UNL     1      -4.534   2.763  25.381  0.00  0.00    +0.073 C 
ATOM     21  N   UNL     1      -4.036   2.243  24.978  0.00  0.00    -0.263 NA
BRANCH  21  22
ATOM     22  C   UNL     1      -3.277   2.413  24.705  0.00  0.00    +0.101 C 
BRANCH  22  23
ATOM     23  C   UNL     1      -2.879   3.080  24.980  0.00  0.00    +0.013 A 
ATOM     24  C   UNL     1      -2.327   3.009  25.590  0.00  0.00    +0.000 A 
ATOM     25  C   UNL     1      -1.929   3.677  25.866  0.00  0.00    +0.020 A 
ATOM     26  C   UNL     1      -2.082   4.415  25.532  0.00  0.00    +0.099 A 
ATOM     27  N   UNL     1      -2.633   4.487  24.922  0.00  0.00    -0.243 NA
ATOM     28  C   UNL     1      -3.031   3.819  24.647  0.00  0.00    +0.096 A 
ENDBRANCH  22  23
ENDBRANCH  21  22
ENDBRANCH  15  17
TORSDOF 8
ENDMDL
MODEL 3
REMARK VINA RESULT:      -9.9      1.343      2.896
REMARK  Name = 
REMARK  8 active torsions:
REMARK  status: ('A' for Active; 'I' for Inactive)
REMARK    1  A    between atoms: O_2  and  C_3
REMARK    2  A    between atoms: C_3  and  C_4
REMARK    3  A    between atoms: C_4  and  N_5
REMARK    4  A    between atoms: N_5  and  C_6
REMARK    5  A    between atoms: C_7  and  C_12
REMARK    6  A    between atoms: C_15  and  C_17
REMARK    7  A    between atoms: N_21  and  C_22
REMARK    8  A    between atoms: C_22  and  C_23
REMARK                            x       y       z     vdW  Elec       q    Type
REMARK                         _______ _______ _______ _____ _____    ______ ____
ROOT
ATOM     12  C   UNL     1      -3.741   2.043  24.535  0.00  0.00    +0.206 A 
ATOM     13  N   UNL     1      -3.622   1.986  23.720  0.00  0.00    -0.056 NA
ATOM     14  O   UNL     1      -3.094   1.367  23.582  0.00  0.00    -0.336 OA
ATOM     15  C   UNL     1      -2.887   1.041  24.311  0.00  0.00    +0.251 A 
ATOM     16  N   UNL     1      -3.286   1.460  24.900  0.00  0.00    -0.190 NA
ENDROOT
BRANCH  12   7
ATOM      6  C   UNL     1      -3.912   3.294  25.203  0.00  0.00    +0.151 A 
ATOM      7  C   UNL     1      -4.228   2.588  24.917  0.00  0.00    +0.072 A 
ATOM      8  C   UNL     1      -5.031   2.427  25.013  0.00  0.00    +0.008 A 
ATOM      9  C   UNL     1      -5.518   2.972  25.395  0.00  0.00    +0.021 A 
ATOM     10  C   UNL     1      -5.203   3.678  25.681  0.00  0.00    +0.100 A 
ATOM     11  N   UNL     1      -4.399   3.839  25.585  0.00  0.00    -0.228 NA
BRANCH   6   5
ATOM      5  N   UNL     1      -3.109   3.456  25.108  0.00  0.00    -0.218 NA
BRANCH   5   4
ATOM      4  C   UNL     1      -2.798   4.176  25.364  0.00  0.00    +0.146 C 
BRANCH   4   3
ATOM      3  C   UNL     1      -1.984   4.303  25.350  0.00  0.00    +0.166 C 
BRANCH   3   2
ATOM      1  C   UNL     1      -0.937   5.197  24.968  0.00  0.00    +0.174 C 
ATOM      2  O   UNL     1      -1.687   5.070  25.285  0.00  0.00    -0.349 OA
ENDBRANCH   3   2
ENDBRANCH   4   3
ENDBRANCH   5   4
ENDBRANCH   6   5
ENDBRANCH  12   7
BRANCH  15  17
ATOM     17  C   UNL     1      -2.371   0.410  24.431  0.00  0.00    +0.138 C 
ATOM     18  C   UNL     1      -1.547   0.443  24.396  0.00  0.00    +0.027 C 
ATOM     19  C   UNL     1      -1.254  -0.313  24.551  0.00  0.00    +0.019 C 
ATOM     20  C   UNL     1      -1.896  -0.813  24.680  0.00  0.00    +0.073 C 
ATOM     21  N   UNL     1      -2.587  -0.367  24.607  0.00  0.00    -0.263 NA
BRANCH  21  22
ATOM     22  C   UNL     1      -3.357  -0.648  24.693  0.00  0.00    +0.101 C 
BRANCH  22  23
ATOM     23  C   UNL     1      -3.513  -1.455  24.620  0.00  0.00    +0.013 A 
ATOM     24  C   UNL     1      -3.848  -1.749  23.926  0.00  0.00    +0.000 A 
ATOM     25  C   UNL     1      -4.004  -2.556  23.853  0.00  0.00    +0.020 A 
ATOM     26  C   UNL     1      -3.825  -3.068  24.474  0.00  0.00    +0.099 A 
ATOM     27  N   UNL     1      -3.490  -2.775  25.168  0.00  0.00    -0.243 NA
ATOM     28  C   UNL     1      -3.334  -1.967  25.241  0.00  0.00    +0.096 A 
ENDBRANCH  22  23
ENDBRANCH  21  22
ENDBRANCH  15  17
TORSDOF 8
ENDMDL
MODEL 4
REMARK VINA RESULT:      -9.8      1.116      2.914
REMARK  Name = 
REMARK  8 active torsions:
REMARK  status: ('A' for Active; 'I' for Inactive)
REMARK    1  A    between atoms: O_2  and  C_3
REMARK    2  A    between atoms: C_3  and  C_4
REMARK    3  A    between atoms: C_4  and  N_5
REMARK    4  A    between atoms: N_5  and  C_6
REMARK    5  A    between atoms: C_7  and  C_12
REMARK    6  A    between atoms: C_15  and  C_17
REMARK    7  A    between atoms: N_21  and  C_22
REMARK    8  A    between atoms: C_22  and  C_23
REMARK                            x       y       z     vdW  Elec       q    Type
REMARK                         _______ _______ _______ _____ _____    ______ ____
ROOT
ATOM     12  C   UNL     1      -1.717   2.402  24.402  0.00  0.00    +0.206 A 
ATOM     13  N   UNL     1      -1.874   2.210  23.614  0.00  0.00    -0.056 NA
ATOM     14  O   UNL     1      -1.708   1.409  23.509  0.00  0.00    -0.336 OA
ATOM     15  C   UNL     1      -1.448   1.106  24.231  0.00  0.00    +0.251 A 
ATOM     16  N   UNL     1      -1.454   1.720  24.783  0.00  0.00    -0.190 NA
ENDROOT
BRANCH  12   7
ATOM      6  C   UNL     1      -2.554   3.398  24.993  0.00  0.00    +0.151 A 
ATOM      7  C   UNL     1      -1.808   3.146  24.747  0.00  0.00    +0.072 A 
ATOM      8  C   UNL     1      -1.153   3.637  24.845  0.00  0.00    +0.008 A 
ATOM      9  C   UNL     1      -1.243   4.381  25.190  0.00  0.00    +0.021 A 
ATOM     10  C   UNL     1      -1.988   4.634  25.436  0.00  0.00    +0.100 A 
ATOM     11  N   UNL     1      -2.644   4.142  25.338  0.00  0.00    -0.228 NA
BRANCH   6   5
ATOM      5  N   UNL     1      -3.209   2.907  24.895  0.00  0.00    -0.218 NA
BRANCH   5   4
ATOM      4  C   UNL     1      -3.932   3.110  25.236  0.00  0.00    +0.146 C 
BRANCH   4   3
ATOM      3  C   UNL     1      -4.617   2.703  25.024  0.00  0.00    +0.166 C 
BRANCH   3   2
ATOM      1  C   UNL     1      -5.776   1.955  25.396  0.00  0.00    +0.174 C 
ATOM      2  O   UNL     1      -5.104   2.383  25.608  0.00  0.00    -0.349 OA
ENDBRANCH   3   2
ENDBRANCH   4   3
ENDBRANCH   5   4
ENDBRANCH   6   5
ENDBRANCH  12   7
BRANCH  15  17
ATOM     17  C   UNL     1      -1.222   0.326  24.377  0.00  0.00    +0.138 C 
ATOM     18  C   UNL     1      -0.452   0.032  24.353  0.00  0.00    +0.027 C 
ATOM     19  C   UNL     1      -0.480  -0.773  24.534  0.00  0.00    +0.019 C 
ATOM     20  C   UNL     1      -1.268  -0.976  24.668  0.00  0.00    +0.073 C 
ATOM     21  N   UNL     1      -1.727  -0.297  24.571  0.00  0.00    -0.263 NA
BRANCH  21  22
ATOM     22  C   UNL     1      -2.546  -0.250  24.654  0.00  0.00    +0.101 C 
BRANCH  22  23
ATOM     23  C   UNL     1      -2.995  -0.939  24.719  0.00  0.00    +0.013 A 
ATOM     24  C   UNL     1      -3.394  -1.235  24.060  0.00  0.00    +0.000 A 
ATOM     25  C   UNL     1      -3.843  -1.924  24.125  0.00  0.00    +0.020 A 
ATOM     26  C   UNL     1      -3.893  -2.317  24.848  0.00  0.00    +0.099 A 
ATOM     27  N   UNL     1      -3.494  -2.022  25.507  0.00  0.00    -0.243 NA
ATOM     28  C   UNL     1      -3.045  -1.332  25.442  0.00  0.00    +0.096 A 
ENDBRANCH  22  23
ENDBRANCH  21  22
ENDBRANCH  15  17
TORSDOF 8
ENDMDL
MODEL 5
REMARK VINA RESULT:      -9.5      1.199      5.122
REMARK  Name = 
REMARK  8 active torsions:
REMARK  status: ('A' for Active; 'I' for Inactive)
REMARK    1  A    between atoms: O_2  and  C_3
REMARK    2  A    between atoms: C_3  and  C_4
REMARK    3  A    between atoms: C_4  and  N_5
REMARK    4  A    between atoms: N_5  and  C_6
REMARK    5  A    between atoms: C_7  and  C_12
REMARK    6  A    between atoms: C_15  and  C_17
REMARK    7  A    between atoms: N_21  and  C_22
REMARK    8  A    between atoms: C_22  and  C_23
REMARK                            x       y       z     vdW  Elec       q    Type
REMARK                         _______ _______ _______ _____ _____    ______ ____
ROOT
ATOM     12  C   UNL     1      -2.148  -0.696  25.025  0.00  0.00    +0.206 A 
ATOM     13  N   UNL     1      -1.860  -0.598  25.793  0.00  0.00    -0.056 NA
ATOM     14  O   UNL     1      -1.288  -0.003  25.776  0.00  0.00    -0.336 OA
ATOM     15  C   UNL     1      -1.222   0.266  24.999  0.00  0.00    +0.251 A 
ATOM     16  N   UNL     1      -1.754  -0.163  24.535  0.00  0.00    -0.190 NA
ENDROOT
BRANCH  12   7
ATOM      6  C   UNL     1      -3.517  -0.998  24.752  0.00  0.00    +0.151 A 
ATOM      7  C   UNL     1      -2.727  -1.234  24.790  0.00  0.00    +0.072 A 
ATOM      8  C   UNL     1      -2.517  -2.007  24.593  0.00  0.00    +0.008 A 
ATOM      9  C   UNL     1      -3.097  -2.545  24.358  0.00  0.00    +0.021 A 
ATOM     10  C   UNL     1      -3.887  -2.310  24.320  0.00  0.00    +0.100 A 
ATOM     11  N   UNL     1      -4.097  -1.536  24.517  0.00  0.00    -0.228 NA
BRANCH   6   5
ATOM      5  N   UNL     1      -3.727  -0.226  24.949  0.00  0.00    -0.218 NA
BRANCH   5   4
ATOM      4  C   UNL     1      -4.496   0.041  24.811  0.00  0.00    +0.146 C 
BRANCH   4   3
ATOM      3  C   UNL     1      -4.764   0.732  25.172  0.00  0.00    +0.166 C 
BRANCH   3   2
ATOM      1  C   UNL     1      -5.614   1.879  25.108  0.00  0.00    +0.174 C 
ATOM      2  O   UNL     1      -5.162   1.303  24.729  0.00  0.00    -0.349 OA
ENDBRANCH   3   2
ENDBRANCH   4   3
ENDBRANCH   5   4
ENDBRANCH   6   5
ENDBRANCH  12   7
BRANCH  15  17
ATOM     17  C   UNL     1      -0.715   0.859  24.732  0.00  0.00    +0.138 C 
ATOM     18  C   UNL     1      -0.046   0.749  24.261  0.00  0.00    +0.027 C 
ATOM     19  C   UNL     1       0.295   1.488  24.127  0.00  0.00    +0.019 C 
ATOM     20  C   UNL     1      -0.162   2.054  24.514  0.00  0.00    +0.073 C 
ATOM     21  N   UNL     1      -0.787   1.665  24.888  0.00  0.00    -0.263 NA
BRANCH  21  22
ATOM     22  C   UNL     1      -1.378   2.021  25.339  0.00  0.00    +0.101 C 
BRANCH  22  23
ATOM     23  C   UNL     1      -1.538   2.825  25.251  0.00  0.00    +0.013 A 
ATOM     24  C   UNL     1      -1.148   3.378  25.724  0.00  0.00    +0.000 A 
ATOM     25  C   UNL     1      -1.307   4.182  25.635  0.00  0.00    +0.020 A 
ATOM     26  C   UNL     1      -1.856   4.435  25.074  0.00  0.00    +0.099 A 
ATOM     27  N   UNL     1      -2.246   3.883  24.601  0.00  0.00    -0.243 NA
ATOM     28  C   UNL     1      -2.086   3.078  24.689  0.00  0.00    +0.096 A 
ENDBRANCH  22  23
ENDBRANCH  21  22
ENDBRANCH  15  17
TORSDOF 8
ENDMDL
MODEL 6
REMARK VINA RESULT:      -9.4      1.267      3.744
REMARK  Name = 
REMARK  8 active torsions:
REMARK  status: ('A' for Active; 'I' for Inactive)
REMARK    1  A    between atoms: O_2  and  C_3
REMARK    2  A    between atoms: C_3  and  C_4
REMARK    3  A    between atoms: C_4  and  N_5
REMARK    4  A    between atoms: N_5  and  C_6
REMARK    5  A    between atoms: C_7  and  C_12
REMARK    6  A    between atoms: C_15  and  C_17
REMARK    7  A    between atoms: N_21  and  C_22
REMARK    8  A    between atoms: C_22  and  C_23
REMARK                            x       y       z     vdW  Elec       q    Type
REMARK                         _______ _______ _______ _____ _____    ______ ____
ROOT
ATOM     12  C   UNL     1      -3.479   2.641  24.817  0.00  0.00    +0.206 A 
ATOM     13  N   UNL     1      -3.240   2.906  24.072  0.00  0.00    -0.056 NA
ATOM     14  O   UNL     1      -2.416   2.875  24.043  0.00  0.00    -0.336 OA
ATOM     15  C   UNL     1      -2.146   2.591  24.769  0.00  0.00    +0.251 A 
ATOM     16  N   UNL     1      -2.803   2.447  25.247  0.00  0.00    -0.190 NA
ENDROOT
BRANCH  12   7
ATOM      6  C   UNL     1      -4.662   1.865  25.017  0.00  0.00    +0.151 A 
ATOM      7  C   UNL     1      -4.257   2.582  25.083  0.00  0.00    +0.072 A 
ATOM      8  C   UNL     1      -4.630   3.237  25.416  0.00  0.00    +0.008 A 
ATOM      9  C   UNL     1      -5.409   3.178  25.682  0.00  0.00    +0.021 A 
ATOM     10  C   UNL     1      -5.814   2.462  25.617  0.00  0.00    +0.100 A 
ATOM     11  N   UNL     1      -5.440   1.806  25.284  0.00  0.00    -0.228 NA
BRANCH   6   5
ATOM      5  N   UNL     1      -4.289   1.210  24.685  0.00  0.00    -0.218 NA
BRANCH   5   4
ATOM      4  C   UNL     1      -4.637   0.464  24.740  0.00  0.00    +0.146 C 
BRANCH   4   3
ATOM      3  C   UNL     1      -4.385  -0.147  24.247  0.00  0.00    +0.166 C 
BRANCH   3   2
ATOM      1  C   UNL     1      -4.182  -1.547  24.042  0.00  0.00    +0.174 C 
ATOM      2  O   UNL     1      -4.276  -0.906  24.552  0.00  0.00    -0.349 OA
ENDBRANCH   3   2
ENDBRANCH   4   3
ENDBRANCH   5   4
ENDBRANCH   6   5
ENDBRANCH  12   7
BRANCH  15  17
ATOM     17  C   UNL     1      -1.357   2.473  24.980  0.00  0.00    +0.138 C 
ATOM     18  C   UNL     1      -0.921   2.935  25.507  0.00  0.00    +0.027 C 
ATOM     19  C   UNL     1      -0.160   2.619  25.554  0.00  0.00    +0.019 C 
ATOM     20  C   UNL     1      -0.126   1.962  25.057  0.00  0.00    +0.073 C 
ATOM     21  N   UNL     1      -0.866   1.871  24.702  0.00  0.00    -0.263 NA
BRANCH  21  22
ATOM     22  C   UNL     1      -1.076   1.282  24.164  0.00  0.00    +0.101 C 
BRANCH  22  23
ATOM     23  C   UNL     1      -0.634   0.588  24.118  0.00  0.00    +0.013 A 
ATOM     24  C   UNL     1      -0.823  -0.055  24.599  0.00  0.00    +0.000 A 
ATOM     25  C   UNL     1      -0.380  -0.749  24.552  0.00  0.00    +0.020 A 
ATOM     26  C   UNL     1       0.252  -0.801  24.025  0.00  0.00    +0.099 A 
ATOM     27  N   UNL     1       0.442  -0.158  23.544  0.00  0.00    -0.243 NA
ATOM     28  C   UNL     1      -0.001   0.537  23.591  0.00  0.00    +0.096 A 
ENDBRANCH  22  23
ENDBRANCH  21  22
ENDBRANCH  15  17
TORSDOF 8
ENDMDL
MODEL 7
REMARK VINA RESULT:      -9.2      2.021      3.661
REMARK  Name = 
REMARK  8 active torsions:
REMARK  status: ('A' for Active; 'I' for Inactive)
REMARK    1  A    between atoms: O_2  and  C_3
REMARK    2  A    between atoms: C_3  and  C_4
REMARK    3  A    between atoms: C_4  and  N_5
REMARK    4  A    between atoms: N_5  and  C_6
REMARK    5  A    between atoms: C_7  and  C_12
REMARK    6  A    between atoms: C_15  and  C_17
REMARK    7  A    between atoms: N_21  and  C_22
REMARK    8  A    between atoms: C_22  and  C_23
REMARK                            x       y       z     vdW  Elec       q    Type
REMARK                         _______ _______ _______ _____ _____    ______ ____
ROOT
ATOM     12  C   UNL     1      -1.423   0.644  24.794  0.00  0.00    +0.206 A 
ATOM     13  N   UNL     1      -1.082   1.352  25.048  0.00  0.00    -0.056 NA
ATOM     14  O   UNL     1      -1.524   1.975  24.736  0.00  0.00    -0.336 OA
ATOM     15  C   UNL     1      -2.138   1.653  24.290  0.00  0.00    +0.251 A 
ATOM     16  N   UNL     1      -2.076   0.831  24.326  0.00  0.00    -0.190 NA
ENDROOT
BRANCH  12   7
ATOM      6  C   UNL     1      -0.525  -0.442  24.562  0.00  0.00    +0.151 A 
ATOM      7  C   UNL     1      -1.158  -0.115  24.978  0.00  0.00    +0.072 A 
ATOM      8  C   UNL     1      -1.527  -0.547  25.575  0.00  0.00    +0.008 A 
ATOM      9  C   UNL     1      -1.262  -1.307  25.758  0.00  0.00    +0.021 A 
ATOM     10  C   UNL     1      -0.629  -1.634  25.344  0.00  0.00    +0.100 A 
ATOM     11  N   UNL     1      -0.260  -1.201  24.745  0.00  0.00    -0.228 NA
BRANCH   6   5
ATOM      5  N   UNL     1      -0.156  -0.010  23.965  0.00  0.00    -0.218 NA
BRANCH   5   4
ATOM      4  C   UNL     1       0.454  -0.349  23.525  0.00  0.00    +0.146 C 
BRANCH   4   3
ATOM      3  C   UNL     1       0.941   0.125  23.059  0.00  0.00    +0.166 C 
BRANCH   3   2
ATOM      1  C   UNL     1       2.223   0.088  22.428  0.00  0.00    +0.174 C 
ATOM      2  O   UNL     1       1.464  -0.220  22.522  0.00  0.00    -0.349 OA
ENDBRANCH   3   2
ENDBRANCH   4   3
ENDBRANCH   5   4
ENDBRANCH   6   5
ENDBRANCH  12   7
BRANCH  15  17
ATOM     17  C   UNL     1      -2.713   2.078  23.879  0.00  0.00    +0.138 C 
ATOM     18  C   UNL     1      -2.701   2.257  23.073  0.00  0.00    +0.027 C 
ATOM     19  C   UNL     1      -3.383   2.688  22.898  0.00  0.00    +0.019 C 
ATOM     20  C   UNL     1      -3.816   2.775  23.594  0.00  0.00    +0.073 C 
ATOM     21  N   UNL     1      -3.402   2.398  24.201  0.00  0.00    -0.263 NA
BRANCH  21  22
ATOM     22  C   UNL     1      -3.636   2.350  24.990  0.00  0.00    +0.101 C 
BRANCH  22  23
ATOM     23  C   UNL     1      -4.404   2.559  25.206  0.00  0.00    +0.013 A 
ATOM     24  C   UNL     1      -4.998   1.987  25.224  0.00  0.00    +0.000 A 
ATOM     25  C   UNL     1      -5.766   2.196  25.440  0.00  0.00    +0.020 A 
ATOM     26  C   UNL     1      -5.941   2.977  25.639  0.00  0.00    +0.099 A 
ATOM     27  N   UNL     1      -5.347   3.550  25.621  0.00  0.00    -0.243 NA
ATOM     28  C   UNL     1      -4.579   3.341  25.405  0.00  0.00    +0.096 A 
ENDBRANCH  22  23
ENDBRANCH  21  22
ENDBRANCH  15  17
TORSDOF 8
ENDMDL
MODEL 8
REMARK VINA RESULT:      -9.0      1.706      4.051
REMARK  Name = 
REMARK  8 active torsions:
REMARK  status: ('A' for Active; 'I' for Inactive)
REMARK    1  A    between atoms: O_2  and  C_3
REMARK    2  A    between atoms: C_3  and  C_4
REMARK    3  A    between atoms: C_4  and  N_5
REMARK    4  A    between atoms: N_5  and  C_6
REMARK    5  A    between atoms: C_7  and  C_12
REMARK    6  A    between atoms: C_15  and  C_17
REMARK    7  A    between atoms: N_21  and  C_22
REMARK    8  A    between atoms: C_22  and  C_23
REMARK                            x       y       z     vdW  Elec       q    Type
REMARK                         _______ _______ _______ _____ _____    ______ ____
ROOT
ATOM     12  C   UNL     1      -0.281   1.706  24.827  0.00  0.00    +0.206 A 
ATOM     13  N   UNL     1      -0.143   1.795  25.636  0.00  0.00    -0.056 NA
ATOM     14  O   UNL     1      -0.476   2.512  25.874  0.00  0.00    -0.336 OA
ATOM     15  C   UNL     1      -0.820   2.866  25.212  0.00  0.00    +0.251 A 
ATOM     16  N   UNL     1      -0.699   2.367  24.565  0.00  0.00    -0.190 NA
ENDROOT
BRANCH  12   7
ATOM      6  C   UNL     1      -0.454   0.353  24.402  0.00  0.00    +0.151 A 
ATOM      7  C   UNL     1      -0.043   1.068  24.362  0.00  0.00    +0.072 A 
ATOM      8  C   UNL     1       0.605   1.144  23.858  0.00  0.00    +0.008 A 
ATOM      9  C   UNL     1       0.843   0.505  23.393  0.00  0.00    +0.021 A 
ATOM     10  C   UNL     1       0.433  -0.209  23.432  0.00  0.00    +0.100 A 
ATOM     11  N   UNL     1      -0.216  -0.286  23.937  0.00  0.00    -0.228 NA
BRANCH   6   5
ATOM      5  N   UNL     1      -1.101   0.277  24.906  0.00  0.00    -0.218 NA
BRANCH   5   4
ATOM      4  C   UNL     1      -1.595  -0.383  24.849  0.00  0.00    +0.146 C 
BRANCH   4   3
ATOM      3  C   UNL     1      -2.148  -0.537  25.440  0.00  0.00    +0.166 C 
BRANCH   3   2
ATOM      1  C   UNL     1      -3.426  -1.099  25.745  0.00  0.00    +0.174 C 
ATOM      2  O   UNL     1      -2.939  -0.663  25.242  0.00  0.00    -0.349 OA
ENDBRANCH   3   2
ENDBRANCH   4   3
ENDBRANCH   5   4
ENDBRANCH   6   5
ENDBRANCH  12   7
BRANCH  15  17
ATOM     17  C   UNL     1      -1.214   3.590  25.199  0.00  0.00    +0.138 C 
ATOM     18  C   UNL     1      -0.873   4.326  25.048  0.00  0.00    +0.027 C 
ATOM     19  C   UNL     1      -1.467   4.896  25.091  0.00  0.00    +0.019 C 
ATOM     20  C   UNL     1      -2.176   4.513  25.268  0.00  0.00    +0.073 C 
ATOM     21  N   UNL     1      -2.020   3.706  25.335  0.00  0.00    -0.263 NA
BRANCH  21  22
ATOM     22  C   UNL     1      -2.572   3.118  25.508  0.00  0.00    +0.101 C 
BRANCH  22  23
ATOM     23  C   UNL     1      -3.375   3.258  25.386  0.00  0.00    +0.013 A 
ATOM     24  C   UNL     1      -3.739   2.999  24.692  0.00  0.00    +0.000 A 
ATOM     25  C   UNL     1      -4.542   3.139  24.570  0.00  0.00    +0.020 A 
ATOM     26  C   UNL     1      -4.983   3.538  25.142  0.00  0.00    +0.099 A 
ATOM     27  N   UNL     1      -4.620   3.797  25.836  0.00  0.00    -0.243 NA
ATOM     28  C   UNL     1      -3.816   3.657  25.958  0.00  0.00    +0.096 A 
ENDBRANCH  22  23
ENDBRANCH  21  22
ENDBRANCH  15  17
TORSDOF 8
ENDMDL
