MODEL 1
REMARK VINA RESULT:     -10.6      0.000      0.000
REMARK  Name = 
REMARK  10 active torsions:
REMARK  status: ('A' for Active; 'I' for Inactive)
REMARK    1  A    between atoms: N_2  and  C_3
REMARK    2  A    between atoms: N_2  and  C_23
REMARK    3  A    between atoms: C_3  and  C_4
REMARK    4  A    between atoms: C_6  and  C_7
REMARK    5  A    between atoms: C_7  and  C_8
REMARK    6  A    between atoms: C_8  and  N_12
REMARK    7  A    between atoms: N_12  and  C_13
REMARK    8  A    between atoms: C_13  and  C_14
REMARK    9  A    between atoms: C_17  and  C_18
REMARK   10  A    between atoms: C_23  and  C_24
REMARK                            x       y       z     vdW  Elec       q    Type
REMARK                         _______ _______ _______ _____ _____    ______ ____
ROOT
ATOM      4  C   UNL     1      -4.262   1.153  24.261  0.00  0.00    +0.170 A 
ATOM      5  C   UNL     1      -3.798   1.833  24.192  0.00  0.00    +0.055 A 
ATOM      6  C   UNL     1      -4.210   2.458  24.539  0.00  0.00    +0.102 A 
ATOM     21  N   UNL     1      -4.927   2.166  24.822  0.00  0.00    -0.082 NA
ATOM     22  O   UNL     1      -4.959   1.360  24.651  0.00  0.00    -0.357 OA
ENDROOT
BRANCH   4   3
ATOM      3  C   UNL     1      -4.062   0.401  23.988  0.00  0.00    +0.141 C 
BRANCH   3   2
ATOM      1  C   UNL     1      -2.858  -0.040  24.619  0.00  0.00    +0.090 C 
ATOM      2  N   UNL     1      -3.667  -0.127  24.485  0.00  0.00    -0.261 NA
BRANCH   2  23
ATOM     23  C   UNL     1      -4.082  -0.741  24.847  0.00  0.00    +0.100 C 
BRANCH  23  24
ATOM     24  C   UNL     1      -3.915  -1.525  24.650  0.00  0.00    -0.006 A 
ATOM     25  C   UNL     1      -4.210  -1.844  23.949  0.00  0.00    -0.003 A 
ATOM     26  C   UNL     1      -4.044  -2.628  23.752  0.00  0.00    -0.000 A 
ATOM     27  C   UNL     1      -3.583  -3.092  24.256  0.00  0.00    -0.000 A 
ATOM     28  C   UNL     1      -3.289  -2.772  24.958  0.00  0.00    -0.000 A 
ATOM     29  C   UNL     1      -3.455  -1.988  25.155  0.00  0.00    -0.003 A 
ENDBRANCH  23  24
ENDBRANCH   2  23
ENDBRANCH   3   2
ENDBRANCH   4   3
BRANCH   6   7
ATOM      7  C   UNL     1      -3.949   3.239  24.592  0.00  0.00    +0.070 C 
BRANCH   7   8
ATOM      8  C   UNL     1      -3.837   3.586  25.332  0.00  0.00    +0.120 C 
ATOM      9  C   UNL     1      -3.724   3.933  26.073  0.00  0.00    +0.161 C 
ATOM     10  O   UNL     1      -4.521   4.147  26.093  0.00  0.00    -0.351 OA
ATOM     11  C   UNL     1      -4.633   3.800  25.353  0.00  0.00    +0.161 C 
BRANCH   8  12
ATOM     12  N   UNL     1      -3.040   3.372  25.312  0.00  0.00    -0.207 NA
BRANCH  12  13
ATOM     13  C   UNL     1      -2.464   3.905  25.569  0.00  0.00    +0.153 C 
BRANCH  13  14
ATOM     14  C   UNL     1      -1.666   3.703  25.520  0.00  0.00    +0.140 A 
ATOM     15  C   UNL     1      -1.081   4.130  25.124  0.00  0.00    +0.037 A 
ATOM     16  C   UNL     1      -0.365   3.731  25.218  0.00  0.00    +0.038 A 
ATOM     17  C   UNL     1      -0.508   3.057  25.672  0.00  0.00    +0.156 A 
ATOM     20  O   UNL     1      -1.311   3.039  25.859  0.00  0.00    -0.458 OA
BRANCH  17  18
ATOM     18  C   UNL     1       0.054   2.497  25.900  0.00  0.00    +0.246 C 
ATOM     19  O   UNL     1       0.574   2.663  26.520  0.00  0.00    -0.212 OA
ENDBRANCH  17  18
ENDBRANCH  13  14
ENDBRANCH  12  13
ENDBRANCH   8  12
ENDBRANCH   7   8
ENDBRANCH   6   7
TORSDOF 10
ENDMDL
MODEL 2
REMARK VINA RESULT:      -9.8      1.346      3.129
REMARK  Name = 
REMARK  10 active torsions:
REMARK  status: ('A' for Active; 'I' for Inactive)
REMARK    1  A    between atoms: N_2  and  C_3
REMARK    2  A    between atoms: N_2  and  C_23
REMARK    3  A    between atoms: C_3  and  C_4
REMARK    4  A    between atoms: C_6  and  C_7
REMARK    5  A    between atoms: C_7  and  C_8
REMARK    6  A    between atoms: C_8  and  N_12
REMARK    7  A    between atoms: N_12  and  C_13
REMARK    8  A    between atoms: C_13  and  C_14
REMARK    9  A    between atoms: C_17  and  C_18
REMARK   10  A    between atoms: C_23  and  C_24
REMARK                            x       y       z     vdW  Elec       q    Type
REMARK                         _______ _______ _______ _____ _____    ______ ____
ROOT
ATOM      4  C   UNL     1      -1.050   0.369  25.380  0.00  0.00    +0.170 A 
ATOM      5  C   UNL     1      -1.395   1.023  25.747  0.00  0.00    +0.055 A 
ATOM      6  C   UNL     1      -0.941   1.687  25.560  0.00  0.00    +0.102 A 
ATOM     21  N   UNL     1      -0.317   1.443  25.079  0.00  0.00    -0.082 NA
ATOM     22  O   UNL     1      -0.384   0.629  24.968  0.00  0.00    -0.357 OA
ENDROOT
BRANCH   4   3
ATOM      3  C   UNL     1      -1.324  -0.408  25.420  0.00  0.00    +0.141 C 
BRANCH   3   2
ATOM      1  C   UNL     1      -1.656  -0.859  24.105  0.00  0.00    +0.090 C 
ATOM      2  N   UNL     1      -1.884  -0.677  24.876  0.00  0.00    -0.261 NA
BRANCH   2  23
ATOM     23  C   UNL     1      -2.672  -0.763  25.105  0.00  0.00    +0.100 C 
BRANCH  23  24
ATOM     24  C   UNL     1      -3.131  -1.371  24.788  0.00  0.00    -0.006 A 
ATOM     25  C   UNL     1      -3.714  -1.197  24.229  0.00  0.00    -0.003 A 
ATOM     26  C   UNL     1      -4.173  -1.804  23.912  0.00  0.00    -0.000 A 
ATOM     27  C   UNL     1      -4.049  -2.585  24.152  0.00  0.00    -0.000 A 
ATOM     28  C   UNL     1      -3.466  -2.757  24.710  0.00  0.00    -0.000 A 
ATOM     29  C   UNL     1      -3.007  -2.150  25.028  0.00  0.00    -0.003 A 
ENDBRANCH  23  24
ENDBRANCH   2  23
ENDBRANCH   3   2
ENDBRANCH   4   3
BRANCH   6   7
ATOM      7  C   UNL     1      -1.087   2.459  25.812  0.00  0.00    +0.070 C 
BRANCH   7   8
ATOM      8  C   UNL     1      -1.210   3.057  25.257  0.00  0.00    +0.120 C 
ATOM      9  C   UNL     1      -1.333   3.655  24.701  0.00  0.00    +0.161 C 
ATOM     10  O   UNL     1      -0.524   3.815  24.695  0.00  0.00    -0.351 OA
ATOM     11  C   UNL     1      -0.401   3.218  25.250  0.00  0.00    +0.161 C 
BRANCH   8  12
ATOM     12  N   UNL     1      -2.019   2.896  25.263  0.00  0.00    -0.207 NA
BRANCH  12  13
ATOM     13  C   UNL     1      -2.562   3.516  25.220  0.00  0.00    +0.153 C 
BRANCH  13  14
ATOM     14  C   UNL     1      -3.371   3.358  25.251  0.00  0.00    +0.140 A 
ATOM     15  C   UNL     1      -3.916   3.719  25.755  0.00  0.00    +0.037 A 
ATOM     16  C   UNL     1      -4.660   3.396  25.601  0.00  0.00    +0.038 A 
ATOM     17  C   UNL     1      -4.573   2.835  25.002  0.00  0.00    +0.156 A 
ATOM     20  O   UNL     1      -3.778   2.811  24.786  0.00  0.00    -0.458 OA
BRANCH  17  18
ATOM     18  C   UNL     1      -5.178   2.377  24.676  0.00  0.00    +0.246 C 
ATOM     19  O   UNL     1      -5.462   1.718  25.084  0.00  0.00    -0.212 OA
ENDBRANCH  17  18
ENDBRANCH  13  14
ENDBRANCH  12  13
ENDBRANCH   8  12
ENDBRANCH   7   8
ENDBRANCH   6   7
TORSDOF 10
ENDMDL
MODEL 3
REMARK VINA RESULT:      -9.4      1.766      4.877
REMARK  Name = 
REMARK  10 active torsions:
REMARK  status: ('A' for Active; 'I' for Inactive)
REMARK    1  A    between atoms: N_2  and  C_3
REMARK    2  A    between atoms: N_2  and  C_23
REMARK    3  A    between atoms: C_3  and  C_4
REMARK    4  A    between atoms: C_6  and  C_7
REMARK    5  A    between atoms: C_7  and  C_8
REMARK    6  A    between atoms: C_8  and  N_12
REMARK    7  A    between atoms: N_12  and  C_13
REMARK    8  A    between atoms: C_13  and  C_14
REMARK    9  A    between atoms: C_17  and  C_18
REMARK   10  A    between atoms: C_23  and  C_24
REMARK                            x       y       z     vdW  Elec       q    Type
REMARK                         _______ _______ _______ _____ _____    ______ ____
ROOT
ATOM      4  C   UNL     1      -3.848   1.762  24.818  0.00  0.00    +0.170 A 
ATOM      5  C   UNL     1      -3.586   1.075  25.193  0.00  0.00    +0.055 A 
ATOM      6  C   UNL     1      -4.025   0.441  24.896  0.00  0.00    +0.102 A 
ATOM     21  N   UNL     1      -4.556   0.736  24.339  0.00  0.00    -0.082 NA
ATOM     22  O   UNL     1      -4.447   1.552  24.291  0.00  0.00    -0.357 OA
ENDROOT
BRANCH   4   3
ATOM      3  C   UNL     1      -3.561   2.524  24.948  0.00  0.00    +0.141 C 
BRANCH   3   2
ATOM      1  C   UNL     1      -2.587   2.685  23.915  0.00  0.00    +0.090 C 
ATOM      2  N   UNL     1      -2.795   2.723  24.712  0.00  0.00    -0.261 NA
BRANCH   2  23
ATOM     23  C   UNL     1      -2.239   2.959  25.273  0.00  0.00    +0.100 C 
BRANCH  23  24
ATOM     24  C   UNL     1      -1.845   3.679  25.187  0.00  0.00    -0.006 A 
ATOM     25  C   UNL     1      -1.068   3.691  24.909  0.00  0.00    -0.003 A 
ATOM     26  C   UNL     1      -0.673   4.411  24.823  0.00  0.00    -0.000 A 
ATOM     27  C   UNL     1      -1.055   5.117  25.016  0.00  0.00    -0.000 A 
ATOM     28  C   UNL     1      -1.832   5.103  25.294  0.00  0.00    -0.000 A 
ATOM     29  C   UNL     1      -2.227   4.384  25.380  0.00  0.00    -0.003 A 
ENDBRANCH  23  24
ENDBRANCH   2  23
ENDBRANCH   3   2
ENDBRANCH   4   3
BRANCH   6   7
ATOM      7  C   UNL     1      -3.944  -0.349  25.119  0.00  0.00    +0.070 C 
BRANCH   7   8
ATOM      8  C   UNL     1      -3.812  -0.927  24.546  0.00  0.00    +0.120 C 
ATOM      9  C   UNL     1      -3.679  -1.506  23.972  0.00  0.00    +0.161 C 
ATOM     10  O   UNL     1      -4.492  -1.631  23.910  0.00  0.00    -0.351 OA
ATOM     11  C   UNL     1      -4.625  -1.053  24.483  0.00  0.00    +0.161 C 
BRANCH   8  12
ATOM     12  N   UNL     1      -2.998  -0.803  24.608  0.00  0.00    -0.207 NA
BRANCH  12  13
ATOM     13  C   UNL     1      -2.482  -1.446  24.600  0.00  0.00    +0.153 C 
BRANCH  13  14
ATOM     14  C   UNL     1      -1.667  -1.321  24.641  0.00  0.00    +0.140 A 
ATOM     15  C   UNL     1      -1.154  -1.647  25.199  0.00  0.00    +0.037 A 
ATOM     16  C   UNL     1      -0.392  -1.375  25.035  0.00  0.00    +0.038 A 
ATOM     17  C   UNL     1      -0.435  -0.882  24.375  0.00  0.00    +0.156 A 
ATOM     20  O   UNL     1      -1.222  -0.848  24.131  0.00  0.00    -0.458 OA
BRANCH  17  18
ATOM     18  C   UNL     1       0.199  -0.490  24.020  0.00  0.00    +0.246 C 
ATOM     19  O   UNL     1       0.131   0.308  23.820  0.00  0.00    -0.212 OA
ENDBRANCH  17  18
ENDBRANCH  13  14
ENDBRANCH  12  13
ENDBRANCH   8  12
ENDBRANCH   7   8
ENDBRANCH   6   7
TORSDOF 10
ENDMDL
MODEL 4
REMARK VINA RESULT:      -9.1      1.540      5.186
REMARK  Name = 
REMARK  10 active torsions:
REMARK  status: ('A' for Active; 'I' for Inactive)
REMARK    1  A    between atoms: N_2  and  C_3
REMARK    2  A    between atoms: N_2  and  C_23
REMARK    3  A    between atoms: C_3  and  C_4
REMARK    4  A    between atoms: C_6  and  C_7
REMARK    5  A    between atoms: C_7  and  C_8
REMARK    6  A    between atoms: C_8  and  N_12
REMARK    7  A    between atoms: N_12  and  C_13
REMARK    8  A    between atoms: C_13  and  C_14
REMARK    9  A    between atoms: C_17  and  C_18
REMARK   10  A    between atoms: C_23  and  C_24
REMARK                            x       y       z     vdW  Elec       q    Type
REMARK                         _______ _______ _______ _____ _____    ______ ____
ROOT
ATOM      4  C   UNL     1      -0.997   0.712  25.152  0.00  0.00    +0.170 A 
ATOM      5  C   UNL     1      -1.713   0.525  25.519  0.00  0.00    +0.055 A 
ATOM      6  C   UNL     1      -1.987  -0.183  25.195  0.00  0.00    +0.102 A 
ATOM     21  N   UNL     1      -1.443  -0.432  24.628  0.00  0.00    -0.082 NA
ATOM     22  O   UNL     1      -0.831   0.121  24.601  0.00  0.00    -0.357 OA
ENDROOT
BRANCH   4   3
ATOM      3  C   UNL     1      -0.532   1.374  25.309  0.00  0.00    +0.141 C 
BRANCH   3   2
ATOM      1  C   UNL     1      -0.906   2.333  24.318  0.00  0.00    +0.090 C 
ATOM      2  N   UNL     1      -0.804   2.127  25.110  0.00  0.00    -0.261 NA
BRANCH   2  23
ATOM     23  C   UNL     1      -0.975   2.674  25.704  0.00  0.00    +0.100 C 
BRANCH  23  24
ATOM     24  C   UNL     1      -1.166   3.452  25.507  0.00  0.00    -0.006 A 
ATOM     25  C   UNL     1      -1.929   3.736  25.645  0.00  0.00    -0.003 A 
ATOM     26  C   UNL     1      -2.120   4.514  25.448  0.00  0.00    -0.000 A 
ATOM     27  C   UNL     1      -1.549   5.008  25.115  0.00  0.00    -0.000 A 
ATOM     28  C   UNL     1      -0.787   4.724  24.978  0.00  0.00    -0.000 A 
ATOM     29  C   UNL     1      -0.595   3.946  25.174  0.00  0.00    -0.003 A 
ENDBRANCH  23  24
ENDBRANCH   2  23
ENDBRANCH   3   2
ENDBRANCH   4   3
BRANCH   6   7
ATOM      7  C   UNL     1      -2.685  -0.572  25.402  0.00  0.00    +0.070 C 
BRANCH   7   8
ATOM      8  C   UNL     1      -3.237  -0.764  24.820  0.00  0.00    +0.120 C 
ATOM      9  C   UNL     1      -3.790  -0.957  24.238  0.00  0.00    +0.161 C 
ATOM     10  O   UNL     1      -3.461  -1.711  24.176  0.00  0.00    -0.351 OA
ATOM     11  C   UNL     1      -2.909  -1.519  24.757  0.00  0.00    +0.161 C 
BRANCH   8  12
ATOM     12  N   UNL     1      -3.566  -0.010  24.883  0.00  0.00    -0.207 NA
BRANCH  12  13
ATOM     13  C   UNL     1      -4.378   0.094  24.782  0.00  0.00    +0.153 C 
BRANCH  13  14
ATOM     14  C   UNL     1      -4.715   0.840  24.892  0.00  0.00    +0.140 A 
ATOM     15  C   UNL     1      -4.680   1.470  24.361  0.00  0.00    +0.037 A 
ATOM     16  C   UNL     1      -5.088   2.106  24.692  0.00  0.00    +0.038 A 
ATOM     17  C   UNL     1      -5.374   1.868  25.428  0.00  0.00    +0.156 A 
ATOM     20  O   UNL     1      -5.144   1.086  25.552  0.00  0.00    -0.458 OA
BRANCH  17  18
ATOM     18  C   UNL     1      -5.815   2.332  25.950  0.00  0.00    +0.246 C 
ATOM     19  O   UNL     1      -5.505   3.044  26.231  0.00  0.00    -0.212 OA
ENDBRANCH  17  18
ENDBRANCH  13  14
ENDBRANCH  12  13
ENDBRANCH   8  12
ENDBRANCH   7   8
ENDBRANCH   6   7
TORSDOF 10
ENDMDL
