MODEL 1
REMARK VINA RESULT:      -9.2      0.000      0.000
REMARK  Name = 
REMARK  9 active torsions:
REMARK  status: ('A' for Active; 'I' for Inactive)
REMARK    1  A    between atoms: C_2  and  C_4
REMARK    2  A    between atoms: C_6  and  C_7
REMARK    3  A    between atoms: C_7  and  C_8
REMARK    4  A    between atoms: N_10  and  C_11
REMARK    5  A    between atoms: C_11  and  C_12
REMARK    6  A    between atoms: C_15  and  C_18
REMARK    7  A    between atoms: C_23  and  C_24
REMARK    8  A    between atoms: C_24  and  N_25
REMARK    9  A    between atoms: C_26  and  C_28
REMARK                            x       y       z     vdW  Elec       q    Type
REMARK                         _______ _______ _______ _____ _____    ______ ____
ROOT
ATOM      4  C   UNL     1      -3.850   3.521  25.511  0.00  0.00    +0.006 C 
ATOM      5  C   UNL     1      -4.419   2.963  25.295  0.00  0.00    +0.005 C 
ATOM      6  C   UNL     1      -4.432   2.665  24.526  0.00  0.00    +0.027 C 
ATOM     20  C   UNL     1      -3.878   2.925  23.973  0.00  0.00    -0.048 C 
ATOM     21  C   UNL     1      -3.892   2.626  23.204  0.00  0.00    +0.026 C 
ATOM     22  C   UNL     1      -3.310   3.482  24.189  0.00  0.00    -0.033 C 
ATOM     23  C   UNL     1      -3.295   3.780  24.958  0.00  0.00    +0.043 C 
ENDROOT
BRANCH   4   2
ATOM      1  C   UNL     1      -3.320   3.497  26.838  0.00  0.00    +0.000 C 
ATOM      2  C   UNL     1      -3.837   3.819  26.280  0.00  0.00    +0.000 C 
ATOM      3  C   UNL     1      -4.338   4.437  26.492  0.00  0.00    +0.000 C 
ENDBRANCH   4   2
BRANCH   6   7
ATOM      7  C   UNL     1      -5.001   2.108  24.310  0.00  0.00    +0.091 C 
BRANCH   7   8
ATOM      8  C   UNL     1      -5.084   1.413  24.749  0.00  0.00    +0.242 C 
ATOM      9  O   UNL     1      -5.649   1.369  25.349  0.00  0.00    -0.273 OA
ATOM     10  N   UNL     1      -4.602   0.763  24.588  0.00  0.00    -0.201 NA
BRANCH  10  11
ATOM     11  C   UNL     1      -4.685   0.069  25.027  0.00  0.00    +0.141 C 
BRANCH  11  12
ATOM     12  C   UNL     1      -4.157  -0.554  24.915  0.00  0.00    -0.001 A 
ATOM     13  C   UNL     1      -3.552  -0.685  25.459  0.00  0.00    -0.002 A 
ATOM     14  C   UNL     1      -3.024  -1.310  25.347  0.00  0.00    +0.010 A 
ATOM     15  C   UNL     1      -3.102  -1.802  24.689  0.00  0.00    +0.068 A 
ATOM     16  C   UNL     1      -3.706  -1.671  24.145  0.00  0.00    +0.010 A 
ATOM     17  C   UNL     1      -4.235  -1.047  24.257  0.00  0.00    -0.002 A 
BRANCH  15  18
ATOM     18  C   UNL     1      -2.573  -2.426  24.577  0.00  0.00    +0.100 C 
ATOM     19  N   UNL     1      -2.045  -3.050  24.464  0.00  0.00    -0.191 NA
ENDBRANCH  15  18
ENDBRANCH  11  12
ENDBRANCH  10  11
ENDBRANCH   7   8
ENDBRANCH   6   7
BRANCH  23  24
ATOM     24  C   UNL     1      -2.728   4.338  25.174  0.00  0.00    +0.119 C 
BRANCH  24  25
ATOM     25  N   UNL     1      -1.952   4.265  24.901  0.00  0.00    -0.205 NA
ATOM     26  C   UNL     1      -1.431   4.901  24.963  0.00  0.00    +0.241 C 
ATOM     27  O   UNL     1      -1.685   5.610  25.299  0.00  0.00    -0.273 OA
BRANCH  26  28
ATOM     28  C   UNL     1      -0.656   4.828  24.689  0.00  0.00    +0.078 C 
ATOM     29  C   UNL     1      -0.024   5.120  24.247  0.00  0.00    +0.010 C 
ATOM     30  C   UNL     1       0.054   4.410  24.659  0.00  0.00    +0.010 C 
ENDBRANCH  26  28
ENDBRANCH  24  25
ENDBRANCH  23  24
TORSDOF 9
ENDMDL
MODEL 2
REMARK VINA RESULT:      -8.9      1.698      4.994
REMARK  Name = 
REMARK  9 active torsions:
REMARK  status: ('A' for Active; 'I' for Inactive)
REMARK    1  A    between atoms: C_2  and  C_4
REMARK    2  A    between atoms: C_6  and  C_7
REMARK    3  A    between atoms: C_7  and  C_8
REMARK    4  A    between atoms: N_10  and  C_11
REMARK    5  A    between atoms: C_11  and  C_12
REMARK    6  A    between atoms: C_15  and  C_18
REMARK    7  A    between atoms: C_23  and  C_24
REMARK    8  A    between atoms: C_24  and  N_25
REMARK    9  A    between atoms: C_26  and  C_28
REMARK                            x       y       z     vdW  Elec       q    Type
REMARK                         _______ _______ _______ _____ _____    ______ ____
ROOT
ATOM      4  C   UNL     1      -4.497   1.227  24.471  0.00  0.00    +0.006 C 
ATOM      5  C   UNL     1      -4.251   1.988  24.263  0.00  0.00    +0.005 C 
ATOM      6  C   UNL     1      -3.673   2.089  23.683  0.00  0.00    +0.027 C 
ATOM     20  C   UNL     1      -3.342   1.432  23.311  0.00  0.00    -0.048 C 
ATOM     21  C   UNL     1      -2.765   1.534  22.731  0.00  0.00    +0.026 C 
ATOM     22  C   UNL     1      -3.588   0.673  23.519  0.00  0.00    -0.033 C 
ATOM     23  C   UNL     1      -4.166   0.570  24.099  0.00  0.00    +0.043 C 
ENDROOT
BRANCH   4   2
ATOM      1  C   UNL     1      -4.853   0.974  25.832  0.00  0.00    +0.000 C 
ATOM      2  C   UNL     1      -5.075   1.126  25.051  0.00  0.00    +0.000 C 
ATOM      3  C   UNL     1      -5.873   1.177  24.852  0.00  0.00    +0.000 C 
ENDBRANCH   4   2
BRANCH   6   7
ATOM      7  C   UNL     1      -3.428   2.849  23.476  0.00  0.00    +0.091 C 
BRANCH   7   8
ATOM      8  C   UNL     1      -3.114   3.351  24.051  0.00  0.00    +0.242 C 
ATOM      9  O   UNL     1      -3.571   3.968  24.354  0.00  0.00    -0.273 OA
ATOM     10  N   UNL     1      -2.343   3.237  24.323  0.00  0.00    -0.201 NA
BRANCH  10  11
ATOM     11  C   UNL     1      -2.030   3.739  24.897  0.00  0.00    +0.141 C 
BRANCH  11  12
ATOM     12  C   UNL     1      -1.398   3.488  25.364  0.00  0.00    -0.001 A 
ATOM     13  C   UNL     1      -1.533   3.209  26.127  0.00  0.00    -0.002 A 
ATOM     14  C   UNL     1      -0.900   2.957  26.594  0.00  0.00    +0.010 A 
ATOM     15  C   UNL     1      -0.132   2.985  26.295  0.00  0.00    +0.068 A 
ATOM     16  C   UNL     1       0.004   3.264  25.531  0.00  0.00    +0.010 A 
ATOM     17  C   UNL     1      -0.628   3.515  25.065  0.00  0.00    -0.002 A 
BRANCH  15  18
ATOM     18  C   UNL     1       0.501   2.733  26.761  0.00  0.00    +0.100 C 
ATOM     19  N   UNL     1       1.134   2.482  27.227  0.00  0.00    -0.191 NA
ENDBRANCH  15  18
ENDBRANCH  11  12
ENDBRANCH  10  11
ENDBRANCH   7   8
ENDBRANCH   6   7
BRANCH  23  24
ATOM     24  C   UNL     1      -4.412  -0.189  24.306  0.00  0.00    +0.119 C 
BRANCH  24  25
ATOM     25  N   UNL     1      -3.854  -0.777  24.460  0.00  0.00    -0.205 NA
ATOM     26  C   UNL     1      -4.034  -1.567  24.306  0.00  0.00    +0.241 C 
ATOM     27  O   UNL     1      -4.772  -1.769  23.997  0.00  0.00    -0.273 OA
BRANCH  26  28
ATOM     28  C   UNL     1      -3.476  -2.155  24.459  0.00  0.00    +0.078 C 
ATOM     29  C   UNL     1      -3.257  -2.849  24.848  0.00  0.00    +0.010 C 
ATOM     30  C   UNL     1      -2.728  -2.479  24.335  0.00  0.00    +0.010 C 
ENDBRANCH  26  28
ENDBRANCH  24  25
ENDBRANCH  23  24
TORSDOF 9
ENDMDL
MODEL 3
REMARK VINA RESULT:      -8.9      2.986      4.563
REMARK  Name = 
REMARK  9 active torsions:
REMARK  status: ('A' for Active; 'I' for Inactive)
REMARK    1  A    between atoms: C_2  and  C_4
REMARK    2  A    between atoms: C_6  and  C_7
REMARK    3  A    between atoms: C_7  and  C_8
REMARK    4  A    between atoms: N_10  and  C_11
REMARK    5  A    between atoms: C_11  and  C_12
REMARK    6  A    between atoms: C_15  and  C_18
REMARK    7  A    between atoms: C_23  and  C_24
REMARK    8  A    between atoms: C_24  and  N_25
REMARK    9  A    between atoms: C_26  and  C_28
REMARK                            x       y       z     vdW  Elec       q    Type
REMARK                         _______ _______ _______ _____ _____    ______ ____
ROOT
ATOM      4  C   UNL     1      -1.154   0.901  24.590  0.00  0.00    +0.006 C 
ATOM      5  C   UNL     1      -1.877   0.591  24.840  0.00  0.00    +0.005 C 
ATOM      6  C   UNL     1      -2.002  -0.224  24.826  0.00  0.00    +0.027 C 
ATOM     20  C   UNL     1      -1.405  -0.729  24.564  0.00  0.00    -0.048 C 
ATOM     21  C   UNL     1      -1.531  -1.544  24.551  0.00  0.00    +0.026 C 
ATOM     22  C   UNL     1      -0.683  -0.419  24.315  0.00  0.00    -0.033 C 
ATOM     23  C   UNL     1      -0.557   0.396  24.327  0.00  0.00    +0.043 C 
ENDROOT
BRANCH   4   2
ATOM      1  C   UNL     1      -0.732   2.077  25.284  0.00  0.00    +0.000 C 
ATOM      2  C   UNL     1      -1.028   1.716  24.603  0.00  0.00    +0.000 C 
ATOM      3  C   UNL     1      -1.200   2.171  23.938  0.00  0.00    +0.000 C 
ENDBRANCH   4   2
BRANCH   6   7
ATOM      7  C   UNL     1      -2.725  -0.533  25.076  0.00  0.00    +0.091 C 
BRANCH   7   8
ATOM      8  C   UNL     1      -3.427  -0.266  24.735  0.00  0.00    +0.242 C 
ATOM      9  O   UNL     1      -3.676  -0.572  24.010  0.00  0.00    -0.273 OA
ATOM     10  N   UNL     1      -3.881   0.307  25.119  0.00  0.00    -0.201 NA
BRANCH  10  11
ATOM     11  C   UNL     1      -4.583   0.574  24.777  0.00  0.00    +0.141 C 
BRANCH  11  12
ATOM     12  C   UNL     1      -4.880   1.318  24.975  0.00  0.00    -0.001 A 
ATOM     13  C   UNL     1      -4.714   1.968  24.498  0.00  0.00    -0.002 A 
ATOM     14  C   UNL     1      -5.012   2.713  24.696  0.00  0.00    +0.010 A 
ATOM     15  C   UNL     1      -5.475   2.804  25.372  0.00  0.00    +0.068 A 
ATOM     16  C   UNL     1      -5.641   2.153  25.850  0.00  0.00    +0.010 A 
ATOM     17  C   UNL     1      -5.344   1.409  25.652  0.00  0.00    -0.002 A 
BRANCH  15  18
ATOM     18  C   UNL     1      -5.772   3.548  25.571  0.00  0.00    +0.100 C 
ATOM     19  N   UNL     1      -6.070   4.292  25.769  0.00  0.00    -0.191 NA
ENDBRANCH  15  18
ENDBRANCH  11  12
ENDBRANCH  10  11
ENDBRANCH   7   8
ENDBRANCH   6   7
BRANCH  23  24
ATOM     24  C   UNL     1       0.165   0.706  24.078  0.00  0.00    +0.119 C 
BRANCH  24  25
ATOM     25  N   UNL     1       0.611   0.309  23.508  0.00  0.00    -0.205 NA
ATOM     26  C   UNL     1       1.371   0.568  23.324  0.00  0.00    +0.241 C 
ATOM     27  O   UNL     1       1.687   1.226  23.709  0.00  0.00    -0.273 OA
BRANCH  26  28
ATOM     28  C   UNL     1       1.817   0.171  22.754  0.00  0.00    +0.078 C 
ATOM     29  C   UNL     1       2.537  -0.139  22.498  0.00  0.00    +0.010 C 
ATOM     30  C   UNL     1       1.867  -0.205  22.022  0.00  0.00    +0.010 C 
ENDBRANCH  26  28
ENDBRANCH  24  25
ENDBRANCH  23  24
TORSDOF 9
ENDMDL
MODEL 4
REMARK VINA RESULT:      -8.8      1.422      5.395
REMARK  Name = 
REMARK  9 active torsions:
REMARK  status: ('A' for Active; 'I' for Inactive)
REMARK    1  A    between atoms: C_2  and  C_4
REMARK    2  A    between atoms: C_6  and  C_7
REMARK    3  A    between atoms: C_7  and  C_8
REMARK    4  A    between atoms: N_10  and  C_11
REMARK    5  A    between atoms: C_11  and  C_12
REMARK    6  A    between atoms: C_15  and  C_18
REMARK    7  A    between atoms: C_23  and  C_24
REMARK    8  A    between atoms: C_24  and  N_25
REMARK    9  A    between atoms: C_26  and  C_28
REMARK                            x       y       z     vdW  Elec       q    Type
REMARK                         _______ _______ _______ _____ _____    ______ ____
ROOT
ATOM      4  C   UNL     1      -3.804   1.170  24.064  0.00  0.00    +0.006 C 
ATOM      5  C   UNL     1      -4.089   1.883  24.366  0.00  0.00    +0.005 C 
ATOM      6  C   UNL     1      -4.762   1.889  24.844  0.00  0.00    +0.027 C 
ATOM     20  C   UNL     1      -5.149   1.182  25.020  0.00  0.00    -0.048 C 
ATOM     21  C   UNL     1      -5.821   1.188  25.498  0.00  0.00    +0.026 C 
ATOM     22  C   UNL     1      -4.864   0.470  24.718  0.00  0.00    -0.033 C 
ATOM     23  C   UNL     1      -4.192   0.463  24.240  0.00  0.00    +0.043 C 
ENDROOT
BRANCH   4   2
ATOM      1  C   UNL     1      -2.394   0.991  23.914  0.00  0.00    +0.000 C 
ATOM      2  C   UNL     1      -3.132   1.165  23.586  0.00  0.00    +0.000 C 
ATOM      3  C   UNL     1      -3.196   1.332  22.782  0.00  0.00    +0.000 C 
ENDBRANCH   4   2
BRANCH   6   7
ATOM      7  C   UNL     1      -5.046   2.602  25.146  0.00  0.00    +0.091 C 
BRANCH   7   8
ATOM      8  C   UNL     1      -4.578   3.047  25.661  0.00  0.00    +0.242 C 
ATOM      9  O   UNL     1      -4.681   2.978  26.476  0.00  0.00    -0.273 OA
ATOM     10  N   UNL     1      -4.007   3.561  25.358  0.00  0.00    -0.201 NA
BRANCH  10  11
ATOM     11  C   UNL     1      -3.540   4.006  25.872  0.00  0.00    +0.141 C 
BRANCH  11  12
ATOM     12  C   UNL     1      -2.810   4.294  25.620  0.00  0.00    -0.001 A 
ATOM     13  C   UNL     1      -2.774   4.949  25.121  0.00  0.00    -0.002 A 
ATOM     14  C   UNL     1      -2.043   5.237  24.868  0.00  0.00    +0.010 A 
ATOM     15  C   UNL     1      -1.348   4.868  25.115  0.00  0.00    +0.068 A 
ATOM     16  C   UNL     1      -1.383   4.212  25.614  0.00  0.00    +0.010 A 
ATOM     17  C   UNL     1      -2.114   3.925  25.867  0.00  0.00    -0.002 A 
BRANCH  15  18
ATOM     18  C   UNL     1      -0.616   5.155  24.862  0.00  0.00    +0.100 C 
ATOM     19  N   UNL     1       0.115   5.443  24.610  0.00  0.00    -0.191 NA
ENDBRANCH  15  18
ENDBRANCH  11  12
ENDBRANCH  10  11
ENDBRANCH   7   8
ENDBRANCH   6   7
BRANCH  23  24
ATOM     24  C   UNL     1      -3.907  -0.249  23.937  0.00  0.00    +0.119 C 
BRANCH  24  25
ATOM     25  N   UNL     1      -3.760  -0.884  24.444  0.00  0.00    -0.205 NA
ATOM     26  C   UNL     1      -3.779  -1.656  24.155  0.00  0.00    +0.241 C 
ATOM     27  O   UNL     1      -3.946  -1.794  23.359  0.00  0.00    -0.273 OA
BRANCH  26  28
ATOM     28  C   UNL     1      -3.633  -2.290  24.661  0.00  0.00    +0.078 C 
ATOM     29  C   UNL     1      -3.675  -3.097  24.827  0.00  0.00    +0.010 C 
ATOM     30  C   UNL     1      -3.335  -2.581  25.373  0.00  0.00    +0.010 C 
ENDBRANCH  26  28
ENDBRANCH  24  25
ENDBRANCH  23  24
TORSDOF 9
ENDMDL
MODEL 5
REMARK VINA RESULT:      -8.8      2.633      3.087
REMARK  Name = 
REMARK  9 active torsions:
REMARK  status: ('A' for Active; 'I' for Inactive)
REMARK    1  A    between atoms: C_2  and  C_4
REMARK    2  A    between atoms: C_6  and  C_7
REMARK    3  A    between atoms: C_7  and  C_8
REMARK    4  A    between atoms: N_10  and  C_11
REMARK    5  A    between atoms: C_11  and  C_12
REMARK    6  A    between atoms: C_15  and  C_18
REMARK    7  A    between atoms: C_23  and  C_24
REMARK    8  A    between atoms: C_24  and  N_25
REMARK    9  A    between atoms: C_26  and  C_28
REMARK                            x       y       z     vdW  Elec       q    Type
REMARK                         _______ _______ _______ _____ _____    ______ ____
ROOT
ATOM      4  C   UNL     1      -1.142   1.994  24.893  0.00  0.00    +0.006 C 
ATOM      5  C   UNL     1      -1.957   2.129  24.896  0.00  0.00    +0.005 C 
ATOM      6  C   UNL     1      -2.371   2.162  24.183  0.00  0.00    +0.027 C 
ATOM     20  C   UNL     1      -1.971   2.060  23.468  0.00  0.00    -0.048 C 
ATOM     21  C   UNL     1      -2.386   2.093  22.756  0.00  0.00    +0.026 C 
ATOM     22  C   UNL     1      -1.158   1.925  23.466  0.00  0.00    -0.033 C 
ATOM     23  C   UNL     1      -0.743   1.892  24.179  0.00  0.00    +0.043 C 
ENDROOT
BRANCH   4   2
ATOM      1  C   UNL     1      -0.406   2.650  25.927  0.00  0.00    +0.000 C 
ATOM      2  C   UNL     1      -0.729   1.962  25.606  0.00  0.00    +0.000 C 
ATOM      3  C   UNL     1      -0.637   1.242  25.998  0.00  0.00    +0.000 C 
ENDBRANCH   4   2
BRANCH   6   7
ATOM      7  C   UNL     1      -3.184   2.297  24.185  0.00  0.00    +0.091 C 
BRANCH   7   8
ATOM      8  C   UNL     1      -3.687   1.778  24.586  0.00  0.00    +0.242 C 
ATOM      9  O   UNL     1      -4.124   2.044  25.233  0.00  0.00    -0.273 OA
ATOM     10  N   UNL     1      -3.752   0.993  24.338  0.00  0.00    -0.201 NA
BRANCH  10  11
ATOM     11  C   UNL     1      -4.254   0.475  24.738  0.00  0.00    +0.141 C 
BRANCH  11  12
ATOM     12  C   UNL     1      -4.121  -0.338  24.700  0.00  0.00    -0.001 A 
ATOM     13  C   UNL     1      -4.319  -0.756  24.017  0.00  0.00    -0.002 A 
ATOM     14  C   UNL     1      -4.186  -1.570  23.979  0.00  0.00    +0.010 A 
ATOM     15  C   UNL     1      -3.856  -1.964  24.624  0.00  0.00    +0.068 A 
ATOM     16  C   UNL     1      -3.659  -1.546  25.306  0.00  0.00    +0.010 A 
ATOM     17  C   UNL     1      -3.791  -0.733  25.345  0.00  0.00    -0.002 A 
BRANCH  15  18
ATOM     18  C   UNL     1      -3.723  -2.778  24.586  0.00  0.00    +0.100 C 
ATOM     19  N   UNL     1      -3.591  -3.592  24.548  0.00  0.00    -0.191 NA
ENDBRANCH  15  18
ENDBRANCH  11  12
ENDBRANCH  10  11
ENDBRANCH   7   8
ENDBRANCH   6   7
BRANCH  23  24
ATOM     24  C   UNL     1       0.070   1.757  24.177  0.00  0.00    +0.119 C 
BRANCH  24  25
ATOM     25  N   UNL     1       0.387   1.145  23.723  0.00  0.00    -0.205 NA
ATOM     26  C   UNL     1       1.190   1.140  23.540  0.00  0.00    +0.241 C 
ATOM     27  O   UNL     1       1.679   1.747  23.810  0.00  0.00    -0.273 OA
BRANCH  26  28
ATOM     28  C   UNL     1       1.507   0.527  23.086  0.00  0.00    +0.078 C 
ATOM     29  C   UNL     1       2.151   0.178  22.706  0.00  0.00    +0.010 C 
ATOM     30  C   UNL     1       1.410  -0.184  22.681  0.00  0.00    +0.010 C 
ENDBRANCH  26  28
ENDBRANCH  24  25
ENDBRANCH  23  24
TORSDOF 9
ENDMDL
MODEL 6
REMARK VINA RESULT:      -8.7      2.208      3.596
REMARK  Name = 
REMARK  9 active torsions:
REMARK  status: ('A' for Active; 'I' for Inactive)
REMARK    1  A    between atoms: C_2  and  C_4
REMARK    2  A    between atoms: C_6  and  C_7
REMARK    3  A    between atoms: C_7  and  C_8
REMARK    4  A    between atoms: N_10  and  C_11
REMARK    5  A    between atoms: C_11  and  C_12
REMARK    6  A    between atoms: C_15  and  C_18
REMARK    7  A    between atoms: C_23  and  C_24
REMARK    8  A    between atoms: C_24  and  N_25
REMARK    9  A    between atoms: C_26  and  C_28
REMARK                            x       y       z     vdW  Elec       q    Type
REMARK                         _______ _______ _______ _____ _____    ______ ____
ROOT
ATOM      4  C   UNL     1      -2.178   2.084  23.697  0.00  0.00    +0.006 C 
ATOM      5  C   UNL     1      -1.462   1.697  23.837  0.00  0.00    +0.005 C 
ATOM      6  C   UNL     1      -1.039   1.851  24.527  0.00  0.00    +0.027 C 
ATOM     20  C   UNL     1      -1.330   2.391  25.079  0.00  0.00    -0.048 C 
ATOM     21  C   UNL     1      -0.906   2.544  25.769  0.00  0.00    +0.026 C 
ATOM     22  C   UNL     1      -2.044   2.778  24.939  0.00  0.00    -0.033 C 
ATOM     23  C   UNL     1      -2.469   2.625  24.248  0.00  0.00    +0.043 C 
ENDROOT
BRANCH   4   2
ATOM      1  C   UNL     1      -3.182   1.343  23.000  0.00  0.00    +0.000 C 
ATOM      2  C   UNL     1      -2.602   1.930  23.006  0.00  0.00    +0.000 C 
ATOM      3  C   UNL     1      -2.446   2.362  22.322  0.00  0.00    +0.000 C 
ENDBRANCH   4   2
BRANCH   6   7
ATOM      7  C   UNL     1      -0.324   1.463  24.667  0.00  0.00    +0.091 C 
BRANCH   7   8
ATOM      8  C   UNL     1      -0.235   0.672  24.447  0.00  0.00    +0.242 C 
ATOM      9  O   UNL     1       0.229   0.475  23.794  0.00  0.00    -0.273 OA
ATOM     10  N   UNL     1      -0.610   0.079  24.882  0.00  0.00    -0.201 NA
BRANCH  10  11
ATOM     11  C   UNL     1      -0.520  -0.712  24.663  0.00  0.00    +0.141 C 
BRANCH  11  12
ATOM     12  C   UNL     1      -1.161  -1.228  24.713  0.00  0.00    -0.001 A 
ATOM     13  C   UNL     1      -1.675  -1.186  25.356  0.00  0.00    -0.002 A 
ATOM     14  C   UNL     1      -2.317  -1.703  25.406  0.00  0.00    +0.010 A 
ATOM     15  C   UNL     1      -2.443  -2.261  24.811  0.00  0.00    +0.068 A 
ATOM     16  C   UNL     1      -1.930  -2.302  24.168  0.00  0.00    +0.010 A 
ATOM     17  C   UNL     1      -1.288  -1.786  24.118  0.00  0.00    -0.002 A 
BRANCH  15  18
ATOM     18  C   UNL     1      -3.085  -2.778  24.861  0.00  0.00    +0.100 C 
ATOM     19  N   UNL     1      -3.727  -3.294  24.911  0.00  0.00    -0.191 NA
ENDBRANCH  15  18
ENDBRANCH  11  12
ENDBRANCH  10  11
ENDBRANCH   7   8
ENDBRANCH   6   7
BRANCH  23  24
ATOM     24  C   UNL     1      -3.183   3.012  24.108  0.00  0.00    +0.119 C 
BRANCH  24  25
ATOM     25  N   UNL     1      -3.784   2.987  24.673  0.00  0.00    -0.205 NA
ATOM     26  C   UNL     1      -4.357   3.580  24.694  0.00  0.00    +0.241 C 
ATOM     27  O   UNL     1      -4.329   4.199  24.149  0.00  0.00    -0.273 OA
BRANCH  26  28
ATOM     28  C   UNL     1      -4.958   3.554  25.258  0.00  0.00    +0.078 C 
ATOM     29  C   UNL     1      -5.495   3.944  25.749  0.00  0.00    +0.010 C 
ATOM     30  C   UNL     1      -5.461   3.120  25.746  0.00  0.00    +0.010 C 
ENDBRANCH  26  28
ENDBRANCH  24  25
ENDBRANCH  23  24
TORSDOF 9
ENDMDL
MODEL 7
REMARK VINA RESULT:      -8.6      2.951      4.685
REMARK  Name = 
REMARK  9 active torsions:
REMARK  status: ('A' for Active; 'I' for Inactive)
REMARK    1  A    between atoms: C_2  and  C_4
REMARK    2  A    between atoms: C_6  and  C_7
REMARK    3  A    between atoms: C_7  and  C_8
REMARK    4  A    between atoms: N_10  and  C_11
REMARK    5  A    between atoms: C_11  and  C_12
REMARK    6  A    between atoms: C_15  and  C_18
REMARK    7  A    between atoms: C_23  and  C_24
REMARK    8  A    between atoms: C_24  and  N_25
REMARK    9  A    between atoms: C_26  and  C_28
REMARK                            x       y       z     vdW  Elec       q    Type
REMARK                         _______ _______ _______ _____ _____    ______ ____
ROOT
ATOM      4  C   UNL     1      -1.035   1.176  24.969  0.00  0.00    +0.006 C 
ATOM      5  C   UNL     1      -1.333   1.845  25.351  0.00  0.00    +0.005 C 
ATOM      6  C   UNL     1      -0.954   2.572  25.263  0.00  0.00    +0.027 C 
ATOM     20  C   UNL     1      -0.278   2.632  24.794  0.00  0.00    -0.048 C 
ATOM     21  C   UNL     1       0.100   3.359  24.707  0.00  0.00    +0.026 C 
ATOM     22  C   UNL     1       0.020   1.964  24.413  0.00  0.00    -0.033 C 
ATOM     23  C   UNL     1      -0.358   1.236  24.500  0.00  0.00    +0.043 C 
ENDROOT
BRANCH   4   2
ATOM      1  C   UNL     1      -1.230  -0.037  25.699  0.00  0.00    +0.000 C 
ATOM      2  C   UNL     1      -1.414   0.449  25.057  0.00  0.00    +0.000 C 
ATOM      3  C   UNL     1      -1.975   0.207  24.504  0.00  0.00    +0.000 C 
ENDBRANCH   4   2
BRANCH   6   7
ATOM      7  C   UNL     1      -1.252   3.240  25.645  0.00  0.00    +0.091 C 
BRANCH   7   8
ATOM      8  C   UNL     1      -1.927   3.615  25.352  0.00  0.00    +0.242 C 
ATOM      9  O   UNL     1      -1.852   4.251  24.832  0.00  0.00    -0.273 OA
ATOM     10  N   UNL     1      -2.676   3.354  25.580  0.00  0.00    -0.201 NA
BRANCH  10  11
ATOM     11  C   UNL     1      -3.350   3.729  25.288  0.00  0.00    +0.141 C 
BRANCH  11  12
ATOM     12  C   UNL     1      -4.060   3.314  25.233  0.00  0.00    -0.001 A 
ATOM     13  C   UNL     1      -4.554   3.252  25.890  0.00  0.00    -0.002 A 
ATOM     14  C   UNL     1      -5.265   2.837  25.834  0.00  0.00    +0.010 A 
ATOM     15  C   UNL     1      -5.481   2.484  25.120  0.00  0.00    +0.068 A 
ATOM     16  C   UNL     1      -4.988   2.547  24.463  0.00  0.00    +0.010 A 
ATOM     17  C   UNL     1      -4.277   2.961  24.518  0.00  0.00    -0.002 A 
BRANCH  15  18
ATOM     18  C   UNL     1      -6.193   2.069  25.065  0.00  0.00    +0.100 C 
ATOM     19  N   UNL     1      -6.904   1.654  25.010  0.00  0.00    -0.191 NA
ENDBRANCH  15  18
ENDBRANCH  11  12
ENDBRANCH  10  11
ENDBRANCH   7   8
ENDBRANCH   6   7
BRANCH  23  24
ATOM     24  C   UNL     1      -0.061   0.568  24.119  0.00  0.00    +0.119 C 
BRANCH  24  25
ATOM     25  N   UNL     1       0.619   0.626  23.655  0.00  0.00    -0.205 NA
ATOM     26  C   UNL     1       0.910  -0.040  23.266  0.00  0.00    +0.241 C 
ATOM     27  O   UNL     1       0.523  -0.764  23.340  0.00  0.00    -0.273 OA
BRANCH  26  28
ATOM     28  C   UNL     1       1.590   0.017  22.801  0.00  0.00    +0.078 C 
ATOM     29  C   UNL     1       1.964  -0.056  22.070  0.00  0.00    +0.010 C 
ATOM     30  C   UNL     1       2.393   0.190  22.730  0.00  0.00    +0.010 C 
ENDBRANCH  26  28
ENDBRANCH  24  25
ENDBRANCH  23  24
TORSDOF 9
ENDMDL
MODEL 8
REMARK VINA RESULT:      -8.5      2.065      3.619
REMARK  Name = 
REMARK  9 active torsions:
REMARK  status: ('A' for Active; 'I' for Inactive)
REMARK    1  A    between atoms: C_2  and  C_4
REMARK    2  A    between atoms: C_6  and  C_7
REMARK    3  A    between atoms: C_7  and  C_8
REMARK    4  A    between atoms: N_10  and  C_11
REMARK    5  A    between atoms: C_11  and  C_12
REMARK    6  A    between atoms: C_15  and  C_18
REMARK    7  A    between atoms: C_23  and  C_24
REMARK    8  A    between atoms: C_24  and  N_25
REMARK    9  A    between atoms: C_26  and  C_28
REMARK                            x       y       z     vdW  Elec       q    Type
REMARK                         _______ _______ _______ _____ _____    ______ ____
ROOT
ATOM      4  C   UNL     1      -2.675   3.566  25.116  0.00  0.00    +0.006 C 
ATOM      5  C   UNL     1      -1.983   3.387  24.703  0.00  0.00    +0.005 C 
ATOM      6  C   UNL     1      -2.023   2.965  23.995  0.00  0.00    +0.027 C 
ATOM     20  C   UNL     1      -2.755   2.722  23.700  0.00  0.00    -0.048 C 
ATOM     21  C   UNL     1      -2.795   2.301  22.993  0.00  0.00    +0.026 C 
ATOM     22  C   UNL     1      -3.445   2.901  24.113  0.00  0.00    -0.033 C 
ATOM     23  C   UNL     1      -3.406   3.323  24.822  0.00  0.00    +0.043 C 
ENDROOT
BRANCH   4   2
ATOM      1  C   UNL     1      -2.677   4.812  25.816  0.00  0.00    +0.000 C 
ATOM      2  C   UNL     1      -2.634   3.987  25.824  0.00  0.00    +0.000 C 
ATOM      3  C   UNL     1      -2.550   3.586  26.539  0.00  0.00    +0.000 C 
ENDBRANCH   4   2
BRANCH   6   7
ATOM      7  C   UNL     1      -1.332   2.787  23.582  0.00  0.00    +0.091 C 
BRANCH   7   8
ATOM      8  C   UNL     1      -0.746   2.326  23.939  0.00  0.00    +0.242 C 
ATOM      9  O   UNL     1      -0.071   2.685  24.248  0.00  0.00    -0.273 OA
ATOM     10  N   UNL     1      -0.837   1.507  23.986  0.00  0.00    -0.201 NA
BRANCH  10  11
ATOM     11  C   UNL     1      -0.252   1.047  24.342  0.00  0.00    +0.141 C 
BRANCH  11  12
ATOM     12  C   UNL     1      -0.403   0.257  24.523  0.00  0.00    -0.001 A 
ATOM     13  C   UNL     1      -0.185  -0.336  23.995  0.00  0.00    -0.002 A 
ATOM     14  C   UNL     1      -0.336  -1.127  24.176  0.00  0.00    +0.010 A 
ATOM     15  C   UNL     1      -0.707  -1.323  24.887  0.00  0.00    +0.068 A 
ATOM     16  C   UNL     1      -0.925  -0.730  25.415  0.00  0.00    +0.010 A 
ATOM     17  C   UNL     1      -0.774   0.061  25.234  0.00  0.00    -0.002 A 
BRANCH  15  18
ATOM     18  C   UNL     1      -0.858  -2.114  25.069  0.00  0.00    +0.100 C 
ATOM     19  N   UNL     1      -1.009  -2.904  25.250  0.00  0.00    -0.191 NA
ENDBRANCH  15  18
ENDBRANCH  11  12
ENDBRANCH  10  11
ENDBRANCH   7   8
ENDBRANCH   6   7
BRANCH  23  24
ATOM     24  C   UNL     1      -4.097   3.502  25.235  0.00  0.00    +0.119 C 
BRANCH  24  25
ATOM     25  N   UNL     1      -4.660   2.915  25.371  0.00  0.00    -0.205 NA
ATOM     26  C   UNL     1      -5.432   3.123  25.574  0.00  0.00    +0.241 C 
ATOM     27  O   UNL     1      -5.640   3.918  25.642  0.00  0.00    -0.273 OA
BRANCH  26  28
ATOM     28  C   UNL     1      -5.996   2.536  25.711  0.00  0.00    +0.078 C 
ATOM     29  C   UNL     1      -6.407   2.047  26.233  0.00  0.00    +0.010 C 
ATOM     30  C   UNL     1      -6.561   2.009  25.423  0.00  0.00    +0.010 C 
ENDBRANCH  26  28
ENDBRANCH  24  25
ENDBRANCH  23  24
TORSDOF 9
ENDMDL
MODEL 9
REMARK VINA RESULT:      -8.4      4.143      5.583
REMARK  Name = 
REMARK  9 active torsions:
REMARK  status: ('A' for Active; 'I' for Inactive)
REMARK    1  A    between atoms: C_2  and  C_4
REMARK    2  A    between atoms: C_6  and  C_7
REMARK    3  A    between atoms: C_7  and  C_8
REMARK    4  A    between atoms: N_10  and  C_11
REMARK    5  A    between atoms: C_11  and  C_12
REMARK    6  A    between atoms: C_15  and  C_18
REMARK    7  A    between atoms: C_23  and  C_24
REMARK    8  A    between atoms: C_24  and  N_25
REMARK    9  A    between atoms: C_26  and  C_28
REMARK                            x       y       z     vdW  Elec       q    Type
REMARK                         _______ _______ _______ _____ _____    ______ ____
ROOT
ATOM      4  C   UNL     1      -0.818   1.772  24.617  0.00  0.00    +0.006 C 
ATOM      5  C   UNL     1      -0.277   1.199  24.371  0.00  0.00    +0.005 C 
ATOM      6  C   UNL     1      -0.533   0.431  24.214  0.00  0.00    +0.027 C 
ATOM     20  C   UNL     1      -1.329   0.235  24.302  0.00  0.00    -0.048 C 
ATOM     21  C   UNL     1      -1.584  -0.533  24.145  0.00  0.00    +0.026 C 
ATOM     22  C   UNL     1      -1.869   0.807  24.548  0.00  0.00    -0.033 C 
ATOM     23  C   UNL     1      -1.615   1.576  24.706  0.00  0.00    +0.043 C 
ENDROOT
BRANCH   4   2
ATOM      1  C   UNL     1      -0.293   2.739  25.530  0.00  0.00    +0.000 C 
ATOM      2  C   UNL     1      -0.562   2.540  24.774  0.00  0.00    +0.000 C 
ATOM      3  C   UNL     1      -0.574   3.109  24.179  0.00  0.00    +0.000 C 
ENDBRANCH   4   2
BRANCH   6   7
ATOM      7  C   UNL     1       0.009  -0.141  23.968  0.00  0.00    +0.091 C 
BRANCH   7   8
ATOM      8  C   UNL     1       0.504   0.010  23.324  0.00  0.00    +0.242 C 
ATOM      9  O   UNL     1       0.180   0.174  22.584  0.00  0.00    -0.273 OA
ATOM     10  N   UNL     1       1.323  -0.002  23.423  0.00  0.00    -0.201 NA
BRANCH  10  11
ATOM     11  C   UNL     1       1.818   0.149  22.780  0.00  0.00    +0.141 C 
BRANCH  11  12
ATOM     12  C   UNL     1       2.636   0.162  22.884  0.00  0.00    -0.001 A 
ATOM     13  C   UNL     1       3.034  -0.524  23.109  0.00  0.00    -0.002 A 
ATOM     14  C   UNL     1       3.853  -0.510  23.214  0.00  0.00    +0.010 A 
ATOM     15  C   UNL     1       4.272   0.190  23.092  0.00  0.00    +0.068 A 
ATOM     16  C   UNL     1       3.874   0.875  22.867  0.00  0.00    +0.010 A 
ATOM     17  C   UNL     1       3.056   0.862  22.763  0.00  0.00    -0.002 A 
BRANCH  15  18
ATOM     18  C   UNL     1       5.091   0.203  23.196  0.00  0.00    +0.100 C 
ATOM     19  N   UNL     1       5.909   0.217  23.300  0.00  0.00    -0.191 NA
ENDBRANCH  15  18
ENDBRANCH  11  12
ENDBRANCH  10  11
ENDBRANCH   7   8
ENDBRANCH   6   7
BRANCH  23  24
ATOM     24  C   UNL     1      -2.155   2.148  24.952  0.00  0.00    +0.119 C 
BRANCH  24  25
ATOM     25  N   UNL     1      -2.964   2.021  24.854  0.00  0.00    -0.205 NA
ATOM     26  C   UNL     1      -3.507   2.563  25.156  0.00  0.00    +0.241 C 
ATOM     27  O   UNL     1      -3.240   3.234  25.555  0.00  0.00    -0.273 OA
BRANCH  26  28
ATOM     28  C   UNL     1      -4.316   2.436  25.058  0.00  0.00    +0.078 C 
ATOM     29  C   UNL     1      -5.036   2.156  25.349  0.00  0.00    +0.010 C 
ATOM     30  C   UNL     1      -4.998   2.496  24.598  0.00  0.00    +0.010 C 
ENDBRANCH  26  28
ENDBRANCH  24  25
ENDBRANCH  23  24
TORSDOF 9
ENDMDL
MODEL 10
REMARK VINA RESULT:      -8.3      2.533      5.839
REMARK  Name = 
REMARK  9 active torsions:
REMARK  status: ('A' for Active; 'I' for Inactive)
REMARK    1  A    between atoms: C_2  and  C_4
REMARK    2  A    between atoms: C_6  and  C_7
REMARK    3  A    between atoms: C_7  and  C_8
REMARK    4  A    between atoms: N_10  and  C_11
REMARK    5  A    between atoms: C_11  and  C_12
REMARK    6  A    between atoms: C_15  and  C_18
REMARK    7  A    between atoms: C_23  and  C_24
REMARK    8  A    between atoms: C_24  and  N_25
REMARK    9  A    between atoms: C_26  and  C_28
REMARK                            x       y       z     vdW  Elec       q    Type
REMARK                         _______ _______ _______ _____ _____    ______ ____
ROOT
ATOM      4  C   UNL     1      -0.463   0.421  24.249  0.00  0.00    +0.006 C 
ATOM      5  C   UNL     1      -0.268   1.166  24.545  0.00  0.00    +0.005 C 
ATOM      6  C   UNL     1      -0.420   1.347  25.336  0.00  0.00    +0.027 C 
ATOM     20  C   UNL     1      -0.766   0.784  25.829  0.00  0.00    -0.048 C 
ATOM     21  C   UNL     1      -0.918   0.966  26.619  0.00  0.00    +0.026 C 
ATOM     22  C   UNL     1      -0.961   0.040  25.532  0.00  0.00    -0.033 C 
ATOM     23  C   UNL     1      -0.809  -0.142  24.742  0.00  0.00    +0.043 C 
ENDROOT
BRANCH   4   2
ATOM      1  C   UNL     1      -0.865   0.432  22.877  0.00  0.00    +0.000 C 
ATOM      2  C   UNL     1      -0.311   0.240  23.458  0.00  0.00    +0.000 C 
ATOM      3  C   UNL     1       0.394  -0.133  23.248  0.00  0.00    +0.000 C 
ENDBRANCH   4   2
BRANCH   6   7
ATOM      7  C   UNL     1      -0.225   2.092  25.632  0.00  0.00    +0.091 C 
BRANCH   7   8
ATOM      8  C   UNL     1      -0.595   2.765  25.329  0.00  0.00    +0.242 C 
ATOM      9  O   UNL     1      -0.198   3.247  24.790  0.00  0.00    -0.273 OA
ATOM     10  N   UNL     1      -1.362   2.956  25.567  0.00  0.00    -0.201 NA
BRANCH  10  11
ATOM     11  C   UNL     1      -1.731   3.629  25.264  0.00  0.00    +0.141 C 
BRANCH  11  12
ATOM     12  C   UNL     1      -2.549   3.716  25.333  0.00  0.00    -0.001 A 
ATOM     13  C   UNL     1      -3.038   3.542  24.693  0.00  0.00    -0.002 A 
ATOM     14  C   UNL     1      -3.856   3.629  24.763  0.00  0.00    +0.010 A 
ATOM     15  C   UNL     1      -4.183   3.890  25.473  0.00  0.00    +0.068 A 
ATOM     16  C   UNL     1      -3.694   4.064  26.114  0.00  0.00    +0.010 A 
ATOM     17  C   UNL     1      -2.877   3.977  26.045  0.00  0.00    -0.002 A 
BRANCH  15  18
ATOM     18  C   UNL     1      -5.001   3.977  25.543  0.00  0.00    +0.100 C 
ATOM     19  N   UNL     1      -5.819   4.064  25.612  0.00  0.00    -0.191 NA
ENDBRANCH  15  18
ENDBRANCH  11  12
ENDBRANCH  10  11
ENDBRANCH   7   8
ENDBRANCH   6   7
BRANCH  23  24
ATOM     24  C   UNL     1      -1.004  -0.886  24.445  0.00  0.00    +0.119 C 
BRANCH  24  25
ATOM     25  N   UNL     1      -1.760  -1.194  24.565  0.00  0.00    -0.205 NA
ATOM     26  C   UNL     1      -1.886  -2.008  24.520  0.00  0.00    +0.241 C 
ATOM     27  O   UNL     1      -1.257  -2.514  24.355  0.00  0.00    -0.273 OA
BRANCH  26  28
ATOM     28  C   UNL     1      -2.643  -2.316  24.639  0.00  0.00    +0.078 C 
ATOM     29  C   UNL     1      -3.210  -2.645  25.140  0.00  0.00    +0.010 C 
ATOM     30  C   UNL     1      -3.385  -2.519  24.344  0.00  0.00    +0.010 C 
ENDBRANCH  26  28
ENDBRANCH  24  25
ENDBRANCH  23  24
TORSDOF 9
ENDMDL
