MODEL 1
REMARK VINA RESULT:     -12.8      0.000      0.000
REMARK  Name = 
REMARK  5 active torsions:
REMARK  status: ('A' for Active; 'I' for Inactive)
REMARK    1  A    between atoms: N_3  and  C_4
REMARK    2  A    between atoms: C_4  and  C_5
REMARK    3  A    between atoms: C_12  and  C_13
REMARK    4  A    between atoms: C_13  and  N_14
REMARK    5  A    between atoms: N_23  and  C_24
REMARK                            x       y       z     vdW  Elec       q    Type
REMARK                         _______ _______ _______ _____ _____    ______ ____
ROOT
ATOM      5  C   UNL     1      -4.584   2.533  24.755  0.00  0.00    +0.079 C 
ATOM      6  C   UNL     1      -5.218   2.131  24.959  0.00  0.00    +0.018 C 
ATOM      7  C   UNL     1      -5.273   1.322  24.991  0.00  0.00    +0.006 C 
ATOM      8  C   UNL     1      -6.088   1.054  25.248  0.00  0.00    +0.017 C 
ATOM      9  C   UNL     1      -5.626   1.490  25.097  0.00  0.00    +0.072 C 
ATOM     10  N   UNL     1      -4.648   1.711  24.790  0.00  0.00    -0.272 NA
ATOM     11  C   UNL     1      -4.050   1.044  24.618  0.00  0.00    +0.074 C 
ATOM     12  C   UNL     1      -4.692   0.687  24.823  0.00  0.00    +0.036 C 
ENDROOT
BRANCH   5   4
ATOM      4  C   UNL     1      -4.171   3.233  24.614  0.00  0.00    +0.133 C 
BRANCH   4   3
ATOM      1  O   UNL     1      -2.802   4.007  24.116  0.00  0.00    -0.249 OA
ATOM      2  C   UNL     1      -2.944   3.898  24.922  0.00  0.00    +0.344 C 
ATOM      3  N   UNL     1      -3.629   3.511  25.170  0.00  0.00    -0.185 NA
ATOM     23  N   UNL     1      -2.403   4.176  25.478  0.00  0.00    -0.161 NA
BRANCH  23  24
ATOM     24  C   UNL     1      -1.717   4.564  25.229  0.00  0.00    +0.075 A 
ATOM     25  C   UNL     1      -1.715   5.385  25.145  0.00  0.00    +0.017 A 
ATOM     26  C   UNL     1      -1.031   5.771  24.897  0.00  0.00    +0.001 A 
ATOM     27  C   UNL     1      -0.348   5.338  24.732  0.00  0.00    +0.000 A 
ATOM     28  C   UNL     1      -0.351   4.517  24.816  0.00  0.00    +0.001 A 
ATOM     29  C   UNL     1      -1.035   4.131  25.065  0.00  0.00    +0.017 A 
ENDBRANCH  23  24
ENDBRANCH   4   3
ENDBRANCH   5   4
BRANCH  12  13
ATOM     13  C   UNL     1      -4.815  -0.127  24.877  0.00  0.00    +0.092 C 
BRANCH  13  14
ATOM     14  N   UNL     1      -4.183  -0.630  25.047  0.00  0.00    -0.307 N 
ATOM     15  C   UNL     1      -3.601  -0.501  25.618  0.00  0.00    +0.095 C 
ATOM     16  C   UNL     1      -3.080  -1.140  25.601  0.00  0.00    +0.049 C 
ATOM     17  C   UNL     1      -3.341  -1.665  25.018  0.00  0.00    -0.007 A 
ATOM     18  C   UNL     1      -3.045  -2.389  24.756  0.00  0.00    -0.003 A 
ATOM     19  C   UNL     1      -3.430  -2.797  24.152  0.00  0.00    -0.000 A 
ATOM     20  C   UNL     1      -4.112  -2.481  23.810  0.00  0.00    +0.001 A 
ATOM     21  C   UNL     1      -4.407  -1.757  24.072  0.00  0.00    +0.014 A 
ATOM     22  C   UNL     1      -4.022  -1.349  24.677  0.00  0.00    +0.044 A 
ENDBRANCH  13  14
ENDBRANCH  12  13
TORSDOF 5
ENDMDL
MODEL 2
REMARK VINA RESULT:     -12.7      1.131      5.602
REMARK  Name = 
REMARK  5 active torsions:
REMARK  status: ('A' for Active; 'I' for Inactive)
REMARK    1  A    between atoms: N_3  and  C_4
REMARK    2  A    between atoms: C_4  and  C_5
REMARK    3  A    between atoms: C_12  and  C_13
REMARK    4  A    between atoms: C_13  and  N_14
REMARK    5  A    between atoms: N_23  and  C_24
REMARK                            x       y       z     vdW  Elec       q    Type
REMARK                         _______ _______ _______ _____ _____    ______ ____
ROOT
ATOM      5  C   UNL     1      -4.596   1.576  24.883  0.00  0.00    +0.079 C 
ATOM      6  C   UNL     1      -4.862   2.243  25.182  0.00  0.00    +0.018 C 
ATOM      7  C   UNL     1      -4.412   2.896  25.352  0.00  0.00    +0.006 C 
ATOM      8  C   UNL     1      -4.907   3.563  25.690  0.00  0.00    +0.017 C 
ATOM      9  C   UNL     1      -4.799   2.967  25.445  0.00  0.00    +0.072 C 
ATOM     10  N   UNL     1      -4.144   2.245  25.060  0.00  0.00    -0.272 NA
ATOM     11  C   UNL     1      -3.253   2.420  24.974  0.00  0.00    +0.074 C 
ATOM     12  C   UNL     1      -3.554   3.057  25.267  0.00  0.00    +0.036 C 
ENDROOT
BRANCH   5   4
ATOM      4  C   UNL     1      -4.690   0.805  24.607  0.00  0.00    +0.133 C 
BRANCH   4   3
ATOM      1  O   UNL     1      -3.983  -0.524  23.929  0.00  0.00    -0.249 OA
ATOM      2  C   UNL     1      -4.116  -0.498  24.743  0.00  0.00    +0.344 C 
ATOM      3  N   UNL     1      -4.469   0.167  25.082  0.00  0.00    -0.185 NA
ATOM     23  N   UNL     1      -3.897  -1.135  25.218  0.00  0.00    -0.161 NA
BRANCH  23  24
ATOM     24  C   UNL     1      -3.544  -1.800  24.879  0.00  0.00    +0.075 A 
ATOM     25  C   UNL     1      -2.723  -1.882  24.891  0.00  0.00    +0.017 A 
ATOM     26  C   UNL     1      -2.370  -2.546  24.552  0.00  0.00    +0.001 A 
ATOM     27  C   UNL     1      -2.838  -3.128  24.202  0.00  0.00    +0.000 A 
ATOM     28  C   UNL     1      -3.659  -3.046  24.190  0.00  0.00    +0.001 A 
ATOM     29  C   UNL     1      -4.011  -2.382  24.529  0.00  0.00    +0.017 A 
ENDBRANCH  23  24
ENDBRANCH   4   3
ENDBRANCH   5   4
BRANCH  12  13
ATOM     13  C   UNL     1      -3.155   3.752  25.463  0.00  0.00    +0.092 C 
BRANCH  13  14
ATOM     14  N   UNL     1      -2.332   3.781  25.425  0.00  0.00    -0.307 N 
ATOM     15  C   UNL     1      -1.816   3.160  25.600  0.00  0.00    +0.095 C 
ATOM     16  C   UNL     1      -1.045   3.430  25.489  0.00  0.00    +0.049 C 
ATOM     17  C   UNL     1      -1.084   4.218  25.245  0.00  0.00    -0.007 A 
ATOM     18  C   UNL     1      -0.496   4.765  25.054  0.00  0.00    -0.003 A 
ATOM     19  C   UNL     1      -0.705   5.529  24.823  0.00  0.00    -0.000 A 
ATOM     20  C   UNL     1      -1.500   5.746  24.783  0.00  0.00    +0.001 A 
ATOM     21  C   UNL     1      -2.087   5.198  24.975  0.00  0.00    +0.014 A 
ATOM     22  C   UNL     1      -1.878   4.434  25.206  0.00  0.00    +0.044 A 
ENDBRANCH  13  14
ENDBRANCH  12  13
TORSDOF 5
ENDMDL
MODEL 3
REMARK VINA RESULT:     -11.6      1.853      2.925
REMARK  Name = 
REMARK  5 active torsions:
REMARK  status: ('A' for Active; 'I' for Inactive)
REMARK    1  A    between atoms: N_3  and  C_4
REMARK    2  A    between atoms: C_4  and  C_5
REMARK    3  A    between atoms: C_12  and  C_13
REMARK    4  A    between atoms: C_13  and  N_14
REMARK    5  A    between atoms: N_23  and  C_24
REMARK                            x       y       z     vdW  Elec       q    Type
REMARK                         _______ _______ _______ _____ _____    ______ ____
ROOT
ATOM      5  C   UNL     1      -0.544   0.722  24.627  0.00  0.00    +0.079 C 
ATOM      6  C   UNL     1      -0.372   0.004  24.872  0.00  0.00    +0.018 C 
ATOM      7  C   UNL     1      -0.903  -0.601  24.968  0.00  0.00    +0.006 C 
ATOM      8  C   UNL     1      -0.505  -1.350  25.259  0.00  0.00    +0.017 C 
ATOM      9  C   UNL     1      -0.531  -0.726  25.067  0.00  0.00    +0.072 C 
ATOM     10  N   UNL     1      -1.078   0.101  24.727  0.00  0.00    -0.272 NA
ATOM     11  C   UNL     1      -1.979   0.043  24.596  0.00  0.00    +0.074 C 
ATOM     12  C   UNL     1      -1.769  -0.649  24.839  0.00  0.00    +0.036 C 
ENDROOT
BRANCH   5   4
ATOM      4  C   UNL     1      -0.347   1.497  24.425  0.00  0.00    +0.133 C 
BRANCH   4   3
ATOM      1  O   UNL     1      -0.958   2.993  24.092  0.00  0.00    -0.249 OA
ATOM      2  C   UNL     1      -0.643   2.833  24.838  0.00  0.00    +0.344 C 
ATOM      3  N   UNL     1      -0.338   2.085  25.004  0.00  0.00    -0.185 NA
ATOM     23  N   UNL     1      -0.634   3.419  25.417  0.00  0.00    -0.161 NA
BRANCH  23  24
ATOM     24  C   UNL     1      -0.940   4.168  25.251  0.00  0.00    +0.075 A 
ATOM     25  C   UNL     1      -0.473   4.728  24.864  0.00  0.00    +0.017 A 
ATOM     26  C   UNL     1      -0.778   5.475  24.698  0.00  0.00    +0.001 A 
ATOM     27  C   UNL     1      -1.550   5.664  24.920  0.00  0.00    +0.000 A 
ATOM     28  C   UNL     1      -2.017   5.105  25.307  0.00  0.00    +0.001 A 
ATOM     29  C   UNL     1      -1.711   4.357  25.472  0.00  0.00    +0.017 A 
ENDBRANCH  23  24
ENDBRANCH   4   3
ENDBRANCH   5   4
BRANCH  12  13
ATOM     13  C   UNL     1      -2.255  -1.305  24.958  0.00  0.00    +0.092 C 
BRANCH  13  14
ATOM     14  N   UNL     1      -3.018  -1.315  24.645  0.00  0.00    -0.307 N 
ATOM     15  C   UNL     1      -3.519  -0.663  24.567  0.00  0.00    +0.095 C 
ATOM     16  C   UNL     1      -4.225  -0.923  24.230  0.00  0.00    +0.049 C 
ATOM     17  C   UNL     1      -4.161  -1.736  24.100  0.00  0.00    -0.007 A 
ATOM     18  C   UNL     1      -4.687  -2.286  23.780  0.00  0.00    -0.003 A 
ATOM     19  C   UNL     1      -4.466  -3.079  23.718  0.00  0.00    -0.000 A 
ATOM     20  C   UNL     1      -3.719  -3.321  23.975  0.00  0.00    +0.001 A 
ATOM     21  C   UNL     1      -3.195  -2.770  24.294  0.00  0.00    +0.014 A 
ATOM     22  C   UNL     1      -3.416  -1.977  24.356  0.00  0.00    +0.044 A 
ENDBRANCH  13  14
ENDBRANCH  12  13
TORSDOF 5
ENDMDL
MODEL 4
REMARK VINA RESULT:     -11.2      2.396      6.432
REMARK  Name = 
REMARK  5 active torsions:
REMARK  status: ('A' for Active; 'I' for Inactive)
REMARK    1  A    between atoms: N_3  and  C_4
REMARK    2  A    between atoms: C_4  and  C_5
REMARK    3  A    between atoms: C_12  and  C_13
REMARK    4  A    between atoms: C_13  and  N_14
REMARK    5  A    between atoms: N_23  and  C_24
REMARK                            x       y       z     vdW  Elec       q    Type
REMARK                         _______ _______ _______ _____ _____    ______ ____
ROOT
ATOM      5  C   UNL     1      -0.648   0.395  25.148  0.00  0.00    +0.079 C 
ATOM      6  C   UNL     1      -0.122   0.835  24.780  0.00  0.00    +0.018 C 
ATOM      7  C   UNL     1      -0.074   1.644  24.821  0.00  0.00    +0.006 C 
ATOM      8  C   UNL     1       0.602   1.961  24.324  0.00  0.00    +0.017 C 
ATOM      9  C   UNL     1       0.217   1.499  24.579  0.00  0.00    +0.072 C 
ATOM     10  N   UNL     1      -0.592   1.218  25.184  0.00  0.00    -0.272 NA
ATOM     11  C   UNL     1      -1.083   1.845  25.628  0.00  0.00    +0.074 C 
ATOM     12  C   UNL     1      -0.551   2.240  25.251  0.00  0.00    +0.036 C 
ENDROOT
BRANCH   5   4
ATOM      4  C   UNL     1      -0.992  -0.327  25.347  0.00  0.00    +0.133 C 
BRANCH   4   3
ATOM      1  O   UNL     1      -2.463  -1.074  25.383  0.00  0.00    -0.249 OA
ATOM      2  C   UNL     1      -1.933  -1.238  24.772  0.00  0.00    +0.344 C 
ATOM      3  N   UNL     1      -1.197  -0.864  24.754  0.00  0.00    -0.185 NA
ATOM     23  N   UNL     1      -2.137  -1.773  24.180  0.00  0.00    -0.161 NA
BRANCH  23  24
ATOM     24  C   UNL     1      -2.873  -2.147  24.197  0.00  0.00    +0.075 A 
ATOM     25  C   UNL     1      -2.945  -2.901  24.524  0.00  0.00    +0.017 A 
ATOM     26  C   UNL     1      -3.680  -3.274  24.542  0.00  0.00    +0.001 A 
ATOM     27  C   UNL     1      -4.343  -2.894  24.233  0.00  0.00    +0.000 A 
ATOM     28  C   UNL     1      -4.272  -2.140  23.906  0.00  0.00    +0.001 A 
ATOM     29  C   UNL     1      -3.537  -1.767  23.889  0.00  0.00    +0.017 A 
ENDBRANCH  23  24
ENDBRANCH   4   3
ENDBRANCH   5   4
BRANCH  12  13
ATOM     13  C   UNL     1      -0.446   3.059  25.249  0.00  0.00    +0.092 C 
BRANCH  13  14
ATOM     14  N   UNL     1      -1.081   3.557  25.418  0.00  0.00    -0.307 N 
ATOM     15  C   UNL     1      -1.758   3.352  25.844  0.00  0.00    +0.095 C 
ATOM     16  C   UNL     1      -2.247   4.015  25.881  0.00  0.00    +0.049 C 
ATOM     17  C   UNL     1      -1.871   4.631  25.478  0.00  0.00    -0.007 A 
ATOM     18  C   UNL     1      -2.094   5.412  25.335  0.00  0.00    -0.003 A 
ATOM     19  C   UNL     1      -1.595   5.910  24.906  0.00  0.00    -0.000 A 
ATOM     20  C   UNL     1      -0.874   5.627  24.620  0.00  0.00    +0.001 A 
ATOM     21  C   UNL     1      -0.653   4.845  24.763  0.00  0.00    +0.014 A 
ATOM     22  C   UNL     1      -1.152   4.347  25.192  0.00  0.00    +0.044 A 
ENDBRANCH  13  14
ENDBRANCH  12  13
TORSDOF 5
ENDMDL
MODEL 5
REMARK VINA RESULT:     -10.9      3.926      5.117
REMARK  Name = 
REMARK  5 active torsions:
REMARK  status: ('A' for Active; 'I' for Inactive)
REMARK    1  A    between atoms: N_3  and  C_4
REMARK    2  A    between atoms: C_4  and  C_5
REMARK    3  A    between atoms: C_12  and  C_13
REMARK    4  A    between atoms: C_13  and  N_14
REMARK    5  A    between atoms: N_23  and  C_24
REMARK                            x       y       z     vdW  Elec       q    Type
REMARK                         _______ _______ _______ _____ _____    ______ ____
ROOT
ATOM      5  C   UNL     1      -0.331   0.529  23.905  0.00  0.00    +0.079 C 
ATOM      6  C   UNL     1      -0.790  -0.022  24.206  0.00  0.00    +0.018 C 
ATOM      7  C   UNL     1      -1.585   0.050  24.345  0.00  0.00    +0.006 C 
ATOM      8  C   UNL     1      -1.931  -0.699  24.696  0.00  0.00    +0.017 C 
ATOM      9  C   UNL     1      -1.458  -0.318  24.455  0.00  0.00    +0.072 C 
ATOM     10  N   UNL     1      -1.141   0.595  24.049  0.00  0.00    -0.272 NA
ATOM     11  C   UNL     1      -1.732   1.278  23.918  0.00  0.00    +0.074 C 
ATOM     12  C   UNL     1      -2.147   0.712  24.216  0.00  0.00    +0.036 C 
ENDROOT
BRANCH   5   4
ATOM      4  C   UNL     1       0.395   0.821  23.644  0.00  0.00    +0.133 C 
BRANCH   4   3
ATOM      1  O   UNL     1       2.006   1.176  23.646  0.00  0.00    -0.249 OA
ATOM      2  C   UNL     1       1.734   0.497  23.264  0.00  0.00    +0.344 C 
ATOM      3  N   UNL     1       0.928   0.320  23.263  0.00  0.00    -0.185 NA
ATOM     23  N   UNL     1       2.266  -0.004  22.883  0.00  0.00    -0.161 NA
BRANCH  23  24
ATOM     24  C   UNL     1       3.073   0.173  22.884  0.00  0.00    +0.075 A 
ATOM     25  C   UNL     1       3.353   0.825  22.462  0.00  0.00    +0.017 A 
ATOM     26  C   UNL     1       4.158   1.001  22.464  0.00  0.00    +0.001 A 
ATOM     27  C   UNL     1       4.684   0.526  22.886  0.00  0.00    +0.000 A 
ATOM     28  C   UNL     1       4.404  -0.125  23.308  0.00  0.00    +0.001 A 
ATOM     29  C   UNL     1       3.599  -0.302  23.306  0.00  0.00    +0.017 A 
ENDBRANCH  23  24
ENDBRANCH   4   3
ENDBRANCH   5   4
BRANCH  12  13
ATOM     13  C   UNL     1      -2.955   0.719  24.382  0.00  0.00    +0.092 C 
BRANCH  13  14
ATOM     14  N   UNL     1      -3.390   1.412  24.282  0.00  0.00    -0.307 N 
ATOM     15  C   UNL     1      -3.166   2.065  23.829  0.00  0.00    +0.095 C 
ATOM     16  C   UNL     1      -3.763   2.631  23.884  0.00  0.00    +0.049 C 
ATOM     17  C   UNL     1      -4.357   2.328  24.372  0.00  0.00    -0.007 A 
ATOM     18  C   UNL     1      -5.078   2.642  24.623  0.00  0.00    -0.003 A 
ATOM     19  C   UNL     1      -5.568   2.202  25.120  0.00  0.00    -0.000 A 
ATOM     20  C   UNL     1      -5.337   1.448  25.366  0.00  0.00    +0.001 A 
ATOM     21  C   UNL     1      -4.616   1.136  25.114  0.00  0.00    +0.014 A 
ATOM     22  C   UNL     1      -4.126   1.575  24.617  0.00  0.00    +0.044 A 
ENDBRANCH  13  14
ENDBRANCH  12  13
TORSDOF 5
ENDMDL
MODEL 6
REMARK VINA RESULT:     -10.7      4.594      5.394
REMARK  Name = 
REMARK  5 active torsions:
REMARK  status: ('A' for Active; 'I' for Inactive)
REMARK    1  A    between atoms: N_3  and  C_4
REMARK    2  A    between atoms: C_4  and  C_5
REMARK    3  A    between atoms: C_12  and  C_13
REMARK    4  A    between atoms: C_13  and  N_14
REMARK    5  A    between atoms: N_23  and  C_24
REMARK                            x       y       z     vdW  Elec       q    Type
REMARK                         _______ _______ _______ _____ _____    ______ ____
ROOT
ATOM      5  C   UNL     1       0.644   0.243  23.406  0.00  0.00    +0.079 C 
ATOM      6  C   UNL     1       0.125   0.744  23.695  0.00  0.00    +0.018 C 
ATOM      7  C   UNL     1      -0.583   0.545  24.038  0.00  0.00    +0.006 C 
ATOM      8  C   UNL     1      -1.037   1.269  24.308  0.00  0.00    +0.017 C 
ATOM      9  C   UNL     1      -0.537   0.947  24.038  0.00  0.00    +0.072 C 
ATOM     10  N   UNL     1      -0.078   0.048  23.755  0.00  0.00    -0.272 NA
ATOM     11  C   UNL     1      -0.484  -0.754  23.911  0.00  0.00    +0.074 C 
ATOM     12  C   UNL     1      -0.967  -0.230  24.184  0.00  0.00    +0.036 C 
ENDROOT
BRANCH   5   4
ATOM      4  C   UNL     1       1.357   0.054  23.038  0.00  0.00    +0.133 C 
BRANCH   4   3
ATOM      1  O   UNL     1       2.909  -0.503  23.101  0.00  0.00    -0.249 OA
ATOM      2  C   UNL     1       2.763   0.309  23.090  0.00  0.00    +0.344 C 
ATOM      3  N   UNL     1       1.987   0.587  23.059  0.00  0.00    -0.185 NA
ATOM     23  N   UNL     1       3.391   0.842  23.111  0.00  0.00    -0.161 NA
BRANCH  23  24
ATOM     24  C   UNL     1       4.168   0.563  23.143  0.00  0.00    +0.075 A 
ATOM     25  C   UNL     1       4.558   0.348  22.448  0.00  0.00    +0.017 A 
ATOM     26  C   UNL     1       5.333   0.070  22.480  0.00  0.00    +0.001 A 
ATOM     27  C   UNL     1       5.720   0.007  23.206  0.00  0.00    +0.000 A 
ATOM     28  C   UNL     1       5.330   0.222  23.900  0.00  0.00    +0.001 A 
ATOM     29  C   UNL     1       4.555   0.501  23.869  0.00  0.00    +0.017 A 
ENDBRANCH  23  24
ENDBRANCH   4   3
ENDBRANCH   5   4
BRANCH  12  13
ATOM     13  C   UNL     1      -1.698  -0.364  24.542  0.00  0.00    +0.092 C 
BRANCH  13  14
ATOM     14  N   UNL     1      -2.008  -1.128  24.574  0.00  0.00    -0.307 N 
ATOM     15  C   UNL     1      -1.590  -1.814  24.763  0.00  0.00    +0.095 C 
ATOM     16  C   UNL     1      -2.113  -2.450  24.729  0.00  0.00    +0.049 C 
ATOM     17  C   UNL     1      -2.856  -2.157  24.518  0.00  0.00    -0.007 A 
ATOM     18  C   UNL     1      -3.583  -2.530  24.402  0.00  0.00    -0.003 A 
ATOM     19  C   UNL     1      -4.245  -2.085  24.189  0.00  0.00    -0.000 A 
ATOM     20  C   UNL     1      -4.180  -1.268  24.094  0.00  0.00    +0.001 A 
ATOM     21  C   UNL     1      -3.453  -0.896  24.210  0.00  0.00    +0.014 A 
ATOM     22  C   UNL     1      -2.791  -1.341  24.423  0.00  0.00    +0.044 A 
ENDBRANCH  13  14
ENDBRANCH  12  13
TORSDOF 5
ENDMDL
MODEL 7
REMARK VINA RESULT:      -9.6      2.084      5.864
REMARK  Name = 
REMARK  5 active torsions:
REMARK  status: ('A' for Active; 'I' for Inactive)
REMARK    1  A    between atoms: N_3  and  C_4
REMARK    2  A    between atoms: C_4  and  C_5
REMARK    3  A    between atoms: C_12  and  C_13
REMARK    4  A    between atoms: C_13  and  N_14
REMARK    5  A    between atoms: N_23  and  C_24
REMARK                            x       y       z     vdW  Elec       q    Type
REMARK                         _______ _______ _______ _____ _____    ______ ____
ROOT
ATOM      5  C   UNL     1      -0.929   0.595  25.413  0.00  0.00    +0.079 C 
ATOM      6  C   UNL     1      -0.571   1.236  25.668  0.00  0.00    +0.018 C 
ATOM      7  C   UNL     1      -0.857   1.992  25.605  0.00  0.00    +0.006 C 
ATOM      8  C   UNL     1      -0.294   2.592  25.961  0.00  0.00    +0.017 C 
ATOM      9  C   UNL     1      -0.497   1.995  25.790  0.00  0.00    +0.072 C 
ATOM     10  N   UNL     1      -1.213   1.367  25.352  0.00  0.00    -0.272 NA
ATOM     11  C   UNL     1      -1.980   1.710  24.995  0.00  0.00    +0.074 C 
ATOM     12  C   UNL     1      -1.597   2.314  25.260  0.00  0.00    +0.036 C 
ENDROOT
BRANCH   5   4
ATOM      4  C   UNL     1      -0.983  -0.220  25.295  0.00  0.00    +0.133 C 
BRANCH   4   3
ATOM      1  O   UNL     1      -1.869  -1.202  24.308  0.00  0.00    -0.249 OA
ATOM      2  C   UNL     1      -2.069  -1.130  25.106  0.00  0.00    +0.344 C 
ATOM      3  N   UNL     1      -1.626  -0.639  25.598  0.00  0.00    -0.185 NA
ATOM     23  N   UNL     1      -2.711  -1.549  25.410  0.00  0.00    -0.161 NA
BRANCH  23  24
ATOM     24  C   UNL     1      -3.154  -2.040  24.916  0.00  0.00    +0.075 A 
ATOM     25  C   UNL     1      -2.985  -2.847  24.877  0.00  0.00    +0.017 A 
ATOM     26  C   UNL     1      -3.428  -3.337  24.384  0.00  0.00    +0.001 A 
ATOM     27  C   UNL     1      -4.041  -3.022  23.931  0.00  0.00    +0.000 A 
ATOM     28  C   UNL     1      -4.210  -2.215  23.970  0.00  0.00    +0.001 A 
ATOM     29  C   UNL     1      -3.767  -1.725  24.463  0.00  0.00    +0.017 A 
ENDBRANCH  23  24
ENDBRANCH   4   3
ENDBRANCH   5   4
BRANCH  12  13
ATOM     13  C   UNL     1      -1.829   3.105  25.228  0.00  0.00    +0.092 C 
BRANCH  13  14
ATOM     14  N   UNL     1      -2.538   3.312  24.862  0.00  0.00    -0.307 N 
ATOM     15  C   UNL     1      -2.718   3.215  24.062  0.00  0.00    +0.095 C 
ATOM     16  C   UNL     1      -3.483   3.496  23.937  0.00  0.00    +0.049 C 
ATOM     17  C   UNL     1      -3.776   3.767  24.660  0.00  0.00    -0.007 A 
ATOM     18  C   UNL     1      -4.500   4.103  24.870  0.00  0.00    -0.003 A 
ATOM     19  C   UNL     1      -4.640   4.325  25.652  0.00  0.00    -0.000 A 
ATOM     20  C   UNL     1      -4.055   4.211  26.224  0.00  0.00    +0.001 A 
ATOM     21  C   UNL     1      -3.332   3.876  26.013  0.00  0.00    +0.014 A 
ATOM     22  C   UNL     1      -3.193   3.654  25.231  0.00  0.00    +0.044 A 
ENDBRANCH  13  14
ENDBRANCH  12  13
TORSDOF 5
ENDMDL
MODEL 8
REMARK VINA RESULT:      -9.5      3.153      4.845
REMARK  Name = 
REMARK  5 active torsions:
REMARK  status: ('A' for Active; 'I' for Inactive)
REMARK    1  A    between atoms: N_3  and  C_4
REMARK    2  A    between atoms: C_4  and  C_5
REMARK    3  A    between atoms: C_12  and  C_13
REMARK    4  A    between atoms: C_13  and  N_14
REMARK    5  A    between atoms: N_23  and  C_24
REMARK                            x       y       z     vdW  Elec       q    Type
REMARK                         _______ _______ _______ _____ _____    ______ ____
ROOT
ATOM      5  C   UNL     1      -0.619   2.358  25.062  0.00  0.00    +0.079 C 
ATOM      6  C   UNL     1      -0.890   3.053  25.282  0.00  0.00    +0.018 C 
ATOM      7  C   UNL     1      -1.671   3.269  25.304  0.00  0.00    +0.006 C 
ATOM      8  C   UNL     1      -1.775   4.113  25.586  0.00  0.00    +0.017 C 
ATOM      9  C   UNL     1      -1.439   3.577  25.425  0.00  0.00    +0.072 C 
ATOM     10  N   UNL     1      -1.412   2.585  25.087  0.00  0.00    -0.272 NA
ATOM     11  C   UNL     1      -2.183   2.140  24.885  0.00  0.00    +0.074 C 
ATOM     12  C   UNL     1      -2.407   2.834  25.107  0.00  0.00    +0.036 C 
ENDROOT
BRANCH   5   4
ATOM      4  C   UNL     1      -0.014   1.816  24.917  0.00  0.00    +0.133 C 
BRANCH   4   3
ATOM      1  O   UNL     1       0.837   0.621  24.162  0.00  0.00    -0.249 OA
ATOM      2  C   UNL     1       1.023   1.413  24.019  0.00  0.00    +0.344 C 
ATOM      3  N   UNL     1       0.597   2.010  24.397  0.00  0.00    -0.185 NA
ATOM     23  N   UNL     1       1.633   1.607  23.500  0.00  0.00    -0.161 NA
BRANCH  23  24
ATOM     24  C   UNL     1       2.059   1.009  23.122  0.00  0.00    +0.075 A 
ATOM     25  C   UNL     1       2.884   1.012  23.146  0.00  0.00    +0.017 A 
ATOM     26  C   UNL     1       3.309   0.415  22.768  0.00  0.00    +0.001 A 
ATOM     27  C   UNL     1       2.910  -0.185  22.368  0.00  0.00    +0.000 A 
ATOM     28  C   UNL     1       2.086  -0.189  22.344  0.00  0.00    +0.001 A 
ATOM     29  C   UNL     1       1.660   0.408  22.721  0.00  0.00    +0.017 A 
ENDBRANCH  23  24
ENDBRANCH   4   3
ENDBRANCH   5   4
BRANCH  12  13
ATOM     13  C   UNL     1      -3.181   3.116  25.153  0.00  0.00    +0.092 C 
BRANCH  13  14
ATOM     14  N   UNL     1      -3.804   2.662  24.860  0.00  0.00    -0.307 N 
ATOM     15  C   UNL     1      -3.780   2.177  24.194  0.00  0.00    +0.095 C 
ATOM     16  C   UNL     1      -4.522   1.828  24.104  0.00  0.00    +0.049 C 
ATOM     17  C   UNL     1      -5.005   2.099  24.716  0.00  0.00    -0.007 A 
ATOM     18  C   UNL     1      -5.793   1.942  24.907  0.00  0.00    -0.003 A 
ATOM     19  C   UNL     1      -6.136   2.300  25.566  0.00  0.00    -0.000 A 
ATOM     20  C   UNL     1      -5.692   2.816  26.034  0.00  0.00    +0.001 A 
ATOM     21  C   UNL     1      -4.906   2.973  25.842  0.00  0.00    +0.014 A 
ATOM     22  C   UNL     1      -4.562   2.614  25.183  0.00  0.00    +0.044 A 
ENDBRANCH  13  14
ENDBRANCH  12  13
TORSDOF 5
ENDMDL
