MODEL 1
REMARK VINA RESULT:     -14.6      0.000      0.000
REMARK  Name = 
REMARK  6 active torsions:
REMARK  status: ('A' for Active; 'I' for Inactive)
REMARK    1  A    between atoms: C_2  and  C_3
REMARK    2  A    between atoms: C_11  and  C_12
REMARK    3  A    between atoms: C_12  and  C_13
REMARK    4  A    between atoms: N_15  and  C_16
REMARK    5  A    between atoms: C_16  and  C_17
REMARK    6  A    between atoms: C_30  and  C_32
REMARK                            x       y       z     vdW  Elec       q    Type
REMARK                         _______ _______ _______ _____ _____    ______ ____
ROOT
ATOM      1  C   UNL     1      -4.884   4.099  25.722  0.00  0.00    +0.005 C 
ATOM      2  C   UNL     1      -4.642   3.364  25.437  0.00  0.00    +0.059 C 
ATOM      5  C   UNL     1      -5.457   3.244  25.468  0.00  0.00    +0.154 C 
ATOM      6  O   UNL     1      -5.954   3.849  25.728  0.00  0.00    -0.223 OA
ATOM      7  C   UNL     1      -5.776   2.518  25.237  0.00  0.00    +0.033 C 
ATOM      8  C   UNL     1      -5.280   1.913  24.977  0.00  0.00    +0.003 C 
ATOM      9  C   UNL     1      -4.465   2.033  24.947  0.00  0.00    +0.006 C 
ATOM     10  C   UNL     1      -4.783   1.309  24.717  0.00  0.00    +0.000 C 
ATOM     11  C   UNL     1      -3.967   1.428  24.686  0.00  0.00    +0.050 C 
ATOM     23  C   UNL     1      -3.152   1.548  24.656  0.00  0.00    +0.063 A 
ATOM     24  C   UNL     1      -2.833   2.274  24.886  0.00  0.00    +0.023 A 
ATOM     25  C   UNL     1      -3.330   2.879  25.147  0.00  0.00    +0.034 C 
ATOM     26  C   UNL     1      -4.145   2.759  25.177  0.00  0.00    +0.010 C 
ATOM     27  S   UNL     1      -2.014   2.231  24.798  0.00  0.00    -0.054 S 
ATOM     28  C   UNL     1      -1.826   1.480  24.513  0.00  0.00    +0.185 A 
ATOM     29  N   UNL     1      -1.069   1.200  24.345  0.00  0.00    -0.150 NA
ATOM     30  C   UNL     1      -0.414   1.689  24.461  0.00  0.00    +0.277 C 
ATOM     31  O   UNL     1       0.344   1.409  24.293  0.00  0.00    -0.267 OA
ATOM     37  N   UNL     1      -2.530   1.059  24.425  0.00  0.00    -0.227 NA
ENDROOT
BRANCH  30  32
ATOM     32  C   UNL     1      -0.516   2.457  24.744  0.00  0.00    +0.085 A 
ATOM     33  C   UNL     1      -0.551   2.680  25.537  0.00  0.00    +0.012 A 
ATOM     34  C   UNL     1      -0.658   3.498  25.567  0.00  0.00    +0.008 A 
ATOM     35  C   UNL     1      -0.689   3.779  24.792  0.00  0.00    +0.036 A 
ATOM     36  S   UNL     1      -0.601   3.136  24.283  0.00  0.00    -0.082 S 
ENDBRANCH  30  32
BRANCH   2   3
ATOM      3  C   UNL     1      -3.911   3.739  25.506  0.00  0.00    +0.184 C 
ATOM      4  O   UNL     1      -3.862   4.488  25.850  0.00  0.00    -0.220 OA
ENDBRANCH   2   3
BRANCH  11  12
ATOM     12  C   UNL     1      -4.286   0.703  24.456  0.00  0.00    +0.093 C 
BRANCH  12  13
ATOM     13  C   UNL     1      -4.166   0.032  24.922  0.00  0.00    +0.242 C 
ATOM     14  O   UNL     1      -4.229   0.085  25.743  0.00  0.00    -0.273 OA
ATOM     15  N   UNL     1      -3.983  -0.689  24.567  0.00  0.00    -0.201 NA
BRANCH  15  16
ATOM     16  C   UNL     1      -3.863  -1.359  25.033  0.00  0.00    +0.141 C 
BRANCH  16  17
ATOM     17  C   UNL     1      -3.548  -2.044  24.697  0.00  0.00    -0.001 A 
ATOM     18  C   UNL     1      -4.012  -2.510  24.200  0.00  0.00    -0.003 A 
ATOM     19  C   UNL     1      -3.697  -3.195  23.865  0.00  0.00    -0.000 A 
ATOM     20  C   UNL     1      -2.918  -3.413  24.026  0.00  0.00    -0.000 A 
ATOM     21  C   UNL     1      -2.454  -2.946  24.523  0.00  0.00    -0.000 A 
ATOM     22  C   UNL     1      -2.769  -2.261  24.859  0.00  0.00    -0.003 A 
ENDBRANCH  16  17
ENDBRANCH  15  16
ENDBRANCH  12  13
ENDBRANCH  11  12
TORSDOF 6
ENDMDL
MODEL 2
REMARK VINA RESULT:     -13.4      1.348      3.409
REMARK  Name = 
REMARK  6 active torsions:
REMARK  status: ('A' for Active; 'I' for Inactive)
REMARK    1  A    between atoms: C_2  and  C_3
REMARK    2  A    between atoms: C_11  and  C_12
REMARK    3  A    between atoms: C_12  and  C_13
REMARK    4  A    between atoms: N_15  and  C_16
REMARK    5  A    between atoms: C_16  and  C_17
REMARK    6  A    between atoms: C_30  and  C_32
REMARK                            x       y       z     vdW  Elec       q    Type
REMARK                         _______ _______ _______ _____ _____    ______ ____
ROOT
ATOM      1  C   UNL     1      -1.096   4.553  25.161  0.00  0.00    +0.005 C 
ATOM      2  C   UNL     1      -1.341   3.781  25.005  0.00  0.00    +0.059 C 
ATOM      5  C   UNL     1      -0.530   3.700  24.886  0.00  0.00    +0.154 C 
ATOM      6  O   UNL     1      -0.031   4.350  24.982  0.00  0.00    -0.223 OA
ATOM      7  C   UNL     1      -0.215   2.967  24.670  0.00  0.00    +0.033 C 
ATOM      8  C   UNL     1      -0.713   2.318  24.574  0.00  0.00    +0.003 C 
ATOM      9  C   UNL     1      -1.525   2.399  24.693  0.00  0.00    +0.006 C 
ATOM     10  C   UNL     1      -1.211   1.668  24.478  0.00  0.00    +0.000 C 
ATOM     11  C   UNL     1      -2.024   1.749  24.596  0.00  0.00    +0.050 C 
ATOM     23  C   UNL     1      -2.836   1.830  24.715  0.00  0.00    +0.063 A 
ATOM     24  C   UNL     1      -3.150   2.563  24.931  0.00  0.00    +0.023 A 
ATOM     25  C   UNL     1      -2.652   3.213  25.027  0.00  0.00    +0.034 C 
ATOM     26  C   UNL     1      -1.839   3.132  24.908  0.00  0.00    +0.010 C 
ATOM     27  S   UNL     1      -3.967   2.476  25.009  0.00  0.00    -0.054 S 
ATOM     28  C   UNL     1      -4.158   1.691  24.843  0.00  0.00    +0.185 A 
ATOM     29  N   UNL     1      -4.914   1.362  24.856  0.00  0.00    -0.150 NA
ATOM     30  C   UNL     1      -5.564   1.833  25.049  0.00  0.00    +0.277 C 
ATOM     31  O   UNL     1      -6.321   1.504  25.062  0.00  0.00    -0.267 OA
ATOM     37  N   UNL     1      -3.459   1.292  24.661  0.00  0.00    -0.227 NA
ENDROOT
BRANCH  30  32
ATOM     32  C   UNL     1      -5.458   2.630  25.229  0.00  0.00    +0.085 A 
ATOM     33  C   UNL     1      -5.404   3.247  24.684  0.00  0.00    +0.012 A 
ATOM     34  C   UNL     1      -5.300   3.950  25.104  0.00  0.00    +0.008 A 
ATOM     35  C   UNL     1      -5.290   3.766  25.909  0.00  0.00    +0.036 A 
ATOM     36  S   UNL     1      -5.388   2.951  25.986  0.00  0.00    -0.082 S 
ENDBRANCH  30  32
BRANCH   2   3
ATOM      3  C   UNL     1      -2.068   4.131  25.178  0.00  0.00    +0.184 C 
ATOM      4  O   UNL     1      -2.101   4.926  25.400  0.00  0.00    -0.220 OA
ENDBRANCH   2   3
BRANCH  11  12
ATOM     12  C   UNL     1      -1.710   1.017  24.381  0.00  0.00    +0.093 C 
BRANCH  12  13
ATOM     13  C   UNL     1      -1.747   0.381  24.906  0.00  0.00    +0.242 C 
ATOM     14  O   UNL     1      -1.540   0.489  25.698  0.00  0.00    -0.273 OA
ATOM     15  N   UNL     1      -1.989  -0.360  24.640  0.00  0.00    -0.201 NA
BRANCH  15  16
ATOM     16  C   UNL     1      -2.025  -0.996  25.165  0.00  0.00    +0.141 C 
BRANCH  16  17
ATOM     17  C   UNL     1      -2.406  -1.693  24.943  0.00  0.00    -0.001 A 
ATOM     18  C   UNL     1      -3.165  -1.854  25.220  0.00  0.00    -0.003 A 
ATOM     19  C   UNL     1      -3.546  -2.552  24.998  0.00  0.00    -0.000 A 
ATOM     20  C   UNL     1      -3.167  -3.088  24.499  0.00  0.00    -0.000 A 
ATOM     21  C   UNL     1      -2.407  -2.926  24.222  0.00  0.00    -0.000 A 
ATOM     22  C   UNL     1      -2.027  -2.229  24.444  0.00  0.00    -0.003 A 
ENDBRANCH  16  17
ENDBRANCH  15  16
ENDBRANCH  12  13
ENDBRANCH  11  12
TORSDOF 6
ENDMDL
MODEL 3
REMARK VINA RESULT:     -12.1      1.535      4.555
REMARK  Name = 
REMARK  6 active torsions:
REMARK  status: ('A' for Active; 'I' for Inactive)
REMARK    1  A    between atoms: C_2  and  C_3
REMARK    2  A    between atoms: C_11  and  C_12
REMARK    3  A    between atoms: C_12  and  C_13
REMARK    4  A    between atoms: N_15  and  C_16
REMARK    5  A    between atoms: C_16  and  C_17
REMARK    6  A    between atoms: C_30  and  C_32
REMARK                            x       y       z     vdW  Elec       q    Type
REMARK                         _______ _______ _______ _____ _____    ______ ____
ROOT
ATOM      1  C   UNL     1      -2.444  -3.117  24.292  0.00  0.00    +0.005 C 
ATOM      2  C   UNL     1      -2.647  -2.344  24.495  0.00  0.00    +0.059 C 
ATOM      5  C   UNL     1      -3.345  -2.733  24.699  0.00  0.00    +0.154 C 
ATOM      6  O   UNL     1      -3.409  -3.549  24.591  0.00  0.00    -0.223 OA
ATOM      7  C   UNL     1      -3.979  -2.307  25.012  0.00  0.00    +0.033 C 
ATOM      8  C   UNL     1      -3.915  -1.492  25.120  0.00  0.00    +0.003 C 
ATOM      9  C   UNL     1      -3.218  -1.103  24.916  0.00  0.00    +0.006 C 
ATOM     10  C   UNL     1      -3.851  -0.677  25.227  0.00  0.00    +0.000 C 
ATOM     11  C   UNL     1      -3.153  -0.287  25.024  0.00  0.00    +0.050 C 
ATOM     23  C   UNL     1      -2.455   0.102  24.820  0.00  0.00    +0.063 A 
ATOM     24  C   UNL     1      -1.821  -0.324  24.507  0.00  0.00    +0.023 A 
ATOM     25  C   UNL     1      -1.885  -1.139  24.399  0.00  0.00    +0.034 C 
ATOM     26  C   UNL     1      -2.583  -1.529  24.603  0.00  0.00    +0.010 C 
ATOM     27  S   UNL     1      -1.207   0.207  24.359  0.00  0.00    -0.054 S 
ATOM     28  C   UNL     1      -1.460   0.960  24.578  0.00  0.00    +0.185 A 
ATOM     29  N   UNL     1      -1.020   1.656  24.523  0.00  0.00    -0.150 NA
ATOM     30  C   UNL     1      -0.251   1.634  24.225  0.00  0.00    +0.277 C 
ATOM     31  O   UNL     1       0.189   2.329  24.169  0.00  0.00    -0.267 OA
ATOM     37  N   UNL     1      -2.232   0.895  24.863  0.00  0.00    -0.227 NA
ENDROOT
BRANCH  30  32
ATOM     32  C   UNL     1       0.078   0.918  23.982  0.00  0.00    +0.085 A 
ATOM     33  C   UNL     1       0.445   0.363  24.471  0.00  0.00    +0.012 A 
ATOM     34  C   UNL     1       0.691  -0.268  23.998  0.00  0.00    +0.008 A 
ATOM     35  C   UNL     1       0.477  -0.102  23.219  0.00  0.00    +0.036 A 
ATOM     36  S   UNL     1       0.098   0.631  23.209  0.00  0.00    -0.082 S 
ENDBRANCH  30  32
BRANCH   2   3
ATOM      3  C   UNL     1      -1.879  -2.223  24.221  0.00  0.00    +0.184 C 
ATOM      4  O   UNL     1      -1.432  -2.862  23.951  0.00  0.00    -0.220 OA
ENDBRANCH   2   3
BRANCH  11  12
ATOM     12  C   UNL     1      -3.787   0.139  25.336  0.00  0.00    +0.093 C 
BRANCH  12  13
ATOM     13  C   UNL     1      -4.189   0.685  24.865  0.00  0.00    +0.242 C 
ATOM     14  O   UNL     1      -4.322   0.523  24.068  0.00  0.00    -0.273 OA
ATOM     15  N   UNL     1      -4.456   1.393  25.192  0.00  0.00    -0.201 NA
BRANCH  15  16
ATOM     16  C   UNL     1      -4.858   1.939  24.722  0.00  0.00    +0.141 C 
BRANCH  16  17
ATOM     17  C   UNL     1      -5.052   2.681  25.026  0.00  0.00    -0.001 A 
ATOM     18  C   UNL     1      -5.756   2.785  25.442  0.00  0.00    -0.003 A 
ATOM     19  C   UNL     1      -5.951   3.527  25.745  0.00  0.00    -0.000 A 
ATOM     20  C   UNL     1      -5.441   4.165  25.634  0.00  0.00    -0.000 A 
ATOM     21  C   UNL     1      -4.736   4.061  25.218  0.00  0.00    -0.000 A 
ATOM     22  C   UNL     1      -4.542   3.319  24.914  0.00  0.00    -0.003 A 
ENDBRANCH  16  17
ENDBRANCH  15  16
ENDBRANCH  12  13
ENDBRANCH  11  12
TORSDOF 6
ENDMDL
