MODEL 1
REMARK VINA RESULT:     -10.3      0.000      0.000
REMARK  Name = 
REMARK  9 active torsions:
REMARK  status: ('A' for Active; 'I' for Inactive)
REMARK    1  A    between atoms: O_2  and  C_3
REMARK    2  A    between atoms: C_6  and  C_9
REMARK    3  A    between atoms: C_11  and  C_12
REMARK    4  A    between atoms: C_12  and  C_13
REMARK    5  A    between atoms: C_18  and  C_19
REMARK    6  A    between atoms: C_19  and  C_20
REMARK    7  A    between atoms: N_22  and  C_23
REMARK    8  A    between atoms: C_23  and  C_24
REMARK    9  A    between atoms: C_24  and  N_25
REMARK                            x       y       z     vdW  Elec       q    Type
REMARK                         _______ _______ _______ _____ _____    ______ ____
ROOT
ATOM     13  C   UNL     1      -4.445   2.851  24.996  0.00  0.00    +0.024 C 
ATOM     14  C   UNL     1      -5.091   2.832  25.509  0.00  0.00    +0.089 C 
ATOM     15  N   UNL     1      -5.147   3.380  26.124  0.00  0.00    -0.218 NA
ATOM     16  C   UNL     1      -4.557   3.946  26.226  0.00  0.00    +0.089 C 
ATOM     17  C   UNL     1      -3.910   3.965  25.713  0.00  0.00    +0.019 C 
ATOM     18  C   UNL     1      -3.855   3.417  25.098  0.00  0.00    +0.012 C 
ENDROOT
BRANCH  13  12
ATOM     12  C   UNL     1      -4.390   2.303  24.382  0.00  0.00    +0.051 C 
BRANCH  12  11
ATOM      9  C   UNL     1      -4.476   0.187  24.644  0.00  0.00    +0.177 A 
ATOM     10  C   UNL     1      -4.056   0.874  24.466  0.00  0.00    +0.058 A 
ATOM     11  C   UNL     1      -4.578   1.511  24.517  0.00  0.00    +0.101 A 
ATOM     28  N   UNL     1      -5.320   1.218  24.726  0.00  0.00    -0.081 NA
ATOM     29  O   UNL     1      -5.257   0.399  24.804  0.00  0.00    -0.354 OA
BRANCH   9   6
ATOM      3  C   UNL     1      -3.555  -2.110  24.688  0.00  0.00    +0.139 A 
ATOM      4  C   UNL     1      -3.430  -1.603  25.327  0.00  0.00    +0.037 A 
ATOM      5  C   UNL     1      -3.737  -0.838  25.311  0.00  0.00    +0.006 A 
ATOM      6  C   UNL     1      -4.169  -0.579  24.658  0.00  0.00    +0.037 A 
ATOM      7  C   UNL     1      -4.294  -1.086  24.019  0.00  0.00    +0.006 A 
ATOM      8  C   UNL     1      -3.987  -1.852  24.034  0.00  0.00    +0.037 A 
BRANCH   3   2
ATOM      1  C   UNL     1      -2.451  -3.004  24.534  0.00  0.00    +0.252 C 
ATOM      2  O   UNL     1      -3.248  -2.876  24.703  0.00  0.00    -0.471 OA
ENDBRANCH   3   2
ENDBRANCH   9   6
ENDBRANCH  12  11
ENDBRANCH  13  12
BRANCH  18  19
ATOM     19  C   UNL     1      -3.209   3.437  24.585  0.00  0.00    +0.087 C 
BRANCH  19  20
ATOM     20  C   UNL     1      -2.467   3.664  24.867  0.00  0.00    +0.241 C 
ATOM     21  O   UNL     1      -2.347   4.433  25.137  0.00  0.00    -0.273 OA
ATOM     22  N   UNL     1      -1.846   3.120  24.878  0.00  0.00    -0.204 NA
BRANCH  22  23
ATOM     23  C   UNL     1      -1.105   3.348  25.160  0.00  0.00    +0.132 C 
BRANCH  23  24
ATOM     24  C   UNL     1      -0.422   3.005  24.846  0.00  0.00    +0.096 C 
BRANCH  24  25
ATOM     25  N   UNL     1       0.016   2.472  25.299  0.00  0.00    -0.269 NA
ATOM     26  C   UNL     1       0.261   1.756  24.969  0.00  0.00    +0.090 C 
ATOM     27  C   UNL     1       0.209   2.654  26.079  0.00  0.00    +0.090 C 
ENDBRANCH  24  25
ENDBRANCH  23  24
ENDBRANCH  22  23
ENDBRANCH  19  20
ENDBRANCH  18  19
TORSDOF 9
ENDMDL
MODEL 2
REMARK VINA RESULT:      -9.9      2.111      4.664
REMARK  Name = 
REMARK  9 active torsions:
REMARK  status: ('A' for Active; 'I' for Inactive)
REMARK    1  A    between atoms: O_2  and  C_3
REMARK    2  A    between atoms: C_6  and  C_9
REMARK    3  A    between atoms: C_11  and  C_12
REMARK    4  A    between atoms: C_12  and  C_13
REMARK    5  A    between atoms: C_18  and  C_19
REMARK    6  A    between atoms: C_19  and  C_20
REMARK    7  A    between atoms: N_22  and  C_23
REMARK    8  A    between atoms: C_23  and  C_24
REMARK    9  A    between atoms: C_24  and  N_25
REMARK                            x       y       z     vdW  Elec       q    Type
REMARK                         _______ _______ _______ _____ _____    ______ ____
ROOT
ATOM     13  C   UNL     1      -2.945  -1.732  25.103  0.00  0.00    +0.024 C 
ATOM     14  C   UNL     1      -3.472  -2.293  24.804  0.00  0.00    +0.089 C 
ATOM     15  N   UNL     1      -3.192  -2.916  24.340  0.00  0.00    -0.218 NA
ATOM     16  C   UNL     1      -2.387  -2.978  24.176  0.00  0.00    +0.089 C 
ATOM     17  C   UNL     1      -1.860  -2.417  24.475  0.00  0.00    +0.019 C 
ATOM     18  C   UNL     1      -2.140  -1.794  24.939  0.00  0.00    +0.012 C 
ENDROOT
BRANCH  13  12
ATOM     12  C   UNL     1      -3.225  -1.109  25.566  0.00  0.00    +0.051 C 
BRANCH  12  11
ATOM      9  C   UNL     1      -4.520   0.503  25.036  0.00  0.00    +0.177 A 
ATOM     10  C   UNL     1      -3.886   0.201  25.468  0.00  0.00    +0.058 A 
ATOM     11  C   UNL     1      -3.795  -0.594  25.264  0.00  0.00    +0.101 A 
ATOM     28  N   UNL     1      -4.373  -0.782  24.707  0.00  0.00    -0.081 NA
ATOM     29  O   UNL     1      -4.821  -0.105  24.566  0.00  0.00    -0.354 OA
BRANCH   9   6
ATOM      3  C   UNL     1      -5.372   2.825  25.132  0.00  0.00    +0.139 A 
ATOM      4  C   UNL     1      -4.685   2.654  24.708  0.00  0.00    +0.037 A 
ATOM      5  C   UNL     1      -4.401   1.881  24.676  0.00  0.00    +0.006 A 
ATOM      6  C   UNL     1      -4.804   1.277  25.068  0.00  0.00    +0.037 A 
ATOM      7  C   UNL     1      -5.492   1.447  25.492  0.00  0.00    +0.006 A 
ATOM      8  C   UNL     1      -5.775   2.221  25.524  0.00  0.00    +0.037 A 
BRANCH   3   2
ATOM      1  C   UNL     1      -5.311   4.143  25.679  0.00  0.00    +0.252 C 
ATOM      2  O   UNL     1      -5.655   3.598  25.164  0.00  0.00    -0.471 OA
ENDBRANCH   3   2
ENDBRANCH   9   6
ENDBRANCH  12  11
ENDBRANCH  13  12
BRANCH  18  19
ATOM     19  C   UNL     1      -1.613  -1.234  25.238  0.00  0.00    +0.087 C 
BRANCH  19  20
ATOM     20  C   UNL     1      -0.863  -1.156  24.904  0.00  0.00    +0.241 C 
ATOM     21  O   UNL     1      -0.269  -1.694  25.095  0.00  0.00    -0.273 OA
ATOM     22  N   UNL     1      -0.707  -0.538  24.379  0.00  0.00    -0.204 NA
BRANCH  22  23
ATOM     23  C   UNL     1       0.043  -0.461  24.045  0.00  0.00    +0.132 C 
BRANCH  23  24
ATOM     24  C   UNL     1       0.191   0.140  23.498  0.00  0.00    +0.096 C 
BRANCH  24  25
ATOM     25  N   UNL     1       0.958   0.267  23.224  0.00  0.00    -0.269 NA
ATOM     26  C   UNL     1       1.410   0.886  23.533  0.00  0.00    +0.090 C 
ATOM     27  C   UNL     1       1.275  -0.223  22.642  0.00  0.00    +0.090 C 
ENDBRANCH  24  25
ENDBRANCH  23  24
ENDBRANCH  22  23
ENDBRANCH  19  20
ENDBRANCH  18  19
TORSDOF 9
ENDMDL
MODEL 3
REMARK VINA RESULT:      -9.9      1.353      3.461
REMARK  Name = 
REMARK  9 active torsions:
REMARK  status: ('A' for Active; 'I' for Inactive)
REMARK    1  A    between atoms: O_2  and  C_3
REMARK    2  A    between atoms: C_6  and  C_9
REMARK    3  A    between atoms: C_11  and  C_12
REMARK    4  A    between atoms: C_12  and  C_13
REMARK    5  A    between atoms: C_18  and  C_19
REMARK    6  A    between atoms: C_19  and  C_20
REMARK    7  A    between atoms: N_22  and  C_23
REMARK    8  A    between atoms: C_23  and  C_24
REMARK    9  A    between atoms: C_24  and  N_25
REMARK                            x       y       z     vdW  Elec       q    Type
REMARK                         _______ _______ _______ _____ _____    ______ ____
ROOT
ATOM     13  C   UNL     1      -0.700   2.147  24.914  0.00  0.00    +0.024 C 
ATOM     14  C   UNL     1      -0.097   1.943  25.439  0.00  0.00    +0.089 C 
ATOM     15  N   UNL     1       0.055   2.418  26.098  0.00  0.00    -0.218 NA
ATOM     16  C   UNL     1      -0.395   3.095  26.231  0.00  0.00    +0.089 C 
ATOM     17  C   UNL     1      -0.999   3.299  25.705  0.00  0.00    +0.019 C 
ATOM     18  C   UNL     1      -1.150   2.824  25.047  0.00  0.00    +0.012 C 
ENDROOT
BRANCH  13  12
ATOM     12  C   UNL     1      -0.851   1.673  24.256  0.00  0.00    +0.051 C 
BRANCH  12  11
ATOM      9  C   UNL     1      -1.338  -0.392  24.488  0.00  0.00    +0.177 A 
ATOM     10  C   UNL     1      -1.564   0.399  24.428  0.00  0.00    +0.058 A 
ATOM     11  C   UNL     1      -0.881   0.852  24.337  0.00  0.00    +0.101 A 
ATOM     28  N   UNL     1      -0.233   0.342  24.341  0.00  0.00    -0.081 NA
ATOM     29  O   UNL     1      -0.516  -0.427  24.434  0.00  0.00    -0.354 OA
BRANCH   9   6
ATOM      3  C   UNL     1      -2.860  -2.322  24.778  0.00  0.00    +0.139 A 
ATOM      4  C   UNL     1      -3.134  -1.556  24.917  0.00  0.00    +0.037 A 
ATOM      5  C   UNL     1      -2.627  -0.913  24.820  0.00  0.00    +0.006 A 
ATOM      6  C   UNL     1      -1.846  -1.036  24.584  0.00  0.00    +0.037 A 
ATOM      7  C   UNL     1      -1.572  -1.802  24.445  0.00  0.00    +0.006 A 
ATOM      8  C   UNL     1      -2.080  -2.445  24.542  0.00  0.00    +0.037 A 
BRANCH   3   2
ATOM      1  C   UNL     1      -3.939  -3.130  24.302  0.00  0.00    +0.252 C 
ATOM      2  O   UNL     1      -3.368  -2.965  24.874  0.00  0.00    -0.471 OA
ENDBRANCH   3   2
ENDBRANCH   9   6
ENDBRANCH  12  11
ENDBRANCH  13  12
BRANCH  18  19
ATOM     19  C   UNL     1      -1.753   3.029  24.522  0.00  0.00    +0.087 C 
BRANCH  19  20
ATOM     20  C   UNL     1      -2.413   3.442  24.794  0.00  0.00    +0.241 C 
ATOM     21  O   UNL     1      -2.333   4.218  25.061  0.00  0.00    -0.273 OA
ATOM     22  N   UNL     1      -3.154   3.078  24.800  0.00  0.00    -0.204 NA
BRANCH  22  23
ATOM     23  C   UNL     1      -3.814   3.491  25.072  0.00  0.00    +0.132 C 
BRANCH  23  24
ATOM     24  C   UNL     1      -4.573   3.219  24.895  0.00  0.00    +0.096 C 
BRANCH  24  25
ATOM     25  N   UNL     1      -5.188   3.335  25.432  0.00  0.00    -0.269 NA
ATOM     26  C   UNL     1      -5.516   4.087  25.527  0.00  0.00    +0.090 C 
ATOM     27  C   UNL     1      -5.475   2.702  25.874  0.00  0.00    +0.090 C 
ENDBRANCH  24  25
ENDBRANCH  23  24
ENDBRANCH  22  23
ENDBRANCH  19  20
ENDBRANCH  18  19
TORSDOF 9
ENDMDL
MODEL 4
REMARK VINA RESULT:      -9.7      1.807      5.422
REMARK  Name = 
REMARK  9 active torsions:
REMARK  status: ('A' for Active; 'I' for Inactive)
REMARK    1  A    between atoms: O_2  and  C_3
REMARK    2  A    between atoms: C_6  and  C_9
REMARK    3  A    between atoms: C_11  and  C_12
REMARK    4  A    between atoms: C_12  and  C_13
REMARK    5  A    between atoms: C_18  and  C_19
REMARK    6  A    between atoms: C_19  and  C_20
REMARK    7  A    between atoms: N_22  and  C_23
REMARK    8  A    between atoms: C_23  and  C_24
REMARK    9  A    between atoms: C_24  and  N_25
REMARK                            x       y       z     vdW  Elec       q    Type
REMARK                         _______ _______ _______ _____ _____    ______ ____
ROOT
ATOM     13  C   UNL     1      -0.283   0.918  24.780  0.00  0.00    +0.024 C 
ATOM     14  C   UNL     1       0.139   1.340  24.209  0.00  0.00    +0.089 C 
ATOM     15  N   UNL     1       0.413   0.955  23.532  0.00  0.00    -0.218 NA
ATOM     16  C   UNL     1       0.266   0.152  23.426  0.00  0.00    +0.089 C 
ATOM     17  C   UNL     1      -0.156  -0.270  23.997  0.00  0.00    +0.019 C 
ATOM     18  C   UNL     1      -0.430   0.115  24.674  0.00  0.00    +0.012 C 
ENDROOT
BRANCH  13  12
ATOM     12  C   UNL     1      -0.557   1.303  25.456  0.00  0.00    +0.051 C 
BRANCH  12  11
ATOM      9  C   UNL     1      -1.996   2.874  25.327  0.00  0.00    +0.177 A 
ATOM     10  C   UNL     1      -1.807   2.077  25.419  0.00  0.00    +0.058 A 
ATOM     11  C   UNL     1      -0.985   2.005  25.388  0.00  0.00    +0.101 A 
ATOM     28  N   UNL     1      -0.668   2.758  25.275  0.00  0.00    -0.081 NA
ATOM     29  O   UNL     1      -1.292   3.295  25.238  0.00  0.00    -0.354 OA
BRANCH   9   6
ATOM      3  C   UNL     1      -4.276   3.837  25.317  0.00  0.00    +0.139 A 
ATOM      4  C   UNL     1      -4.047   3.312  24.722  0.00  0.00    +0.037 A 
ATOM      5  C   UNL     1      -3.287   2.992  24.726  0.00  0.00    +0.006 A 
ATOM      6  C   UNL     1      -2.757   3.195  25.323  0.00  0.00    +0.037 A 
ATOM      7  C   UNL     1      -2.986   3.719  25.918  0.00  0.00    +0.006 A 
ATOM      8  C   UNL     1      -3.746   4.040  25.914  0.00  0.00    +0.037 A 
BRANCH   3   2
ATOM      1  C   UNL     1      -5.678   3.702  25.562  0.00  0.00    +0.252 C 
ATOM      2  O   UNL     1      -5.036   4.157  25.313  0.00  0.00    -0.471 OA
ENDBRANCH   3   2
ENDBRANCH   9   6
ENDBRANCH  12  11
ENDBRANCH  13  12
BRANCH  18  19
ATOM     19  C   UNL     1      -0.852  -0.307  25.244  0.00  0.00    +0.087 C 
BRANCH  19  20
ATOM     20  C   UNL     1      -1.215  -1.020  25.044  0.00  0.00    +0.241 C 
ATOM     21  O   UNL     1      -0.756  -1.682  24.870  0.00  0.00    -0.273 OA
ATOM     22  N   UNL     1      -2.039  -1.070  25.018  0.00  0.00    -0.204 NA
BRANCH  22  23
ATOM     23  C   UNL     1      -2.402  -1.783  24.818  0.00  0.00    +0.132 C 
BRANCH  23  24
ATOM     24  C   UNL     1      -3.206  -1.893  24.969  0.00  0.00    +0.096 C 
BRANCH  24  25
ATOM     25  N   UNL     1      -3.662  -2.352  24.458  0.00  0.00    -0.269 NA
ATOM     26  C   UNL     1      -3.618  -3.176  24.494  0.00  0.00    +0.090 C 
ATOM     27  C   UNL     1      -4.161  -1.990  23.912  0.00  0.00    +0.090 C 
ENDBRANCH  24  25
ENDBRANCH  23  24
ENDBRANCH  22  23
ENDBRANCH  19  20
ENDBRANCH  18  19
TORSDOF 9
ENDMDL
MODEL 5
REMARK VINA RESULT:      -7.2     14.200     17.040
REMARK  Name = 
REMARK  9 active torsions:
REMARK  status: ('A' for Active; 'I' for Inactive)
REMARK    1  A    between atoms: O_2  and  C_3
REMARK    2  A    between atoms: C_6  and  C_9
REMARK    3  A    between atoms: C_11  and  C_12
REMARK    4  A    between atoms: C_12  and  C_13
REMARK    5  A    between atoms: C_18  and  C_19
REMARK    6  A    between atoms: C_19  and  C_20
REMARK    7  A    between atoms: N_22  and  C_23
REMARK    8  A    between atoms: C_23  and  C_24
REMARK    9  A    between atoms: C_24  and  N_25
REMARK                            x       y       z     vdW  Elec       q    Type
REMARK                         _______ _______ _______ _____ _____    ______ ____
ROOT
ATOM     13  C   UNL     1      -2.339 -10.491  14.103  0.00  0.00    +0.024 C 
ATOM     14  C   UNL     1      -1.585 -10.203  13.928  0.00  0.00    +0.089 C 
ATOM     15  N   UNL     1      -1.103  -9.913  14.532  0.00  0.00    -0.218 NA
ATOM     16  C   UNL     1      -1.374  -9.910  15.310  0.00  0.00    +0.089 C 
ATOM     17  C   UNL     1      -2.128 -10.198  15.486  0.00  0.00    +0.019 C 
ATOM     18  C   UNL     1      -2.610 -10.488  14.881  0.00  0.00    +0.012 C 
ENDROOT
BRANCH  13  12
ATOM     12  C   UNL     1      -2.820 -10.781  13.499  0.00  0.00    +0.051 C 
BRANCH  12  11
ATOM      9  C   UNL     1      -2.905 -10.167  11.457  0.00  0.00    +0.177 A 
ATOM     10  C   UNL     1      -3.278 -10.386  12.159  0.00  0.00    +0.058 A 
ATOM     11  C   UNL     1      -2.693 -10.543  12.720  0.00  0.00    +0.101 A 
ATOM     28  N   UNL     1      -1.959 -10.420  12.364  0.00  0.00    -0.081 NA
ATOM     29  O   UNL     1      -2.090 -10.188  11.584  0.00  0.00    -0.354 OA
BRANCH   9   6
ATOM      3  C   UNL     1      -4.032  -9.553   9.341  0.00  0.00    +0.139 A 
ATOM      4  C   UNL     1      -3.600  -8.986   9.758  0.00  0.00    +0.037 A 
ATOM      5  C   UNL     1      -3.225  -9.191  10.463  0.00  0.00    +0.006 A 
ATOM      6  C   UNL     1      -3.281  -9.962  10.751  0.00  0.00    +0.037 A 
ATOM      7  C   UNL     1      -3.712 -10.529  10.334  0.00  0.00    +0.006 A 
ATOM      8  C   UNL     1      -4.087 -10.323   9.629  0.00  0.00    +0.037 A 
BRANCH   3   2
ATOM      1  C   UNL     1      -5.206  -9.523   8.527  0.00  0.00    +0.252 C 
ATOM      2  O   UNL     1      -4.407  -9.348   8.635  0.00  0.00    -0.471 OA
ENDBRANCH   3   2
ENDBRANCH   9   6
ENDBRANCH  12  11
ENDBRANCH  13  12
BRANCH  18  19
ATOM     19  C   UNL     1      -3.363 -10.776  15.057  0.00  0.00    +0.087 C 
BRANCH  19  20
ATOM     20  C   UNL     1      -3.675 -10.676  15.815  0.00  0.00    +0.241 C 
ATOM     21  O   UNL     1      -3.194 -10.781  16.476  0.00  0.00    -0.273 OA
ATOM     22  N   UNL     1      -4.469 -10.471  15.909  0.00  0.00    -0.204 NA
BRANCH  22  23
ATOM     23  C   UNL     1      -4.781 -10.371  16.667  0.00  0.00    +0.132 C 
BRANCH  23  24
ATOM     24  C   UNL     1      -5.563 -10.585  16.822  0.00  0.00    +0.096 C 
BRANCH  24  25
ATOM     25  N   UNL     1      -5.891 -10.436  17.563  0.00  0.00    -0.269 NA
ATOM     26  C   UNL     1      -6.711 -10.382  17.648  0.00  0.00    +0.090 C 
ATOM     27  C   UNL     1      -5.402 -10.339  18.220  0.00  0.00    +0.090 C 
ENDBRANCH  24  25
ENDBRANCH  23  24
ENDBRANCH  22  23
ENDBRANCH  19  20
ENDBRANCH  18  19
TORSDOF 9
ENDMDL
MODEL 6
REMARK VINA RESULT:      -7.0     15.980     19.332
REMARK  Name = 
REMARK  9 active torsions:
REMARK  status: ('A' for Active; 'I' for Inactive)
REMARK    1  A    between atoms: O_2  and  C_3
REMARK    2  A    between atoms: C_6  and  C_9
REMARK    3  A    between atoms: C_11  and  C_12
REMARK    4  A    between atoms: C_12  and  C_13
REMARK    5  A    between atoms: C_18  and  C_19
REMARK    6  A    between atoms: C_19  and  C_20
REMARK    7  A    between atoms: N_22  and  C_23
REMARK    8  A    between atoms: C_23  and  C_24
REMARK    9  A    between atoms: C_24  and  N_25
REMARK                            x       y       z     vdW  Elec       q    Type
REMARK                         _______ _______ _______ _____ _____    ______ ____
ROOT
ATOM     13  C   UNL     1      14.926   8.052  19.894  0.00  0.00    +0.024 C 
ATOM     14  C   UNL     1      15.492   7.583  19.517  0.00  0.00    +0.089 C 
ATOM     15  N   UNL     1      15.685   6.842  19.825  0.00  0.00    -0.218 NA
ATOM     16  C   UNL     1      15.313   6.570  20.508  0.00  0.00    +0.089 C 
ATOM     17  C   UNL     1      14.747   7.038  20.885  0.00  0.00    +0.019 C 
ATOM     18  C   UNL     1      14.554   7.780  20.577  0.00  0.00    +0.012 C 
ENDROOT
BRANCH  13  12
ATOM     12  C   UNL     1      14.734   8.793  19.586  0.00  0.00    +0.051 C 
BRANCH  12  11
ATOM      9  C   UNL     1      13.851   8.965  17.650  0.00  0.00    +0.177 A 
ATOM     10  C   UNL     1      13.783   8.874  18.467  0.00  0.00    +0.058 A 
ATOM     11  C   UNL     1      14.544   8.871  18.787  0.00  0.00    +0.101 A 
ATOM     28  N   UNL     1      15.081   8.961  18.167  0.00  0.00    -0.081 NA
ATOM     29  O   UNL     1      14.653   9.019  17.465  0.00  0.00    -0.354 OA
BRANCH   9   6
ATOM      3  C   UNL     1      11.976   9.062  16.037  0.00  0.00    +0.139 A 
ATOM      4  C   UNL     1      12.755   9.092  15.767  0.00  0.00    +0.037 A 
ATOM      5  C   UNL     1      13.379   9.060  16.305  0.00  0.00    +0.006 A 
ATOM      6  C   UNL     1      13.225   8.997  17.112  0.00  0.00    +0.037 A 
ATOM      7  C   UNL     1      12.446   8.967  17.383  0.00  0.00    +0.006 A 
ATOM      8  C   UNL     1      11.822   8.999  16.845  0.00  0.00    +0.037 A 
BRANCH   3   2
ATOM      1  C   UNL     1      10.621   8.765  15.695  0.00  0.00    +0.252 C 
ATOM      2  O   UNL     1      11.352   9.094  15.499  0.00  0.00    -0.471 OA
ENDBRANCH   3   2
ENDBRANCH   9   6
ENDBRANCH  12  11
ENDBRANCH  13  12
BRANCH  18  19
ATOM     19  C   UNL     1      13.989   8.248  20.954  0.00  0.00    +0.087 C 
BRANCH  19  20
ATOM     20  C   UNL     1      13.426   7.897  21.444  0.00  0.00    +0.241 C 
ATOM     21  O   UNL     1      13.615   7.715  22.225  0.00  0.00    -0.273 OA
ATOM     22  N   UNL     1      12.672   7.730  21.152  0.00  0.00    -0.204 NA
BRANCH  22  23
ATOM     23  C   UNL     1      12.109   7.379  21.642  0.00  0.00    +0.132 C 
BRANCH  23  24
ATOM     24  C   UNL     1      11.356   7.210  21.349  0.00  0.00    +0.096 C 
BRANCH  24  25
ATOM     25  N   UNL     1      10.880   6.657  21.734  0.00  0.00    -0.269 NA
ATOM     26  C   UNL     1      10.271   6.912  22.230  0.00  0.00    +0.090 C 
ATOM     27  C   UNL     1      11.011   5.851  21.623  0.00  0.00    +0.090 C 
ENDBRANCH  24  25
ENDBRANCH  23  24
ENDBRANCH  22  23
ENDBRANCH  19  20
ENDBRANCH  18  19
TORSDOF 9
ENDMDL
MODEL 7
REMARK VINA RESULT:      -6.6     14.167     16.542
REMARK  Name = 
REMARK  9 active torsions:
REMARK  status: ('A' for Active; 'I' for Inactive)
REMARK    1  A    between atoms: O_2  and  C_3
REMARK    2  A    between atoms: C_6  and  C_9
REMARK    3  A    between atoms: C_11  and  C_12
REMARK    4  A    between atoms: C_12  and  C_13
REMARK    5  A    between atoms: C_18  and  C_19
REMARK    6  A    between atoms: C_19  and  C_20
REMARK    7  A    between atoms: N_22  and  C_23
REMARK    8  A    between atoms: C_23  and  C_24
REMARK    9  A    between atoms: C_24  and  N_25
REMARK                            x       y       z     vdW  Elec       q    Type
REMARK                         _______ _______ _______ _____ _____    ______ ____
ROOT
ATOM     13  C   UNL     1      -5.391 -10.381  15.062  0.00  0.00    +0.024 C 
ATOM     14  C   UNL     1      -4.599 -10.409  15.294  0.00  0.00    +0.089 C 
ATOM     15  N   UNL     1      -4.383 -10.170  16.054  0.00  0.00    -0.218 NA
ATOM     16  C   UNL     1      -4.957  -9.903  16.581  0.00  0.00    +0.089 C 
ATOM     17  C   UNL     1      -5.749  -9.875  16.350  0.00  0.00    +0.019 C 
ATOM     18  C   UNL     1      -5.965 -10.114  15.590  0.00  0.00    +0.012 C 
ENDROOT
BRANCH  13  12
ATOM     12  C   UNL     1      -5.607 -10.620  14.303  0.00  0.00    +0.051 C 
BRANCH  12  11
ATOM      9  C   UNL     1      -4.597 -10.076  12.503  0.00  0.00    +0.177 A 
ATOM     10  C   UNL     1      -5.263 -10.058  12.989  0.00  0.00    +0.058 A 
ATOM     11  C   UNL     1      -5.095 -10.494  13.669  0.00  0.00    +0.101 A 
ATOM     28  N   UNL     1      -4.324 -10.781  13.603  0.00  0.00    -0.081 NA
ATOM     29  O   UNL     1      -4.017 -10.523  12.883  0.00  0.00    -0.354 OA
BRANCH   9   6
ATOM      3  C   UNL     1      -4.376  -8.981  10.294  0.00  0.00    +0.139 A 
ATOM      4  C   UNL     1      -3.769  -9.464  10.578  0.00  0.00    +0.037 A 
ATOM      5  C   UNL     1      -3.844  -9.829  11.314  0.00  0.00    +0.006 A 
ATOM      6  C   UNL     1      -4.523  -9.711  11.767  0.00  0.00    +0.037 A 
ATOM      7  C   UNL     1      -5.129  -9.228  11.483  0.00  0.00    +0.006 A 
ATOM      8  C   UNL     1      -5.055  -8.863  10.747  0.00  0.00    +0.037 A 
BRANCH   3   2
ATOM      1  C   UNL     1      -4.284  -9.074   8.872  0.00  0.00    +0.252 C 
ATOM      2  O   UNL     1      -4.301  -8.617   9.558  0.00  0.00    -0.471 OA
ENDBRANCH   3   2
ENDBRANCH   9   6
ENDBRANCH  12  11
ENDBRANCH  13  12
BRANCH  18  19
ATOM     19  C   UNL     1      -6.757 -10.085  15.359  0.00  0.00    +0.087 C 
BRANCH  19  20
ATOM     20  C   UNL     1      -7.349 -10.018  15.929  0.00  0.00    +0.241 C 
ATOM     21  O   UNL     1      -7.427 -10.593  16.514  0.00  0.00    -0.273 OA
ATOM     22  N   UNL     1      -7.865  -9.373  15.913  0.00  0.00    -0.204 NA
BRANCH  22  23
ATOM     23  C   UNL     1      -8.457  -9.306  16.483  0.00  0.00    +0.132 C 
BRANCH  23  24
ATOM     24  C   UNL     1      -9.131  -8.855  16.326  0.00  0.00    +0.096 C 
BRANCH  24  25
ATOM     25  N   UNL     1      -9.680  -8.713  16.924  0.00  0.00    -0.269 NA
ATOM     26  C   UNL     1     -10.228  -9.296  17.128  0.00  0.00    +0.090 C 
ATOM     27  C   UNL     1      -9.682  -7.990  17.319  0.00  0.00    +0.090 C 
ENDBRANCH  24  25
ENDBRANCH  23  24
ENDBRANCH  22  23
ENDBRANCH  19  20
ENDBRANCH  18  19
TORSDOF 9
ENDMDL
MODEL 8
REMARK VINA RESULT:      -6.5     14.521     17.195
REMARK  Name = 
REMARK  9 active torsions:
REMARK  status: ('A' for Active; 'I' for Inactive)
REMARK    1  A    between atoms: O_2  and  C_3
REMARK    2  A    between atoms: C_6  and  C_9
REMARK    3  A    between atoms: C_11  and  C_12
REMARK    4  A    between atoms: C_12  and  C_13
REMARK    5  A    between atoms: C_18  and  C_19
REMARK    6  A    between atoms: C_19  and  C_20
REMARK    7  A    between atoms: N_22  and  C_23
REMARK    8  A    between atoms: C_23  and  C_24
REMARK    9  A    between atoms: C_24  and  N_25
REMARK                            x       y       z     vdW  Elec       q    Type
REMARK                         _______ _______ _______ _____ _____    ______ ____
ROOT
ATOM     13  C   UNL     1      -5.854 -10.118  12.260  0.00  0.00    +0.024 C 
ATOM     14  C   UNL     1      -6.052  -9.691  11.581  0.00  0.00    +0.089 C 
ATOM     15  N   UNL     1      -6.657  -9.130  11.609  0.00  0.00    -0.218 NA
ATOM     16  C   UNL     1      -7.062  -8.995  12.313  0.00  0.00    +0.089 C 
ATOM     17  C   UNL     1      -6.864  -9.421  12.992  0.00  0.00    +0.019 C 
ATOM     18  C   UNL     1      -6.259  -9.983  12.965  0.00  0.00    +0.012 C 
ENDROOT
BRANCH  13  12
ATOM     12  C   UNL     1      -5.250 -10.679  12.233  0.00  0.00    +0.051 C 
BRANCH  12  11
ATOM      9  C   UNL     1      -3.396 -10.205  11.286  0.00  0.00    +0.177 A 
ATOM     10  C   UNL     1      -3.887 -10.206  11.949  0.00  0.00    +0.058 A 
ATOM     11  C   UNL     1      -4.600 -10.562  11.737  0.00  0.00    +0.101 A 
ATOM     28  N   UNL     1      -4.550 -10.781  10.944  0.00  0.00    -0.081 NA
ATOM     29  O   UNL     1      -3.807 -10.561  10.665  0.00  0.00    -0.354 OA
BRANCH   9   6
ATOM      3  C   UNL     1      -1.097  -9.295  11.178  0.00  0.00    +0.139 A 
ATOM      4  C   UNL     1      -1.683  -8.995  10.680  0.00  0.00    +0.037 A 
ATOM      5  C   UNL     1      -2.449  -9.299  10.717  0.00  0.00    +0.006 A 
ATOM      6  C   UNL     1      -2.629  -9.901  11.250  0.00  0.00    +0.037 A 
ATOM      7  C   UNL     1      -2.043 -10.201  11.748  0.00  0.00    +0.006 A 
ATOM      8  C   UNL     1      -1.277  -9.898  11.711  0.00  0.00    +0.037 A 
BRANCH   3   2
ATOM      1  C   UNL     1      -0.120  -8.347  11.611  0.00  0.00    +0.252 C 
ATOM      2  O   UNL     1      -0.331  -8.992  11.142  0.00  0.00    -0.471 OA
ENDBRANCH   3   2
ENDBRANCH   9   6
ENDBRANCH  12  11
ENDBRANCH  13  12
BRANCH  18  19
ATOM     19  C   UNL     1      -6.062 -10.408  13.643  0.00  0.00    +0.087 C 
BRANCH  19  20
ATOM     20  C   UNL     1      -6.540 -10.358  14.314  0.00  0.00    +0.241 C 
ATOM     21  O   UNL     1      -7.310 -10.650  14.294  0.00  0.00    -0.273 OA
ATOM     22  N   UNL     1      -6.245 -10.016  15.005  0.00  0.00    -0.204 NA
BRANCH  22  23
ATOM     23  C   UNL     1      -6.723  -9.966  15.676  0.00  0.00    +0.132 C 
BRANCH  23  24
ATOM     24  C   UNL     1      -6.391  -9.763  16.404  0.00  0.00    +0.096 C 
BRANCH  24  25
ATOM     25  N   UNL     1      -6.868  -9.716  17.075  0.00  0.00    -0.269 NA
ATOM     26  C   UNL     1      -6.642 -10.101  17.769  0.00  0.00    +0.090 C 
ATOM     27  C   UNL     1      -7.570  -9.285  17.053  0.00  0.00    +0.090 C 
ENDBRANCH  24  25
ENDBRANCH  23  24
ENDBRANCH  22  23
ENDBRANCH  19  20
ENDBRANCH  18  19
TORSDOF 9
ENDMDL
MODEL 9
REMARK VINA RESULT:      -6.5     16.038     18.831
REMARK  Name = 
REMARK  9 active torsions:
REMARK  status: ('A' for Active; 'I' for Inactive)
REMARK    1  A    between atoms: O_2  and  C_3
REMARK    2  A    between atoms: C_6  and  C_9
REMARK    3  A    between atoms: C_11  and  C_12
REMARK    4  A    between atoms: C_12  and  C_13
REMARK    5  A    between atoms: C_18  and  C_19
REMARK    6  A    between atoms: C_19  and  C_20
REMARK    7  A    between atoms: N_22  and  C_23
REMARK    8  A    between atoms: C_23  and  C_24
REMARK    9  A    between atoms: C_24  and  N_25
REMARK                            x       y       z     vdW  Elec       q    Type
REMARK                         _______ _______ _______ _____ _____    ______ ____
ROOT
ATOM     13  C   UNL     1      13.096   8.492  18.008  0.00  0.00    +0.024 C 
ATOM     14  C   UNL     1      12.763   7.997  17.438  0.00  0.00    +0.089 C 
ATOM     15  N   UNL     1      13.231   7.434  17.056  0.00  0.00    -0.218 NA
ATOM     16  C   UNL     1      14.030   7.366  17.245  0.00  0.00    +0.089 C 
ATOM     17  C   UNL     1      14.363   7.861  17.815  0.00  0.00    +0.019 C 
ATOM     18  C   UNL     1      13.895   8.424  18.197  0.00  0.00    +0.012 C 
ENDROOT
BRANCH  13  12
ATOM     12  C   UNL     1      12.628   9.054  18.389  0.00  0.00    +0.051 C 
BRANCH  12  11
ATOM      9  C   UNL     1      11.257   8.535  19.940  0.00  0.00    +0.177 A 
ATOM     10  C   UNL     1      11.990   8.819  19.693  0.00  0.00    +0.058 A 
ATOM     11  C   UNL     1      12.000   8.814  18.868  0.00  0.00    +0.101 A 
ATOM     28  N   UNL     1      11.273   8.527  18.606  0.00  0.00    -0.081 NA
ATOM     29  O   UNL     1      10.814   8.354  19.268  0.00  0.00    -0.354 OA
BRANCH   9   6
ATOM      3  C   UNL     1      10.514   8.270  22.286  0.00  0.00    +0.139 A 
ATOM      4  C   UNL     1      10.460   9.006  21.917  0.00  0.00    +0.037 A 
ATOM      5  C   UNL     1      10.708   9.094  21.135  0.00  0.00    +0.006 A 
ATOM      6  C   UNL     1      11.009   8.446  20.723  0.00  0.00    +0.037 A 
ATOM      7  C   UNL     1      11.063   7.710  21.092  0.00  0.00    +0.006 A 
ATOM      8  C   UNL     1      10.815   7.622  21.874  0.00  0.00    +0.037 A 
BRANCH   3   2
ATOM      1  C   UNL     1      10.366   8.801  23.605  0.00  0.00    +0.252 C 
ATOM      2  O   UNL     1      10.267   8.182  23.068  0.00  0.00    -0.471 OA
ENDBRANCH   3   2
ENDBRANCH   9   6
ENDBRANCH  12  11
ENDBRANCH  13  12
BRANCH  18  19
ATOM     19  C   UNL     1      14.229   8.919  18.767  0.00  0.00    +0.087 C 
BRANCH  19  20
ATOM     20  C   UNL     1      15.014   8.812  18.995  0.00  0.00    +0.241 C 
ATOM     21  O   UNL     1      15.624   9.090  18.516  0.00  0.00    -0.273 OA
ATOM     22  N   UNL     1      15.188   8.426  19.704  0.00  0.00    -0.204 NA
BRANCH  22  23
ATOM     23  C   UNL     1      15.974   8.319  19.932  0.00  0.00    +0.132 C 
BRANCH  23  24
ATOM     24  C   UNL     1      16.149   7.921  20.634  0.00  0.00    +0.096 C 
BRANCH  24  25
ATOM     25  N   UNL     1      16.930   7.724  20.812  0.00  0.00    -0.269 NA
ATOM     26  C   UNL     1      17.390   8.237  21.267  0.00  0.00    +0.090 C 
ATOM     27  C   UNL     1      17.251   7.017  20.537  0.00  0.00    +0.090 C 
ENDBRANCH  24  25
ENDBRANCH  23  24
ENDBRANCH  22  23
ENDBRANCH  19  20
ENDBRANCH  18  19
TORSDOF 9
ENDMDL
MODEL 10
REMARK VINA RESULT:      -6.3     15.730     18.343
REMARK  Name = 
REMARK  9 active torsions:
REMARK  status: ('A' for Active; 'I' for Inactive)
REMARK    1  A    between atoms: O_2  and  C_3
REMARK    2  A    between atoms: C_6  and  C_9
REMARK    3  A    between atoms: C_11  and  C_12
REMARK    4  A    between atoms: C_12  and  C_13
REMARK    5  A    between atoms: C_18  and  C_19
REMARK    6  A    between atoms: C_19  and  C_20
REMARK    7  A    between atoms: N_22  and  C_23
REMARK    8  A    between atoms: C_23  and  C_24
REMARK    9  A    between atoms: C_24  and  N_25
REMARK                            x       y       z     vdW  Elec       q    Type
REMARK                         _______ _______ _______ _____ _____    ______ ____
ROOT
ATOM     13  C   UNL     1      -4.701  -9.720  10.436  0.00  0.00    +0.024 C 
ATOM     14  C   UNL     1      -4.095  -9.172  10.318  0.00  0.00    +0.089 C 
ATOM     15  N   UNL     1      -4.265  -8.434   9.988  0.00  0.00    -0.218 NA
ATOM     16  C   UNL     1      -5.039  -8.245   9.777  0.00  0.00    +0.089 C 
ATOM     17  C   UNL     1      -5.645  -8.793   9.895  0.00  0.00    +0.019 C 
ATOM     18  C   UNL     1      -5.475  -9.531  10.225  0.00  0.00    +0.012 C 
ENDROOT
BRANCH  13  12
ATOM     12  C   UNL     1      -4.531 -10.457  10.765  0.00  0.00    +0.051 C 
BRANCH  12  11
ATOM      9  C   UNL     1      -3.090 -10.612  12.332  0.00  0.00    +0.177 A 
ATOM     10  C   UNL     1      -3.861 -10.475  12.073  0.00  0.00    +0.058 A 
ATOM     11  C   UNL     1      -3.871 -10.550  11.251  0.00  0.00    +0.101 A 
ATOM     28  N   UNL     1      -3.107 -10.734  11.003  0.00  0.00    -0.081 NA
ATOM     29  O   UNL     1      -2.624 -10.772  11.670  0.00  0.00    -0.354 OA
BRANCH   9   6
ATOM      3  C   UNL     1      -2.309 -10.555  14.680  0.00  0.00    +0.139 A 
ATOM      4  C   UNL     1      -3.106 -10.690  14.513  0.00  0.00    +0.037 A 
ATOM      5  C   UNL     1      -3.366 -10.708  13.730  0.00  0.00    +0.006 A 
ATOM      6  C   UNL     1      -2.830 -10.593  13.115  0.00  0.00    +0.037 A 
ATOM      7  C   UNL     1      -2.032 -10.458  13.282  0.00  0.00    +0.006 A 
ATOM      8  C   UNL     1      -1.773 -10.439  14.064  0.00  0.00    +0.037 A 
BRANCH   3   2
ATOM      1  C   UNL     1      -2.587 -10.653  16.078  0.00  0.00    +0.252 C 
ATOM      2  O   UNL     1      -2.050 -10.536  15.462  0.00  0.00    -0.471 OA
ENDBRANCH   3   2
ENDBRANCH   9   6
ENDBRANCH  12  11
ENDBRANCH  13  12
BRANCH  18  19
ATOM     19  C   UNL     1      -6.080 -10.079  10.342  0.00  0.00    +0.087 C 
BRANCH  19  20
ATOM     20  C   UNL     1      -6.815  -9.962   9.987  0.00  0.00    +0.241 C 
ATOM     21  O   UNL     1      -6.879  -9.946   9.165  0.00  0.00    -0.273 OA
ATOM     22  N   UNL     1      -7.488  -9.861  10.455  0.00  0.00    -0.204 NA
BRANCH  22  23
ATOM     23  C   UNL     1      -8.223  -9.744  10.099  0.00  0.00    +0.132 C 
BRANCH  23  24
ATOM     24  C   UNL     1      -8.899  -9.660  10.567  0.00  0.00    +0.096 C 
BRANCH  24  25
ATOM     25  N   UNL     1      -9.623  -9.484  10.215  0.00  0.00    -0.269 NA
ATOM     26  C   UNL     1      -9.846  -8.696  10.102  0.00  0.00    +0.090 C 
ATOM     27  C   UNL     1     -10.126 -10.092   9.977  0.00  0.00    +0.090 C 
ENDBRANCH  24  25
ENDBRANCH  23  24
ENDBRANCH  22  23
ENDBRANCH  19  20
ENDBRANCH  18  19
TORSDOF 9
ENDMDL
