MODEL 1
REMARK VINA RESULT:     -10.0      0.000      0.000
REMARK  Name = 
REMARK  7 active torsions:
REMARK  status: ('A' for Active; 'I' for Inactive)
REMARK    1  A    between atoms: O_2  and  C_3
REMARK    2  A    between atoms: C_3  and  C_4
REMARK    3  A    between atoms: C_4  and  O_5
REMARK    4  A    between atoms: O_5  and  C_6
REMARK    5  A    between atoms: C_9  and  C_12
REMARK    6  A    between atoms: C_15  and  C_17
REMARK    7  A    between atoms: N_21  and  C_22
REMARK                            x       y       z     vdW  Elec       q    Type
REMARK                         _______ _______ _______ _____ _____    ______ ____
ROOT
ATOM     12  C   UNL     1      -1.124   0.767  24.514  0.00  0.00    +0.205 A 
ATOM     13  N   UNL     1      -1.196   0.749  25.335  0.00  0.00    -0.056 NA
ATOM     14  O   UNL     1      -1.971   0.949  25.528  0.00  0.00    -0.336 OA
ATOM     15  C   UNL     1      -2.380   1.091  24.825  0.00  0.00    +0.251 A 
ATOM     16  N   UNL     1      -1.856   0.978  24.199  0.00  0.00    -0.190 NA
ENDROOT
BRANCH  12   9
ATOM      6  C   UNL     1       0.928   0.272  23.221  0.00  0.00    +0.225 A 
ATOM      7  C   UNL     1       0.428  -0.342  23.451  0.00  0.00    +0.058 A 
ATOM      8  C   UNL     1      -0.256  -0.177  23.882  0.00  0.00    +0.010 A 
ATOM      9  C   UNL     1      -0.440   0.602  24.083  0.00  0.00    +0.058 A 
ATOM     10  C   UNL     1       0.061   1.216  23.852  0.00  0.00    +0.105 A 
ATOM     11  N   UNL     1       0.745   1.051  23.421  0.00  0.00    -0.210 NA
BRANCH   6   5
ATOM      5  O   UNL     1       1.612   0.107  22.790  0.00  0.00    -0.457 OA
BRANCH   5   4
ATOM      4  C   UNL     1       2.318   0.491  22.974  0.00  0.00    +0.239 C 
BRANCH   4   3
ATOM      3  C   UNL     1       3.018   0.267  22.597  0.00  0.00    +0.189 C 
BRANCH   3   2
ATOM      1  C   UNL     1       4.414   0.462  22.833  0.00  0.00    +0.174 C 
ATOM      2  O   UNL     1       3.676   0.765  22.622  0.00  0.00    -0.347 OA
ENDBRANCH   3   2
ENDBRANCH   4   3
ENDBRANCH   5   4
ENDBRANCH   6   5
ENDBRANCH  12   9
BRANCH  15  17
ATOM     17  C   UNL     1      -3.174   1.308  24.762  0.00  0.00    +0.138 C 
ATOM     18  C   UNL     1      -3.465   2.079  24.730  0.00  0.00    +0.027 C 
ATOM     19  C   UNL     1      -4.287   2.038  24.668  0.00  0.00    +0.019 C 
ATOM     20  C   UNL     1      -4.503   1.242  24.661  0.00  0.00    +0.072 C 
ATOM     21  N   UNL     1      -3.816   0.790  24.719  0.00  0.00    -0.268 NA
BRANCH  21  22
ATOM     22  C   UNL     1      -3.775  -0.034  24.732  0.00  0.00    +0.061 C 
ATOM     23  C   UNL     1      -3.816  -0.459  24.026  0.00  0.00    +0.038 C 
ATOM     24  C   UNL     1      -3.775  -1.283  24.039  0.00  0.00    +0.095 C 
ATOM     25  N   UNL     1      -3.693  -1.682  24.757  0.00  0.00    -0.279 N 
ATOM     26  C   UNL     1      -3.652  -1.256  25.462  0.00  0.00    +0.095 C 
ATOM     27  C   UNL     1      -3.693  -0.432  25.450  0.00  0.00    +0.038 C 
ATOM     28  C   UNL     1      -3.652  -2.505  24.769  0.00  0.00    +0.226 C 
ATOM     29  C   UNL     1      -3.693  -2.931  24.063  0.00  0.00    +0.095 C 
ATOM     30  O   UNL     1      -3.571  -2.904  25.487  0.00  0.00    -0.275 OA
ENDBRANCH  21  22
ENDBRANCH  15  17
TORSDOF 7
ENDMDL
MODEL 2
REMARK VINA RESULT:      -9.8      2.528      4.442
REMARK  Name = 
REMARK  7 active torsions:
REMARK  status: ('A' for Active; 'I' for Inactive)
REMARK    1  A    between atoms: O_2  and  C_3
REMARK    2  A    between atoms: C_3  and  C_4
REMARK    3  A    between atoms: C_4  and  O_5
REMARK    4  A    between atoms: O_5  and  C_6
REMARK    5  A    between atoms: C_9  and  C_12
REMARK    6  A    between atoms: C_15  and  C_17
REMARK    7  A    between atoms: N_21  and  C_22
REMARK                            x       y       z     vdW  Elec       q    Type
REMARK                         _______ _______ _______ _____ _____    ______ ____
ROOT
ATOM     12  C   UNL     1      -0.974   1.835  25.486  0.00  0.00    +0.205 A 
ATOM     13  N   UNL     1      -0.767   2.108  26.236  0.00  0.00    -0.056 NA
ATOM     14  O   UNL     1      -0.777   2.932  26.219  0.00  0.00    -0.336 OA
ATOM     15  C   UNL     1      -0.990   3.169  25.457  0.00  0.00    +0.251 A 
ATOM     16  N   UNL     1      -1.112   2.490  25.005  0.00  0.00    -0.190 NA
ENDROOT
BRANCH  12   9
ATOM      6  C   UNL     1      -1.151  -0.537  24.800  0.00  0.00    +0.225 A 
ATOM      7  C   UNL     1      -1.375  -0.310  25.560  0.00  0.00    +0.058 A 
ATOM      8  C   UNL     1      -1.316   0.480  25.789  0.00  0.00    +0.010 A 
ATOM      9  C   UNL     1      -1.033   1.044  25.258  0.00  0.00    +0.058 A 
ATOM     10  C   UNL     1      -0.810   0.817  24.496  0.00  0.00    +0.105 A 
ATOM     11  N   UNL     1      -0.869   0.026  24.267  0.00  0.00    -0.210 NA
BRANCH   6   5
ATOM      5  O   UNL     1      -1.210  -1.327  24.571  0.00  0.00    -0.457 OA
BRANCH   5   4
ATOM      4  C   UNL     1      -1.895  -1.755  24.738  0.00  0.00    +0.239 C 
BRANCH   4   3
ATOM      3  C   UNL     1      -2.074  -2.433  24.302  0.00  0.00    +0.189 C 
BRANCH   3   2
ATOM      1  C   UNL     1      -3.415  -2.926  24.258  0.00  0.00    +0.174 C 
ATOM      2  O   UNL     1      -2.652  -2.956  24.572  0.00  0.00    -0.347 OA
ENDBRANCH   3   2
ENDBRANCH   4   3
ENDBRANCH   5   4
ENDBRANCH   6   5
ENDBRANCH  12   9
BRANCH  15  17
ATOM     17  C   UNL     1      -1.068   3.947  25.196  0.00  0.00    +0.138 C 
ATOM     18  C   UNL     1      -0.451   4.452  24.985  0.00  0.00    +0.027 C 
ATOM     19  C   UNL     1      -0.779   5.175  24.758  0.00  0.00    +0.019 C 
ATOM     20  C   UNL     1      -1.599   5.115  24.829  0.00  0.00    +0.072 C 
ATOM     21  N   UNL     1      -1.778   4.358  25.099  0.00  0.00    -0.268 NA
BRANCH  21  22
ATOM     22  C   UNL     1      -2.533   4.060  25.246  0.00  0.00    +0.061 C 
ATOM     23  C   UNL     1      -2.964   3.711  24.635  0.00  0.00    +0.038 C 
ATOM     24  C   UNL     1      -3.720   3.413  24.782  0.00  0.00    +0.095 C 
ATOM     25  N   UNL     1      -4.044   3.464  25.540  0.00  0.00    -0.279 N 
ATOM     26  C   UNL     1      -3.612   3.813  26.150  0.00  0.00    +0.095 C 
ATOM     27  C   UNL     1      -2.856   4.111  26.003  0.00  0.00    +0.038 C 
ATOM     28  C   UNL     1      -4.798   3.166  25.686  0.00  0.00    +0.226 C 
ATOM     29  C   UNL     1      -5.231   2.817  25.075  0.00  0.00    +0.095 C 
ATOM     30  O   UNL     1      -5.123   3.217  26.443  0.00  0.00    -0.275 OA
ENDBRANCH  21  22
ENDBRANCH  15  17
TORSDOF 7
ENDMDL
MODEL 3
REMARK VINA RESULT:      -9.5      1.115      2.620
REMARK  Name = 
REMARK  7 active torsions:
REMARK  status: ('A' for Active; 'I' for Inactive)
REMARK    1  A    between atoms: O_2  and  C_3
REMARK    2  A    between atoms: C_3  and  C_4
REMARK    3  A    between atoms: C_4  and  O_5
REMARK    4  A    between atoms: O_5  and  C_6
REMARK    5  A    between atoms: C_9  and  C_12
REMARK    6  A    between atoms: C_15  and  C_17
REMARK    7  A    between atoms: N_21  and  C_22
REMARK                            x       y       z     vdW  Elec       q    Type
REMARK                         _______ _______ _______ _____ _____    ______ ____
ROOT
ATOM     12  C   UNL     1      -0.888  -0.219  24.443  0.00  0.00    +0.205 A 
ATOM     13  N   UNL     1      -1.017  -0.069  25.243  0.00  0.00    -0.056 NA
ATOM     14  O   UNL     1      -1.770  -0.343  25.436  0.00  0.00    -0.336 OA
ATOM     15  C   UNL     1      -2.108  -0.662  24.753  0.00  0.00    +0.251 A 
ATOM     16  N   UNL     1      -1.562  -0.586  24.141  0.00  0.00    -0.190 NA
ENDROOT
BRANCH  12   9
ATOM      6  C   UNL     1       1.162   0.333  23.171  0.00  0.00    +0.225 A 
ATOM      7  C   UNL     1       0.715   0.935  23.514  0.00  0.00    +0.058 A 
ATOM      8  C   UNL     1       0.032   0.751  23.938  0.00  0.00    +0.010 A 
ATOM      9  C   UNL     1      -0.205  -0.035  24.019  0.00  0.00    +0.058 A 
ATOM     10  C   UNL     1       0.243  -0.638  23.675  0.00  0.00    +0.105 A 
ATOM     11  N   UNL     1       0.926  -0.454  23.251  0.00  0.00    -0.210 NA
BRANCH   6   5
ATOM      5  O   UNL     1       1.845   0.517  22.747  0.00  0.00    -0.457 OA
BRANCH   5   4
ATOM      4  C   UNL     1       2.579   0.515  23.124  0.00  0.00    +0.239 C 
BRANCH   4   3
ATOM      3  C   UNL     1       3.269   0.627  22.685  0.00  0.00    +0.189 C 
BRANCH   3   2
ATOM      1  C   UNL     1       4.656   0.549  23.020  0.00  0.00    +0.174 C 
ATOM      2  O   UNL     1       3.936   0.954  23.043  0.00  0.00    -0.347 OA
ENDBRANCH   3   2
ENDBRANCH   4   3
ENDBRANCH   5   4
ENDBRANCH   6   5
ENDBRANCH  12   9
BRANCH  15  17
ATOM     17  C   UNL     1      -2.859  -0.999  24.697  0.00  0.00    +0.138 C 
ATOM     18  C   UNL     1      -3.039  -1.799  24.777  0.00  0.00    +0.027 C 
ATOM     19  C   UNL     1      -3.854  -1.888  24.679  0.00  0.00    +0.019 C 
ATOM     20  C   UNL     1      -4.176  -1.141  24.539  0.00  0.00    +0.072 C 
ATOM     21  N   UNL     1      -3.562  -0.592  24.549  0.00  0.00    -0.268 NA
BRANCH  21  22
ATOM     22  C   UNL     1      -3.636   0.222  24.433  0.00  0.00    +0.061 C 
ATOM     23  C   UNL     1      -3.794   0.716  25.076  0.00  0.00    +0.038 C 
ATOM     24  C   UNL     1      -3.868   1.530  24.960  0.00  0.00    +0.095 C 
ATOM     25  N   UNL     1      -3.783   1.849  24.204  0.00  0.00    -0.279 N 
ATOM     26  C   UNL     1      -3.625   1.355  23.563  0.00  0.00    +0.095 C 
ATOM     27  C   UNL     1      -3.551   0.541  23.678  0.00  0.00    +0.038 C 
ATOM     28  C   UNL     1      -3.857   2.663  24.089  0.00  0.00    +0.226 C 
ATOM     29  C   UNL     1      -4.015   3.157  24.731  0.00  0.00    +0.095 C 
ATOM     30  O   UNL     1      -3.772   2.982  23.334  0.00  0.00    -0.275 OA
ENDBRANCH  21  22
ENDBRANCH  15  17
TORSDOF 7
ENDMDL
MODEL 4
REMARK VINA RESULT:      -8.9      2.462      2.968
REMARK  Name = 
REMARK  7 active torsions:
REMARK  status: ('A' for Active; 'I' for Inactive)
REMARK    1  A    between atoms: O_2  and  C_3
REMARK    2  A    between atoms: C_3  and  C_4
REMARK    3  A    between atoms: C_4  and  O_5
REMARK    4  A    between atoms: O_5  and  C_6
REMARK    5  A    between atoms: C_9  and  C_12
REMARK    6  A    between atoms: C_15  and  C_17
REMARK    7  A    between atoms: N_21  and  C_22
REMARK                            x       y       z     vdW  Elec       q    Type
REMARK                         _______ _______ _______ _____ _____    ______ ____
ROOT
ATOM     12  C   UNL     1      -2.154   2.026  24.880  0.00  0.00    +0.205 A 
ATOM     13  N   UNL     1      -2.216   1.848  24.077  0.00  0.00    -0.056 NA
ATOM     14  O   UNL     1      -3.014   1.753  23.896  0.00  0.00    -0.336 OA
ATOM     15  C   UNL     1      -3.448   1.872  24.589  0.00  0.00    +0.251 A 
ATOM     16  N   UNL     1      -2.916   2.041  25.196  0.00  0.00    -0.190 NA
ENDROOT
BRANCH  12   9
ATOM      6  C   UNL     1      -0.055   2.444  26.122  0.00  0.00    +0.225 A 
ATOM      7  C   UNL     1      -0.563   3.070  25.949  0.00  0.00    +0.058 A 
ATOM      8  C   UNL     1      -1.262   2.931  25.534  0.00  0.00    +0.010 A 
ATOM      9  C   UNL     1      -1.455   2.166  25.294  0.00  0.00    +0.058 A 
ATOM     10  C   UNL     1      -0.946   1.539  25.468  0.00  0.00    +0.105 A 
ATOM     11  N   UNL     1      -0.246   1.678  25.882  0.00  0.00    -0.210 NA
BRANCH   6   5
ATOM      5  O   UNL     1       0.645   2.584  26.536  0.00  0.00    -0.457 OA
BRANCH   5   4
ATOM      4  C   UNL     1       0.658   2.519  27.358  0.00  0.00    +0.239 C 
BRANCH   4   3
ATOM      3  C   UNL     1       1.352   2.685  27.774  0.00  0.00    +0.189 C 
BRANCH   3   2
ATOM      1  C   UNL     1       2.082   2.715  29.002  0.00  0.00    +0.174 C 
ATOM      2  O   UNL     1       1.392   2.538  28.584  0.00  0.00    -0.347 OA
ENDBRANCH   3   2
ENDBRANCH   4   3
ENDBRANCH   5   4
ENDBRANCH   6   5
ENDBRANCH  12   9
BRANCH  15  17
ATOM     17  C   UNL     1      -4.268   1.829  24.660  0.00  0.00    +0.138 C 
ATOM     18  C   UNL     1      -4.790   2.467  24.649  0.00  0.00    +0.027 C 
ATOM     19  C   UNL     1      -5.556   2.171  24.736  0.00  0.00    +0.019 C 
ATOM     20  C   UNL     1      -5.506   1.351  24.800  0.00  0.00    +0.072 C 
ATOM     21  N   UNL     1      -4.711   1.138  24.753  0.00  0.00    -0.268 NA
BRANCH  21  22
ATOM     22  C   UNL     1      -4.410   0.371  24.792  0.00  0.00    +0.061 C 
ATOM     23  C   UNL     1      -4.306  -0.066  24.099  0.00  0.00    +0.038 C 
ATOM     24  C   UNL     1      -4.004  -0.833  24.138  0.00  0.00    +0.095 C 
ATOM     25  N   UNL     1      -3.806  -1.163  24.868  0.00  0.00    -0.279 N 
ATOM     26  C   UNL     1      -3.910  -0.726  25.560  0.00  0.00    +0.095 C 
ATOM     27  C   UNL     1      -4.212   0.042  25.521  0.00  0.00    +0.038 C 
ATOM     28  C   UNL     1      -3.505  -1.929  24.906  0.00  0.00    +0.226 C 
ATOM     29  C   UNL     1      -3.401  -2.367  24.214  0.00  0.00    +0.095 C 
ATOM     30  O   UNL     1      -3.307  -2.260  25.636  0.00  0.00    -0.275 OA
ENDBRANCH  21  22
ENDBRANCH  15  17
TORSDOF 7
ENDMDL
MODEL 5
REMARK VINA RESULT:      -8.9      1.152      2.901
REMARK  Name = 
REMARK  7 active torsions:
REMARK  status: ('A' for Active; 'I' for Inactive)
REMARK    1  A    between atoms: O_2  and  C_3
REMARK    2  A    between atoms: C_3  and  C_4
REMARK    3  A    between atoms: C_4  and  O_5
REMARK    4  A    between atoms: O_5  and  C_6
REMARK    5  A    between atoms: C_9  and  C_12
REMARK    6  A    between atoms: C_15  and  C_17
REMARK    7  A    between atoms: N_21  and  C_22
REMARK                            x       y       z     vdW  Elec       q    Type
REMARK                         _______ _______ _______ _____ _____    ______ ____
ROOT
ATOM     12  C   UNL     1      -1.153   0.144  24.435  0.00  0.00    +0.205 A 
ATOM     13  N   UNL     1      -1.221   0.178  25.257  0.00  0.00    -0.056 NA
ATOM     14  O   UNL     1      -2.023   0.186  25.447  0.00  0.00    -0.336 OA
ATOM     15  C   UNL     1      -2.452   0.157  24.742  0.00  0.00    +0.251 A 
ATOM     16  N   UNL     1      -1.914   0.131  24.118  0.00  0.00    -0.190 NA
ENDROOT
BRANCH  12   9
ATOM      6  C   UNL     1       0.961   0.089  23.150  0.00  0.00    +0.225 A 
ATOM      7  C   UNL     1       0.599  -0.616  23.377  0.00  0.00    +0.058 A 
ATOM      8  C   UNL     1      -0.106  -0.597  23.806  0.00  0.00    +0.010 A 
ATOM      9  C   UNL     1      -0.448   0.126  24.007  0.00  0.00    +0.058 A 
ATOM     10  C   UNL     1      -0.085   0.831  23.779  0.00  0.00    +0.105 A 
ATOM     11  N   UNL     1       0.620   0.813  23.351  0.00  0.00    -0.210 NA
BRANCH   6   5
ATOM      5  O   UNL     1       1.666   0.071  22.722  0.00  0.00    -0.457 OA
BRANCH   5   4
ATOM      4  C   UNL     1       2.332   0.467  23.005  0.00  0.00    +0.239 C 
BRANCH   4   3
ATOM      3  C   UNL     1       3.063   0.359  22.637  0.00  0.00    +0.189 C 
BRANCH   3   2
ATOM      1  C   UNL     1       4.455   0.572  22.878  0.00  0.00    +0.174 C 
ATOM      2  O   UNL     1       3.689   0.869  22.807  0.00  0.00    -0.347 OA
ENDBRANCH   3   2
ENDBRANCH   4   3
ENDBRANCH   5   4
ENDBRANCH   6   5
ENDBRANCH  12   9
BRANCH  15  17
ATOM     17  C   UNL     1      -3.274   0.155  24.676  0.00  0.00    +0.138 C 
ATOM     18  C   UNL     1      -3.752  -0.511  24.589  0.00  0.00    +0.027 C 
ATOM     19  C   UNL     1      -4.537  -0.257  24.544  0.00  0.00    +0.019 C 
ATOM     20  C   UNL     1      -4.542   0.566  24.603  0.00  0.00    +0.072 C 
ATOM     21  N   UNL     1      -3.763   0.821  24.685  0.00  0.00    -0.268 NA
BRANCH  21  22
ATOM     22  C   UNL     1      -3.513   1.604  24.762  0.00  0.00    +0.061 C 
ATOM     23  C   UNL     1      -3.378   1.921  25.512  0.00  0.00    +0.038 C 
ATOM     24  C   UNL     1      -3.128   2.704  25.590  0.00  0.00    +0.095 C 
ATOM     25  N   UNL     1      -3.014   3.169  24.917  0.00  0.00    -0.279 N 
ATOM     26  C   UNL     1      -3.149   2.852  24.168  0.00  0.00    +0.095 C 
ATOM     27  C   UNL     1      -3.398   2.069  24.091  0.00  0.00    +0.038 C 
ATOM     28  C   UNL     1      -2.764   3.951  24.996  0.00  0.00    +0.226 C 
ATOM     29  C   UNL     1      -2.629   4.269  25.746  0.00  0.00    +0.095 C 
ATOM     30  O   UNL     1      -2.649   4.417  24.324  0.00  0.00    -0.275 OA
ENDBRANCH  21  22
ENDBRANCH  15  17
TORSDOF 7
ENDMDL
MODEL 6
REMARK VINA RESULT:      -8.4      2.095      5.094
REMARK  Name = 
REMARK  7 active torsions:
REMARK  status: ('A' for Active; 'I' for Inactive)
REMARK    1  A    between atoms: O_2  and  C_3
REMARK    2  A    between atoms: C_3  and  C_4
REMARK    3  A    between atoms: C_4  and  O_5
REMARK    4  A    between atoms: O_5  and  C_6
REMARK    5  A    between atoms: C_9  and  C_12
REMARK    6  A    between atoms: C_15  and  C_17
REMARK    7  A    between atoms: N_21  and  C_22
REMARK                            x       y       z     vdW  Elec       q    Type
REMARK                         _______ _______ _______ _____ _____    ______ ____
ROOT
ATOM     12  C   UNL     1      -3.796   1.907  24.412  0.00  0.00    +0.205 A 
ATOM     13  N   UNL     1      -3.855   2.484  23.826  0.00  0.00    -0.056 NA
ATOM     14  O   UNL     1      -3.644   3.208  24.158  0.00  0.00    -0.336 OA
ATOM     15  C   UNL     1      -3.455   3.079  24.952  0.00  0.00    +0.251 A 
ATOM     16  N   UNL     1      -3.549   2.275  25.107  0.00  0.00    -0.190 NA
ENDROOT
BRANCH  12   9
ATOM      6  C   UNL     1      -4.277  -0.505  24.133  0.00  0.00    +0.225 A 
ATOM      7  C   UNL     1      -4.685  -0.066  24.699  0.00  0.00    +0.058 A 
ATOM      8  C   UNL     1      -4.525   0.738  24.792  0.00  0.00    +0.010 A 
ATOM      9  C   UNL     1      -3.956   1.103  24.319  0.00  0.00    +0.058 A 
ATOM     10  C   UNL     1      -3.548   0.663  23.752  0.00  0.00    +0.105 A 
ATOM     11  N   UNL     1      -3.708  -0.141  23.659  0.00  0.00    -0.210 NA
BRANCH   6   5
ATOM      5  O   UNL     1      -4.437  -1.309  24.040  0.00  0.00    -0.457 OA
BRANCH   5   4
ATOM      4  C   UNL     1      -3.873  -1.870  24.256  0.00  0.00    +0.239 C 
BRANCH   4   3
ATOM      3  C   UNL     1      -4.007  -2.670  24.102  0.00  0.00    +0.189 C 
BRANCH   3   2
ATOM      1  C   UNL     1      -2.794  -3.304  24.512  0.00  0.00    +0.174 C 
ATOM      2  O   UNL     1      -3.617  -3.246  24.545  0.00  0.00    -0.347 OA
ENDBRANCH   3   2
ENDBRANCH   4   3
ENDBRANCH   5   4
ENDBRANCH   6   5
ENDBRANCH  12   9
BRANCH  15  17
ATOM     17  C   UNL     1      -3.214   3.654  25.492  0.00  0.00    +0.138 C 
ATOM     18  C   UNL     1      -3.709   4.158  25.916  0.00  0.00    +0.027 C 
ATOM     19  C   UNL     1      -3.235   4.642  26.389  0.00  0.00    +0.019 C 
ATOM     20  C   UNL     1      -2.448   4.435  26.256  0.00  0.00    +0.072 C 
ATOM     21  N   UNL     1      -2.434   3.825  25.702  0.00  0.00    -0.268 NA
BRANCH  21  22
ATOM     22  C   UNL     1      -1.760   3.450  25.408  0.00  0.00    +0.061 C 
ATOM     23  C   UNL     1      -1.447   2.797  25.804  0.00  0.00    +0.038 C 
ATOM     24  C   UNL     1      -0.773   2.421  25.511  0.00  0.00    +0.095 C 
ATOM     25  N   UNL     1      -0.413   2.699  24.822  0.00  0.00    -0.279 N 
ATOM     26  C   UNL     1      -0.726   3.352  24.427  0.00  0.00    +0.095 C 
ATOM     27  C   UNL     1      -1.400   3.727  24.721  0.00  0.00    +0.038 C 
ATOM     28  C   UNL     1       0.261   2.324  24.529  0.00  0.00    +0.226 C 
ATOM     29  C   UNL     1       0.574   1.670  24.924  0.00  0.00    +0.095 C 
ATOM     30  O   UNL     1       0.622   2.601  23.841  0.00  0.00    -0.275 OA
ENDBRANCH  21  22
ENDBRANCH  15  17
TORSDOF 7
ENDMDL
MODEL 7
REMARK VINA RESULT:      -8.2      2.736      4.552
REMARK  Name = 
REMARK  7 active torsions:
REMARK  status: ('A' for Active; 'I' for Inactive)
REMARK    1  A    between atoms: O_2  and  C_3
REMARK    2  A    between atoms: C_3  and  C_4
REMARK    3  A    between atoms: C_4  and  O_5
REMARK    4  A    between atoms: O_5  and  C_6
REMARK    5  A    between atoms: C_9  and  C_12
REMARK    6  A    between atoms: C_15  and  C_17
REMARK    7  A    between atoms: N_21  and  C_22
REMARK                            x       y       z     vdW  Elec       q    Type
REMARK                         _______ _______ _______ _____ _____    ______ ____
ROOT
ATOM     12  C   UNL     1      -3.809   1.154  24.279  0.00  0.00    +0.205 A 
ATOM     13  N   UNL     1      -3.917   1.606  23.598  0.00  0.00    -0.056 NA
ATOM     14  O   UNL     1      -4.314   2.297  23.810  0.00  0.00    -0.336 OA
ATOM     15  C   UNL     1      -4.452   2.271  24.624  0.00  0.00    +0.251 A 
ATOM     16  N   UNL     1      -4.139   1.565  24.913  0.00  0.00    -0.190 NA
ENDROOT
BRANCH  12   9
ATOM      6  C   UNL     1      -2.689  -1.050  24.398  0.00  0.00    +0.225 A 
ATOM      7  C   UNL     1      -3.508  -0.999  24.475  0.00  0.00    +0.058 A 
ATOM      8  C   UNL     1      -3.882  -0.265  24.435  0.00  0.00    +0.010 A 
ATOM      9  C   UNL     1      -3.436   0.419  24.319  0.00  0.00    +0.058 A 
ATOM     10  C   UNL     1      -2.615   0.368  24.242  0.00  0.00    +0.105 A 
ATOM     11  N   UNL     1      -2.242  -0.367  24.282  0.00  0.00    -0.210 NA
BRANCH   6   5
ATOM      5  O   UNL     1      -2.316  -1.785  24.438  0.00  0.00    -0.457 OA
BRANCH   5   4
ATOM      4  C   UNL     1      -1.607  -1.866  24.852  0.00  0.00    +0.239 C 
BRANCH   4   3
ATOM      3  C   UNL     1      -1.158  -2.554  24.770  0.00  0.00    +0.189 C 
BRANCH   3   2
ATOM      1  C   UNL     1       0.153  -2.538  25.338  0.00  0.00    +0.174 C 
ATOM      2  O   UNL     1      -0.636  -2.779  25.368  0.00  0.00    -0.347 OA
ENDBRANCH   3   2
ENDBRANCH   4   3
ENDBRANCH   5   4
ENDBRANCH   6   5
ENDBRANCH  12   9
BRANCH  15  17
ATOM     17  C   UNL     1      -4.835   2.851  25.069  0.00  0.00    +0.138 C 
ATOM     18  C   UNL     1      -5.638   2.871  25.252  0.00  0.00    +0.027 C 
ATOM     19  C   UNL     1      -5.780   3.546  25.705  0.00  0.00    +0.019 C 
ATOM     20  C   UNL     1      -5.063   3.942  25.802  0.00  0.00    +0.072 C 
ATOM     21  N   UNL     1      -4.479   3.514  25.409  0.00  0.00    -0.268 NA
BRANCH  21  22
ATOM     22  C   UNL     1      -3.679   3.711  25.364  0.00  0.00    +0.061 C 
ATOM     23  C   UNL     1      -3.401   4.154  24.725  0.00  0.00    +0.038 C 
ATOM     24  C   UNL     1      -2.601   4.352  24.679  0.00  0.00    +0.095 C 
ATOM     25  N   UNL     1      -2.080   4.107  25.271  0.00  0.00    -0.279 N 
ATOM     26  C   UNL     1      -2.359   3.665  25.908  0.00  0.00    +0.095 C 
ATOM     27  C   UNL     1      -3.159   3.467  25.955  0.00  0.00    +0.038 C 
ATOM     28  C   UNL     1      -1.281   4.305  25.224  0.00  0.00    +0.226 C 
ATOM     29  C   UNL     1      -1.001   4.748  24.586  0.00  0.00    +0.095 C 
ATOM     30  O   UNL     1      -0.760   4.061  25.815  0.00  0.00    -0.275 OA
ENDBRANCH  21  22
ENDBRANCH  15  17
TORSDOF 7
ENDMDL
MODEL 8
REMARK VINA RESULT:      -7.9      2.493      3.320
REMARK  Name = 
REMARK  7 active torsions:
REMARK  status: ('A' for Active; 'I' for Inactive)
REMARK    1  A    between atoms: O_2  and  C_3
REMARK    2  A    between atoms: C_3  and  C_4
REMARK    3  A    between atoms: C_4  and  O_5
REMARK    4  A    between atoms: O_5  and  C_6
REMARK    5  A    between atoms: C_9  and  C_12
REMARK    6  A    between atoms: C_15  and  C_17
REMARK    7  A    between atoms: N_21  and  C_22
REMARK                            x       y       z     vdW  Elec       q    Type
REMARK                         _______ _______ _______ _____ _____    ______ ____
ROOT
ATOM     12  C   UNL     1      -0.846   2.369  24.946  0.00  0.00    +0.205 A 
ATOM     13  N   UNL     1      -1.101   2.307  25.728  0.00  0.00    -0.056 NA
ATOM     14  O   UNL     1      -1.470   3.016  25.933  0.00  0.00    -0.336 OA
ATOM     15  C   UNL     1      -1.442   3.516  25.276  0.00  0.00    +0.251 A 
ATOM     16  N   UNL     1      -1.057   3.116  24.668  0.00  0.00    -0.190 NA
ENDROOT
BRANCH  12   9
ATOM      6  C   UNL     1       0.345   0.620  23.662  0.00  0.00    +0.225 A 
ATOM      7  C   UNL     1       0.738   1.310  23.880  0.00  0.00    +0.058 A 
ATOM      8  C   UNL     1       0.342   1.893  24.308  0.00  0.00    +0.010 A 
ATOM      9  C   UNL     1      -0.449   1.786  24.518  0.00  0.00    +0.058 A 
ATOM     10  C   UNL     1      -0.843   1.094  24.299  0.00  0.00    +0.105 A 
ATOM     11  N   UNL     1      -0.446   0.511  23.871  0.00  0.00    -0.210 NA
BRANCH   6   5
ATOM      5  O   UNL     1       0.741   0.037  23.234  0.00  0.00    -0.457 OA
BRANCH   5   4
ATOM      4  C   UNL     1       1.519   0.161  22.988  0.00  0.00    +0.239 C 
BRANCH   4   3
ATOM      3  C   UNL     1       1.872  -0.361  22.456  0.00  0.00    +0.189 C 
BRANCH   3   2
ATOM      1  C   UNL     1       3.193  -0.052  22.007  0.00  0.00    +0.174 C 
ATOM      2  O   UNL     1       2.379  -0.074  21.872  0.00  0.00    -0.347 OA
ENDBRANCH   3   2
ENDBRANCH   4   3
ENDBRANCH   5   4
ENDBRANCH   6   5
ENDBRANCH  12   9
BRANCH  15  17
ATOM     17  C   UNL     1      -1.747   4.282  25.238  0.00  0.00    +0.138 C 
ATOM     18  C   UNL     1      -1.309   4.980  25.251  0.00  0.00    +0.027 C 
ATOM     19  C   UNL     1      -1.837   5.613  25.201  0.00  0.00    +0.019 C 
ATOM     20  C   UNL     1      -2.600   5.305  25.157  0.00  0.00    +0.072 C 
ATOM     21  N   UNL     1      -2.546   4.483  25.180  0.00  0.00    -0.268 NA
BRANCH  21  22
ATOM     22  C   UNL     1      -3.178   3.953  25.150  0.00  0.00    +0.061 C 
ATOM     23  C   UNL     1      -3.543   3.709  25.849  0.00  0.00    +0.038 C 
ATOM     24  C   UNL     1      -4.175   3.178  25.820  0.00  0.00    +0.095 C 
ATOM     25  N   UNL     1      -4.441   2.893  25.092  0.00  0.00    -0.279 N 
ATOM     26  C   UNL     1      -4.075   3.137  24.395  0.00  0.00    +0.095 C 
ATOM     27  C   UNL     1      -3.443   3.667  24.424  0.00  0.00    +0.038 C 
ATOM     28  C   UNL     1      -5.072   2.363  25.064  0.00  0.00    +0.226 C 
ATOM     29  C   UNL     1      -5.438   2.118  25.762  0.00  0.00    +0.095 C 
ATOM     30  O   UNL     1      -5.338   2.077  24.337  0.00  0.00    -0.275 OA
ENDBRANCH  21  22
ENDBRANCH  15  17
TORSDOF 7
ENDMDL
MODEL 9
REMARK VINA RESULT:      -6.6     15.072     17.500
REMARK  Name = 
REMARK  7 active torsions:
REMARK  status: ('A' for Active; 'I' for Inactive)
REMARK    1  A    between atoms: O_2  and  C_3
REMARK    2  A    between atoms: C_3  and  C_4
REMARK    3  A    between atoms: C_4  and  O_5
REMARK    4  A    between atoms: O_5  and  C_6
REMARK    5  A    between atoms: C_9  and  C_12
REMARK    6  A    between atoms: C_15  and  C_17
REMARK    7  A    between atoms: N_21  and  C_22
REMARK                            x       y       z     vdW  Elec       q    Type
REMARK                         _______ _______ _______ _____ _____    ______ ____
ROOT
ATOM     12  C   UNL     1      12.145   7.626  19.090  0.00  0.00    +0.205 A 
ATOM     13  N   UNL     1      12.149   6.835  19.324  0.00  0.00    -0.056 NA
ATOM     14  O   UNL     1      11.831   6.791  20.083  0.00  0.00    -0.336 OA
ATOM     15  C   UNL     1      11.630   7.557  20.320  0.00  0.00    +0.251 A 
ATOM     16  N   UNL     1      11.824   8.071  19.706  0.00  0.00    -0.190 NA
ENDROOT
BRANCH  12   9
ATOM      6  C   UNL     1      12.952   8.508  16.923  0.00  0.00    +0.225 A 
ATOM      7  C   UNL     1      12.567   9.007  17.454  0.00  0.00    +0.058 A 
ATOM      8  C   UNL     1      12.298   8.714  18.176  0.00  0.00    +0.010 A 
ATOM      9  C   UNL     1      12.414   7.920  18.368  0.00  0.00    +0.058 A 
ATOM     10  C   UNL     1      12.799   7.419  17.836  0.00  0.00    +0.105 A 
ATOM     11  N   UNL     1      13.068   7.713  17.114  0.00  0.00    -0.210 NA
BRANCH   6   5
ATOM      5  O   UNL     1      13.221   8.801  16.201  0.00  0.00    -0.457 OA
BRANCH   5   4
ATOM      4  C   UNL     1      13.998   8.662  15.962  0.00  0.00    +0.239 C 
BRANCH   4   3
ATOM      3  C   UNL     1      14.321   9.094  15.337  0.00  0.00    +0.189 C 
BRANCH   3   2
ATOM      1  C   UNL     1      15.028   8.868  14.116  0.00  0.00    +0.174 C 
ATOM      2  O   UNL     1      14.984   8.808  14.938  0.00  0.00    -0.347 OA
ENDBRANCH   3   2
ENDBRANCH   4   3
ENDBRANCH   5   4
ENDBRANCH   6   5
ENDBRANCH  12   9
BRANCH  15  17
ATOM     17  C   UNL     1      11.295   7.767  21.043  0.00  0.00    +0.138 C 
ATOM     18  C   UNL     1      10.490   7.779  21.220  0.00  0.00    +0.027 C 
ATOM     19  C   UNL     1      10.404   8.022  22.004  0.00  0.00    +0.019 C 
ATOM     20  C   UNL     1      11.157   8.161  22.311  0.00  0.00    +0.072 C 
ATOM     21  N   UNL     1      11.708   8.003  21.719  0.00  0.00    -0.268 NA
BRANCH  21  22
ATOM     22  C   UNL     1      12.527   8.069  21.787  0.00  0.00    +0.061 C 
ATOM     23  C   UNL     1      12.991   7.389  21.852  0.00  0.00    +0.038 C 
ATOM     24  C   UNL     1      13.811   7.455  21.920  0.00  0.00    +0.095 C 
ATOM     25  N   UNL     1      14.167   8.199  21.923  0.00  0.00    -0.279 N 
ATOM     26  C   UNL     1      13.703   8.878  21.857  0.00  0.00    +0.095 C 
ATOM     27  C   UNL     1      12.883   8.813  21.789  0.00  0.00    +0.038 C 
ATOM     28  C   UNL     1      14.986   8.264  21.991  0.00  0.00    +0.226 C 
ATOM     29  C   UNL     1      15.450   7.585  22.056  0.00  0.00    +0.095 C 
ATOM     30  O   UNL     1      15.342   9.008  21.993  0.00  0.00    -0.275 OA
ENDBRANCH  21  22
ENDBRANCH  15  17
TORSDOF 7
ENDMDL
MODEL 10
REMARK VINA RESULT:      -6.5     16.599     18.652
REMARK  Name = 
REMARK  7 active torsions:
REMARK  status: ('A' for Active; 'I' for Inactive)
REMARK    1  A    between atoms: O_2  and  C_3
REMARK    2  A    between atoms: C_3  and  C_4
REMARK    3  A    between atoms: C_4  and  O_5
REMARK    4  A    between atoms: O_5  and  C_6
REMARK    5  A    between atoms: C_9  and  C_12
REMARK    6  A    between atoms: C_15  and  C_17
REMARK    7  A    between atoms: N_21  and  C_22
REMARK                            x       y       z     vdW  Elec       q    Type
REMARK                         _______ _______ _______ _____ _____    ______ ____
ROOT
ATOM     12  C   UNL     1      13.387   7.744  20.313  0.00  0.00    +0.205 A 
ATOM     13  N   UNL     1      13.446   7.109  20.837  0.00  0.00    -0.056 NA
ATOM     14  O   UNL     1      14.096   7.240  21.326  0.00  0.00    -0.336 OA
ATOM     15  C   UNL     1      14.440   7.958  21.105  0.00  0.00    +0.251 A 
ATOM     16  N   UNL     1      14.001   8.268  20.480  0.00  0.00    -0.190 NA
ENDROOT
BRANCH  12   9
ATOM      6  C   UNL     1      11.669   8.025  18.554  0.00  0.00    +0.225 A 
ATOM      7  C   UNL     1      11.916   8.675  18.996  0.00  0.00    +0.058 A 
ATOM      8  C   UNL     1      12.489   8.582  19.583  0.00  0.00    +0.010 A 
ATOM      9  C   UNL     1      12.814   7.837  19.727  0.00  0.00    +0.058 A 
ATOM     10  C   UNL     1      12.566   7.186  19.284  0.00  0.00    +0.105 A 
ATOM     11  N   UNL     1      11.993   7.280  18.698  0.00  0.00    -0.210 NA
BRANCH   6   5
ATOM      5  O   UNL     1      11.096   8.119  17.968  0.00  0.00    -0.457 OA
BRANCH   5   4
ATOM      4  C   UNL     1      11.322   8.294  17.194  0.00  0.00    +0.239 C 
BRANCH   4   3
ATOM      3  C   UNL     1      10.769   8.597  16.661  0.00  0.00    +0.189 C 
BRANCH   3   2
ATOM      1  C   UNL     1      10.588   9.093  15.334  0.00  0.00    +0.174 C 
ATOM      2  O   UNL     1      11.016   9.078  16.039  0.00  0.00    -0.347 OA
ENDBRANCH   3   2
ENDBRANCH   4   3
ENDBRANCH   5   4
ENDBRANCH   6   5
ENDBRANCH  12   9
BRANCH  15  17
ATOM     17  C   UNL     1      15.105   8.303  21.450  0.00  0.00    +0.138 C 
ATOM     18  C   UNL     1      15.102   8.906  22.012  0.00  0.00    +0.027 C 
ATOM     19  C   UNL     1      15.887   9.080  22.202  0.00  0.00    +0.019 C 
ATOM     20  C   UNL     1      16.373   8.583  21.758  0.00  0.00    +0.072 C 
ATOM     21  N   UNL     1      15.891   8.103  21.293  0.00  0.00    -0.268 NA
BRANCH  21  22
ATOM     22  C   UNL     1      16.147   7.524  20.764  0.00  0.00    +0.061 C 
ATOM     23  C   UNL     1      16.268   7.717  19.971  0.00  0.00    +0.038 C 
ATOM     24  C   UNL     1      16.524   7.138  19.441  0.00  0.00    +0.095 C 
ATOM     25  N   UNL     1      16.658   6.367  19.704  0.00  0.00    -0.279 N 
ATOM     26  C   UNL     1      16.537   6.176  20.497  0.00  0.00    +0.095 C 
ATOM     27  C   UNL     1      16.281   6.754  21.027  0.00  0.00    +0.038 C 
ATOM     28  C   UNL     1      16.914   5.790  19.174  0.00  0.00    +0.226 C 
ATOM     29  C   UNL     1      17.036   5.982  18.381  0.00  0.00    +0.095 C 
ATOM     30  O   UNL     1      17.048   5.019  19.437  0.00  0.00    -0.275 OA
ENDBRANCH  21  22
ENDBRANCH  15  17
TORSDOF 7
ENDMDL
