MODEL 1
REMARK VINA RESULT:     -12.3      0.000      0.000
REMARK  Name = 
REMARK  4 active torsions:
REMARK  status: ('A' for Active; 'I' for Inactive)
REMARK    1  A    between atoms: C_2  and  C_21
REMARK    2  A    between atoms: C_9  and  N_10
REMARK    3  A    between atoms: N_10  and  S_11
REMARK    4  A    between atoms: C_21  and  C_23
REMARK                            x       y       z     vdW  Elec       q    Type
REMARK                         _______ _______ _______ _____ _____    ______ ____
ROOT
ATOM      1  C   UNL     1      -2.062   1.735  24.835  0.00  0.00    +0.052 C 
ATOM      2  C   UNL     1      -2.663   1.893  24.291  0.00  0.00    -0.001 C 
ATOM      3  C   UNL     1      -3.145   1.281  24.021  0.00  0.00    -0.000 C 
ATOM      4  C   UNL     1      -3.027   0.512  24.293  0.00  0.00    -0.001 C 
ATOM      5  C   UNL     1      -3.627   0.669  23.751  0.00  0.00    -0.000 C 
ATOM      6  C   UNL     1      -3.509  -0.101  24.022  0.00  0.00    +0.001 C 
ATOM      7  C   UNL     1      -3.390  -0.870  24.294  0.00  0.00    +0.019 C 
ATOM      8  C   UNL     1      -2.788  -1.028  24.837  0.00  0.00    +0.097 C 
ATOM     14  C   UNL     1      -2.306  -0.416  25.107  0.00  0.00    +0.017 C 
ATOM     15  C   UNL     1      -1.705  -0.574  25.650  0.00  0.00    +0.001 C 
ATOM     16  C   UNL     1      -2.425   0.354  24.836  0.00  0.00    +0.045 C 
ATOM     17  C   UNL     1      -1.943   0.966  25.106  0.00  0.00    +0.145 C 
ATOM     18  O   UNL     1      -1.342   0.808  25.649  0.00  0.00    -0.224 OA
ENDROOT
BRANCH   1  19
ATOM     19  C   UNL     1      -1.580   2.348  25.105  0.00  0.00    +0.075 C 
ATOM     20  C   UNL     1      -0.759   2.265  25.093  0.00  0.00    +0.009 C 
BRANCH  19  21
ATOM     21  C   UNL     1      -1.919   3.045  25.388  0.00  0.00    +0.225 C 
ATOM     22  O   UNL     1      -2.594   3.013  25.861  0.00  0.00    -0.275 OA
ATOM     23  N   UNL     1      -1.583   3.775  25.197  0.00  0.00    -0.280 N 
ATOM     24  C   UNL     1      -1.922   4.471  25.480  0.00  0.00    +0.093 C 
ATOM     25  C   UNL     1      -1.586   5.200  25.290  0.00  0.00    +0.022 C 
ATOM     26  C   UNL     1      -0.912   5.231  24.816  0.00  0.00    +0.004 C 
ATOM     27  C   UNL     1      -0.573   4.535  24.534  0.00  0.00    +0.022 C 
ATOM     28  C   UNL     1      -0.908   3.806  24.724  0.00  0.00    +0.093 C 
ENDBRANCH  19  21
ENDBRANCH   1  19
BRANCH   8   9
ATOM      9  N   UNL     1      -2.670  -1.798  25.108  0.00  0.00    -0.084 NA
BRANCH   9  10
ATOM     10  S   UNL     1      -3.128  -2.416  24.811  0.00  0.00    +0.059 S 
ATOM     11  C   UNL     1      -3.586  -3.034  24.513  0.00  0.00    +0.197 C 
ATOM     12  O   UNL     1      -3.682  -2.294  25.409  0.00  0.00    -0.156 OA
ATOM     13  O   UNL     1      -2.574  -2.539  24.212  0.00  0.00    -0.156 OA
ENDBRANCH   9  10
ENDBRANCH   8   9
TORSDOF 4
ENDMDL
MODEL 2
REMARK VINA RESULT:     -12.1      1.808      5.059
REMARK  Name = 
REMARK  4 active torsions:
REMARK  status: ('A' for Active; 'I' for Inactive)
REMARK    1  A    between atoms: C_2  and  C_21
REMARK    2  A    between atoms: C_9  and  N_10
REMARK    3  A    between atoms: N_10  and  S_11
REMARK    4  A    between atoms: C_21  and  C_23
REMARK                            x       y       z     vdW  Elec       q    Type
REMARK                         _______ _______ _______ _____ _____    ______ ____
ROOT
ATOM      1  C   UNL     1      -3.780   0.717  24.883  0.00  0.00    +0.052 C 
ATOM      2  C   UNL     1      -4.428   1.168  24.640  0.00  0.00    -0.001 C 
ATOM      3  C   UNL     1      -4.348   1.982  24.537  0.00  0.00    -0.000 C 
ATOM      4  C   UNL     1      -3.621   2.346  24.676  0.00  0.00    -0.001 C 
ATOM      5  C   UNL     1      -4.267   2.796  24.434  0.00  0.00    -0.000 C 
ATOM      6  C   UNL     1      -3.540   3.161  24.573  0.00  0.00    +0.001 C 
ATOM      7  C   UNL     1      -2.814   3.524  24.711  0.00  0.00    +0.019 C 
ATOM      8  C   UNL     1      -2.166   3.073  24.954  0.00  0.00    +0.097 C 
ATOM     14  C   UNL     1      -2.246   2.259  25.057  0.00  0.00    +0.017 C 
ATOM     15  C   UNL     1      -1.599   1.809  25.299  0.00  0.00    +0.001 C 
ATOM     16  C   UNL     1      -2.973   1.895  24.918  0.00  0.00    +0.045 C 
ATOM     17  C   UNL     1      -3.053   1.081  25.022  0.00  0.00    +0.145 C 
ATOM     18  O   UNL     1      -2.406   0.630  25.264  0.00  0.00    -0.224 OA
ENDROOT
BRANCH   1  19
ATOM     19  C   UNL     1      -3.860  -0.098  24.986  0.00  0.00    +0.075 C 
ATOM     20  C   UNL     1      -3.802  -0.427  25.741  0.00  0.00    +0.009 C 
BRANCH  19  21
ATOM     21  C   UNL     1      -4.000  -0.584  24.334  0.00  0.00    +0.225 C 
ATOM     22  O   UNL     1      -4.269  -0.257  23.625  0.00  0.00    -0.275 OA
ATOM     23  N   UNL     1      -3.870  -1.397  24.391  0.00  0.00    -0.280 N 
ATOM     24  C   UNL     1      -4.009  -1.883  23.739  0.00  0.00    +0.093 C 
ATOM     25  C   UNL     1      -3.880  -2.696  23.795  0.00  0.00    +0.022 C 
ATOM     26  C   UNL     1      -3.611  -3.022  24.503  0.00  0.00    +0.004 C 
ATOM     27  C   UNL     1      -3.472  -2.536  25.155  0.00  0.00    +0.022 C 
ATOM     28  C   UNL     1      -3.601  -1.724  25.099  0.00  0.00    +0.093 C 
ENDBRANCH  19  21
ENDBRANCH   1  19
BRANCH   8   9
ATOM      9  N   UNL     1      -1.439   3.438  25.092  0.00  0.00    -0.084 NA
BRANCH   9  10
ATOM     10  S   UNL     1      -1.377   4.260  25.067  0.00  0.00    +0.059 S 
ATOM     11  C   UNL     1      -1.316   5.083  25.042  0.00  0.00    +0.197 C 
ATOM     12  O   UNL     1      -1.670   4.306  25.837  0.00  0.00    -0.156 OA
ATOM     13  O   UNL     1      -1.084   4.215  24.298  0.00  0.00    -0.156 OA
ENDBRANCH   9  10
ENDBRANCH   8   9
TORSDOF 4
ENDMDL
