MODEL 1
REMARK VINA RESULT:     -10.5      0.000      0.000
REMARK  Name = 
REMARK  10 active torsions:
REMARK  status: ('A' for Active; 'I' for Inactive)
REMARK    1  A    between atoms: O_2  and  C_3
REMARK    2  A    between atoms: C_8  and  C_9
REMARK    3  A    between atoms: C_9  and  C_10
REMARK    4  A    between atoms: C_12  and  C_13
REMARK    5  A    between atoms: C_16  and  C_17
REMARK    6  A    between atoms: C_17  and  N_18
REMARK    7  A    between atoms: C_19  and  C_21
REMARK    8  A    between atoms: C_21  and  C_22
REMARK    9  A    between atoms: C_22  and  C_25
REMARK   10  A    between atoms: C_25  and  C_26
REMARK                            x       y       z     vdW  Elec       q    Type
REMARK                         _______ _______ _______ _____ _____    ______ ____
ROOT
ATOM     10  C   UNL     1      -4.752   1.219  24.667  0.00  0.00    +0.026 C 
ATOM     11  C   UNL     1      -4.295   1.372  23.998  0.00  0.00    +0.005 C 
ATOM     12  C   UNL     1      -3.915   2.100  23.916  0.00  0.00    +0.006 C 
ATOM     16  C   UNL     1      -3.992   2.675  24.501  0.00  0.00    +0.043 C 
ATOM     29  C   UNL     1      -4.450   2.522  25.171  0.00  0.00    -0.033 C 
ATOM     30  C   UNL     1      -4.830   1.795  25.254  0.00  0.00    -0.048 C 
ATOM     31  C   UNL     1      -5.287   1.642  25.924  0.00  0.00    +0.026 C 
ENDROOT
BRANCH  12  13
ATOM     13  C   UNL     1      -3.458   2.253  23.246  0.00  0.00    +0.000 C 
ATOM     14  C   UNL     1      -3.740   2.760  22.660  0.00  0.00    +0.000 C 
ATOM     15  C   UNL     1      -2.717   1.898  23.162  0.00  0.00    +0.000 C 
ENDBRANCH  12  13
BRANCH  10   9
ATOM      9  C   UNL     1      -5.132   0.492  24.751  0.00  0.00    +0.070 C 
BRANCH   9   8
ATOM      3  C   UNL     1      -3.083  -2.403  24.730  0.00  0.00    +0.140 A 
ATOM      4  C   UNL     1      -3.226  -1.697  25.132  0.00  0.00    +0.058 A 
ATOM      5  C   UNL     1      -3.822  -1.188  24.873  0.00  0.00    +0.103 A 
ATOM      6  C   UNL     1      -4.275  -1.386  24.212  0.00  0.00    +0.100 A 
ATOM      7  N   UNL     1      -4.820  -0.781  24.086  0.00  0.00    -0.229 NA
ATOM      8  C   UNL     1      -4.705  -0.209  24.668  0.00  0.00    +0.139 A 
ATOM     32  N   UNL     1      -4.089  -0.461  25.154  0.00  0.00    -0.229 NA
ATOM     33  C   UNL     1      -4.131  -2.093  23.810  0.00  0.00    +0.024 A 
ATOM     34  C   UNL     1      -3.535  -2.601  24.069  0.00  0.00    +0.039 A 
BRANCH   3   2
ATOM      1  C   UNL     1      -1.713  -2.809  24.723  0.00  0.00    +0.252 C 
ATOM      2  O   UNL     1      -2.487  -2.910  24.989  0.00  0.00    -0.471 OA
ENDBRANCH   3   2
ENDBRANCH   9   8
ENDBRANCH  10   9
BRANCH  16  17
ATOM     17  C   UNL     1      -3.613   3.403  24.419  0.00  0.00    +0.119 C 
BRANCH  17  18
ATOM     18  N   UNL     1      -3.024   3.624  24.952  0.00  0.00    -0.205 NA
ATOM     19  C   UNL     1      -2.758   4.405  24.973  0.00  0.00    +0.241 C 
ATOM     20  O   UNL     1      -3.081   4.964  24.461  0.00  0.00    -0.273 OA
BRANCH  19  21
ATOM     21  C   UNL     1      -2.169   4.626  25.506  0.00  0.00    +0.087 C 
BRANCH  21  22
ATOM     22  C   UNL     1      -1.380   4.646  25.265  0.00  0.00    +0.019 C 
ATOM     23  C   UNL     1      -1.519   5.354  24.866  0.00  0.00    +0.001 C 
ATOM     24  C   UNL     1      -1.240   3.937  25.664  0.00  0.00    +0.001 C 
BRANCH  22  25
ATOM     25  C   UNL     1      -0.591   4.666  25.024  0.00  0.00    +0.115 C 
BRANCH  25  26
ATOM     26  C   UNL     1      -0.175   3.960  24.919  0.00  0.00    +0.365 C 
ATOM     27  O   UNL     1       0.110   3.548  25.574  0.00  0.00    -0.246 OA
ATOM     28  O   UNL     1      -0.044   3.668  24.159  0.00  0.00    -0.246 OA
ENDBRANCH  25  26
ENDBRANCH  22  25
ENDBRANCH  21  22
ENDBRANCH  19  21
ENDBRANCH  17  18
ENDBRANCH  16  17
TORSDOF 10
ENDMDL
MODEL 2
REMARK VINA RESULT:     -10.4      1.030      5.541
REMARK  Name = 
REMARK  10 active torsions:
REMARK  status: ('A' for Active; 'I' for Inactive)
REMARK    1  A    between atoms: O_2  and  C_3
REMARK    2  A    between atoms: C_8  and  C_9
REMARK    3  A    between atoms: C_9  and  C_10
REMARK    4  A    between atoms: C_12  and  C_13
REMARK    5  A    between atoms: C_16  and  C_17
REMARK    6  A    between atoms: C_17  and  N_18
REMARK    7  A    between atoms: C_19  and  C_21
REMARK    8  A    between atoms: C_21  and  C_22
REMARK    9  A    between atoms: C_22  and  C_25
REMARK   10  A    between atoms: C_25  and  C_26
REMARK                            x       y       z     vdW  Elec       q    Type
REMARK                         _______ _______ _______ _____ _____    ______ ____
ROOT
ATOM     10  C   UNL     1      -4.498   2.136  24.706  0.00  0.00    +0.026 C 
ATOM     11  C   UNL     1      -3.866   1.945  24.211  0.00  0.00    +0.005 C 
ATOM     12  C   UNL     1      -3.756   1.166  23.963  0.00  0.00    +0.006 C 
ATOM     16  C   UNL     1      -4.279   0.577  24.210  0.00  0.00    +0.043 C 
ATOM     29  C   UNL     1      -4.911   0.768  24.704  0.00  0.00    -0.033 C 
ATOM     30  C   UNL     1      -5.021   1.546  24.952  0.00  0.00    -0.048 C 
ATOM     31  C   UNL     1      -5.653   1.737  25.447  0.00  0.00    +0.026 C 
ENDROOT
BRANCH  12  13
ATOM     13  C   UNL     1      -3.124   0.975  23.469  0.00  0.00    +0.000 C 
ATOM     14  C   UNL     1      -2.382   0.815  23.791  0.00  0.00    +0.000 C 
ATOM     15  C   UNL     1      -3.234   0.945  22.651  0.00  0.00    +0.000 C 
ENDBRANCH  12  13
BRANCH  10   9
ATOM      9  C   UNL     1      -4.608   2.915  24.954  0.00  0.00    +0.070 C 
BRANCH   9   8
ATOM      3  C   UNL     1      -1.819   5.084  25.267  0.00  0.00    +0.140 A 
ATOM      4  C   UNL     1      -2.381   4.802  24.734  0.00  0.00    +0.058 A 
ATOM      5  C   UNL     1      -2.949   4.257  24.981  0.00  0.00    +0.103 A 
ATOM      6  C   UNL     1      -2.955   3.994  25.763  0.00  0.00    +0.100 A 
ATOM      7  N   UNL     1      -3.576   3.460  25.848  0.00  0.00    -0.229 NA
ATOM      8  C   UNL     1      -3.956   3.392  25.119  0.00  0.00    +0.139 A 
ATOM     32  N   UNL     1      -3.568   3.885  24.584  0.00  0.00    -0.229 NA
ATOM     33  C   UNL     1      -2.392   4.276  26.297  0.00  0.00    +0.024 A 
ATOM     34  C   UNL     1      -1.825   4.821  26.049  0.00  0.00    +0.039 A 
BRANCH   3   2
ATOM      1  C   UNL     1      -0.559   5.367  24.655  0.00  0.00    +0.252 C 
ATOM      2  O   UNL     1      -1.252   5.628  25.019  0.00  0.00    -0.471 OA
ENDBRANCH   3   2
ENDBRANCH   9   8
ENDBRANCH  10   9
BRANCH  16  17
ATOM     17  C   UNL     1      -4.169  -0.202  23.962  0.00  0.00    +0.119 C 
BRANCH  17  18
ATOM     18  N   UNL     1      -4.004  -0.792  24.514  0.00  0.00    -0.205 NA
ATOM     19  C   UNL     1      -4.111  -1.586  24.316  0.00  0.00    +0.241 C 
ATOM     20  O   UNL     1      -4.384  -1.789  23.564  0.00  0.00    -0.273 OA
BRANCH  19  21
ATOM     21  C   UNL     1      -3.946  -2.175  24.868  0.00  0.00    +0.087 C 
BRANCH  21  22
ATOM     22  C   UNL     1      -3.273  -2.645  24.782  0.00  0.00    +0.019 C 
ATOM     23  C   UNL     1      -3.562  -2.927  24.063  0.00  0.00    +0.001 C 
ATOM     24  C   UNL     1      -2.985  -2.363  25.502  0.00  0.00    +0.001 C 
BRANCH  22  25
ATOM     25  C   UNL     1      -2.601  -3.115  24.697  0.00  0.00    +0.115 C 
BRANCH  25  26
ATOM     26  C   UNL     1      -1.857  -2.762  24.636  0.00  0.00    +0.365 C 
ATOM     27  O   UNL     1      -1.510  -2.658  23.895  0.00  0.00    -0.246 OA
ATOM     28  O   UNL     1      -1.461  -2.514  25.316  0.00  0.00    -0.246 OA
ENDBRANCH  25  26
ENDBRANCH  22  25
ENDBRANCH  21  22
ENDBRANCH  19  21
ENDBRANCH  17  18
ENDBRANCH  16  17
TORSDOF 10
ENDMDL
MODEL 3
REMARK VINA RESULT:     -10.4      3.076      4.835
REMARK  Name = 
REMARK  10 active torsions:
REMARK  status: ('A' for Active; 'I' for Inactive)
REMARK    1  A    between atoms: O_2  and  C_3
REMARK    2  A    between atoms: C_8  and  C_9
REMARK    3  A    between atoms: C_9  and  C_10
REMARK    4  A    between atoms: C_12  and  C_13
REMARK    5  A    between atoms: C_16  and  C_17
REMARK    6  A    between atoms: C_17  and  N_18
REMARK    7  A    between atoms: C_19  and  C_21
REMARK    8  A    between atoms: C_21  and  C_22
REMARK    9  A    between atoms: C_22  and  C_25
REMARK   10  A    between atoms: C_25  and  C_26
REMARK                            x       y       z     vdW  Elec       q    Type
REMARK                         _______ _______ _______ _____ _____    ______ ____
ROOT
ATOM     10  C   UNL     1      -2.394   2.316  23.620  0.00  0.00    +0.026 C 
ATOM     11  C   UNL     1      -2.023   2.240  24.352  0.00  0.00    +0.005 C 
ATOM     12  C   UNL     1      -1.353   1.763  24.427  0.00  0.00    +0.006 C 
ATOM     16  C   UNL     1      -1.056   1.363  23.771  0.00  0.00    +0.043 C 
ATOM     29  C   UNL     1      -1.428   1.439  23.038  0.00  0.00    -0.033 C 
ATOM     30  C   UNL     1      -2.097   1.916  22.962  0.00  0.00    -0.048 C 
ATOM     31  C   UNL     1      -2.468   1.992  22.229  0.00  0.00    +0.026 C 
ENDROOT
BRANCH  12  13
ATOM     13  C   UNL     1      -0.982   1.686  25.160  0.00  0.00    +0.000 C 
ATOM     14  C   UNL     1      -1.142   1.034  25.638  0.00  0.00    +0.000 C 
ATOM     15  C   UNL     1      -0.449   2.264  25.415  0.00  0.00    +0.000 C 
ENDBRANCH  12  13
BRANCH  10   9
ATOM      9  C   UNL     1      -3.063   2.793  23.544  0.00  0.00    +0.070 C 
BRANCH   9   8
ATOM      3  C   UNL     1      -5.821   2.124  25.672  0.00  0.00    +0.140 A 
ATOM      4  C   UNL     1      -5.387   1.824  25.039  0.00  0.00    +0.058 A 
ATOM      5  C   UNL     1      -4.744   2.248  24.741  0.00  0.00    +0.103 A 
ATOM      6  C   UNL     1      -4.537   2.973  25.077  0.00  0.00    +0.100 A 
ATOM      7  N   UNL     1      -3.882   3.265  24.670  0.00  0.00    -0.229 NA
ATOM      8  C   UNL     1      -3.685   2.721  24.082  0.00  0.00    +0.139 A 
ATOM     32  N   UNL     1      -4.218   2.093  24.126  0.00  0.00    -0.229 NA
ATOM     33  C   UNL     1      -4.972   3.273  25.711  0.00  0.00    +0.024 A 
ATOM     34  C   UNL     1      -5.614   2.849  26.008  0.00  0.00    +0.039 A 
BRANCH   3   2
ATOM      1  C   UNL     1      -6.545   1.594  26.784  0.00  0.00    +0.252 C 
ATOM      2  O   UNL     1      -6.462   1.700  25.970  0.00  0.00    -0.471 OA
ENDBRANCH   3   2
ENDBRANCH   9   8
ENDBRANCH  10   9
BRANCH  16  17
ATOM     17  C   UNL     1      -0.387   0.886  23.845  0.00  0.00    +0.119 C 
BRANCH  17  18
ATOM     18  N   UNL     1       0.205   0.912  23.272  0.00  0.00    -0.205 NA
ATOM     19  C   UNL     1       0.730   0.280  23.191  0.00  0.00    +0.241 C 
ATOM     20  O   UNL     1       0.663  -0.377  23.685  0.00  0.00    -0.273 OA
BRANCH  19  21
ATOM     21  C   UNL     1       1.322   0.306  22.618  0.00  0.00    +0.087 C 
BRANCH  21  22
ATOM     22  C   UNL     1       2.110   0.186  22.831  0.00  0.00    +0.019 C 
ATOM     23  C   UNL     1       2.066  -0.591  22.557  0.00  0.00    +0.001 C 
ATOM     24  C   UNL     1       2.154   0.963  23.106  0.00  0.00    +0.001 C 
BRANCH  22  25
ATOM     25  C   UNL     1       2.898   0.066  23.045  0.00  0.00    +0.115 C 
BRANCH  25  26
ATOM     26  C   UNL     1       3.493   0.518  22.695  0.00  0.00    +0.365 C 
ATOM     27  O   UNL     1       3.997   0.971  23.165  0.00  0.00    -0.246 OA
ATOM     28  O   UNL     1       3.583   0.518  21.875  0.00  0.00    -0.246 OA
ENDBRANCH  25  26
ENDBRANCH  22  25
ENDBRANCH  21  22
ENDBRANCH  19  21
ENDBRANCH  17  18
ENDBRANCH  16  17
TORSDOF 10
ENDMDL
MODEL 4
REMARK VINA RESULT:     -10.2      3.243      5.309
REMARK  Name = 
REMARK  10 active torsions:
REMARK  status: ('A' for Active; 'I' for Inactive)
REMARK    1  A    between atoms: O_2  and  C_3
REMARK    2  A    between atoms: C_8  and  C_9
REMARK    3  A    between atoms: C_9  and  C_10
REMARK    4  A    between atoms: C_12  and  C_13
REMARK    5  A    between atoms: C_16  and  C_17
REMARK    6  A    between atoms: C_17  and  N_18
REMARK    7  A    between atoms: C_19  and  C_21
REMARK    8  A    between atoms: C_21  and  C_22
REMARK    9  A    between atoms: C_22  and  C_25
REMARK   10  A    between atoms: C_25  and  C_26
REMARK                            x       y       z     vdW  Elec       q    Type
REMARK                         _______ _______ _______ _____ _____    ______ ____
ROOT
ATOM     10  C   UNL     1      -1.116   2.740  25.078  0.00  0.00    +0.026 C 
ATOM     11  C   UNL     1      -1.360   1.962  25.203  0.00  0.00    +0.005 C 
ATOM     12  C   UNL     1      -0.945   1.339  24.855  0.00  0.00    +0.006 C 
ATOM     16  C   UNL     1      -0.287   1.494  24.383  0.00  0.00    +0.043 C 
ATOM     29  C   UNL     1      -0.043   2.272  24.258  0.00  0.00    -0.033 C 
ATOM     30  C   UNL     1      -0.456   2.895  24.606  0.00  0.00    -0.048 C 
ATOM     31  C   UNL     1      -0.212   3.674  24.481  0.00  0.00    +0.026 C 
ENDROOT
BRANCH  12  13
ATOM     13  C   UNL     1      -1.189   0.561  24.979  0.00  0.00    +0.000 C 
ATOM     14  C   UNL     1      -0.918   0.143  25.637  0.00  0.00    +0.000 C 
ATOM     15  C   UNL     1      -1.705   0.200  24.445  0.00  0.00    +0.000 C 
ENDBRANCH  12  13
BRANCH  10   9
ATOM      9  C   UNL     1      -1.530   3.363  25.425  0.00  0.00    +0.070 C 
BRANCH   9   8
ATOM      3  C   UNL     1      -5.074   3.382  25.565  0.00  0.00    +0.140 A 
ATOM      4  C   UNL     1      -4.395   3.228  26.008  0.00  0.00    +0.058 A 
ATOM      5  C   UNL     1      -3.650   3.324  25.667  0.00  0.00    +0.103 A 
ATOM      6  C   UNL     1      -3.583   3.573  24.884  0.00  0.00    +0.100 A 
ATOM      7  N   UNL     1      -2.781   3.618  24.698  0.00  0.00    -0.229 NA
ATOM      8  C   UNL     1      -2.352   3.397  25.366  0.00  0.00    +0.139 A 
ATOM     32  N   UNL     1      -2.889   3.215  25.965  0.00  0.00    -0.229 NA
ATOM     33  C   UNL     1      -4.262   3.727  24.440  0.00  0.00    +0.024 A 
ATOM     34  C   UNL     1      -5.007   3.631  24.782  0.00  0.00    +0.039 A 
BRANCH   3   2
ATOM      1  C   UNL     1      -6.173   2.541  25.921  0.00  0.00    +0.252 C 
ATOM      2  O   UNL     1      -5.819   3.286  25.905  0.00  0.00    -0.471 OA
ENDBRANCH   3   2
ENDBRANCH   9   8
ENDBRANCH  10   9
BRANCH  16  17
ATOM     17  C   UNL     1       0.128   0.871  24.035  0.00  0.00    +0.119 C 
BRANCH  17  18
ATOM     18  N   UNL     1       0.723   1.027  23.486  0.00  0.00    -0.205 NA
ATOM     19  C   UNL     1       1.192   0.412  23.199  0.00  0.00    +0.241 C 
ATOM     20  O   UNL     1       1.065  -0.360  23.461  0.00  0.00    -0.273 OA
BRANCH  19  21
ATOM     21  C   UNL     1       1.787   0.568  22.650  0.00  0.00    +0.087 C 
BRANCH  21  22
ATOM     22  C   UNL     1       2.556   0.303  22.788  0.00  0.00    +0.019 C 
ATOM     23  C   UNL     1       2.738   1.019  23.154  0.00  0.00    +0.001 C 
ATOM     24  C   UNL     1       2.374  -0.414  22.421  0.00  0.00    +0.001 C 
BRANCH  22  25
ATOM     25  C   UNL     1       3.325   0.037  22.925  0.00  0.00    +0.115 C 
BRANCH  25  26
ATOM     26  C   UNL     1       3.969   0.502  22.698  0.00  0.00    +0.365 C 
ATOM     27  O   UNL     1       4.483   0.799  23.270  0.00  0.00    -0.246 OA
ATOM     28  O   UNL     1       4.097   0.668  21.901  0.00  0.00    -0.246 OA
ENDBRANCH  25  26
ENDBRANCH  22  25
ENDBRANCH  21  22
ENDBRANCH  19  21
ENDBRANCH  17  18
ENDBRANCH  16  17
TORSDOF 10
ENDMDL
MODEL 5
REMARK VINA RESULT:     -10.0      3.372      4.924
REMARK  Name = 
REMARK  10 active torsions:
REMARK  status: ('A' for Active; 'I' for Inactive)
REMARK    1  A    between atoms: O_2  and  C_3
REMARK    2  A    between atoms: C_8  and  C_9
REMARK    3  A    between atoms: C_9  and  C_10
REMARK    4  A    between atoms: C_12  and  C_13
REMARK    5  A    between atoms: C_16  and  C_17
REMARK    6  A    between atoms: C_17  and  N_18
REMARK    7  A    between atoms: C_19  and  C_21
REMARK    8  A    between atoms: C_21  and  C_22
REMARK    9  A    between atoms: C_22  and  C_25
REMARK   10  A    between atoms: C_25  and  C_26
REMARK                            x       y       z     vdW  Elec       q    Type
REMARK                         _______ _______ _______ _____ _____    ______ ____
ROOT
ATOM     10  C   UNL     1      -0.714   0.325  24.446  0.00  0.00    +0.026 C 
ATOM     11  C   UNL     1      -0.407   1.075  24.600  0.00  0.00    +0.005 C 
ATOM     12  C   UNL     1      -0.918   1.707  24.744  0.00  0.00    +0.006 C 
ATOM     16  C   UNL     1      -1.734   1.590  24.734  0.00  0.00    +0.043 C 
ATOM     29  C   UNL     1      -2.040   0.840  24.579  0.00  0.00    -0.033 C 
ATOM     30  C   UNL     1      -1.531   0.207  24.436  0.00  0.00    -0.048 C 
ATOM     31  C   UNL     1      -1.838  -0.543  24.281  0.00  0.00    +0.026 C 
ENDROOT
BRANCH  12  13
ATOM     13  C   UNL     1      -0.611   2.457  24.898  0.00  0.00    +0.000 C 
ATOM     14  C   UNL     1      -0.400   2.667  25.667  0.00  0.00    +0.000 C 
ATOM     15  C   UNL     1      -0.515   2.999  24.282  0.00  0.00    +0.000 C 
ENDBRANCH  12  13
BRANCH  10   9
ATOM      9  C   UNL     1      -0.205  -0.308  24.302  0.00  0.00    +0.070 C 
BRANCH   9   8
ATOM      3  C   UNL     1       2.709   0.179  22.340  0.00  0.00    +0.140 A 
ATOM      4  C   UNL     1       2.414   0.227  23.107  0.00  0.00    +0.058 A 
ATOM      5  C   UNL     1       1.627   0.031  23.261  0.00  0.00    +0.103 A 
ATOM      6  C   UNL     1       1.136  -0.214  22.645  0.00  0.00    +0.100 A 
ATOM      7  N   UNL     1       0.390  -0.371  22.959  0.00  0.00    -0.229 NA
ATOM      8  C   UNL     1       0.420  -0.223  23.770  0.00  0.00    +0.139 A 
ATOM     32  N   UNL     1       1.184   0.025  23.956  0.00  0.00    -0.229 NA
ATOM     33  C   UNL     1       1.432  -0.263  21.875  0.00  0.00    +0.024 A 
ATOM     34  C   UNL     1       2.219  -0.066  21.723  0.00  0.00    +0.039 A 
BRANCH   3   2
ATOM      1  C   UNL     1       3.896   0.895  22.687  0.00  0.00    +0.252 C 
ATOM      2  O   UNL     1       3.495   0.375  22.187  0.00  0.00    -0.471 OA
ENDBRANCH   3   2
ENDBRANCH   9   8
ENDBRANCH  10   9
BRANCH  16  17
ATOM     17  C   UNL     1      -2.244   2.222  24.877  0.00  0.00    +0.119 C 
BRANCH  17  18
ATOM     18  N   UNL     1      -3.030   2.183  24.632  0.00  0.00    -0.205 NA
ATOM     19  C   UNL     1      -3.585   2.713  24.935  0.00  0.00    +0.241 C 
ATOM     20  O   UNL     1      -3.352   3.284  25.483  0.00  0.00    -0.273 OA
BRANCH  19  21
ATOM     21  C   UNL     1      -4.371   2.674  24.689  0.00  0.00    +0.087 C 
BRANCH  21  22
ATOM     22  C   UNL     1      -4.979   2.678  25.247  0.00  0.00    +0.019 C 
ATOM     23  C   UNL     1      -5.014   1.855  25.217  0.00  0.00    +0.001 C 
ATOM     24  C   UNL     1      -4.943   3.503  25.278  0.00  0.00    +0.001 C 
BRANCH  22  25
ATOM     25  C   UNL     1      -5.586   2.684  25.805  0.00  0.00    +0.115 C 
BRANCH  25  26
ATOM     26  C   UNL     1      -6.204   2.140  25.747  0.00  0.00    +0.365 C 
ATOM     27  O   UNL     1      -6.637   2.081  25.048  0.00  0.00    -0.246 OA
ATOM     28  O   UNL     1      -6.388   1.655  26.389  0.00  0.00    -0.246 OA
ENDBRANCH  25  26
ENDBRANCH  22  25
ENDBRANCH  21  22
ENDBRANCH  19  21
ENDBRANCH  17  18
ENDBRANCH  16  17
TORSDOF 10
ENDMDL
MODEL 6
REMARK VINA RESULT:      -9.9      2.659      4.527
REMARK  Name = 
REMARK  10 active torsions:
REMARK  status: ('A' for Active; 'I' for Inactive)
REMARK    1  A    between atoms: O_2  and  C_3
REMARK    2  A    between atoms: C_8  and  C_9
REMARK    3  A    between atoms: C_9  and  C_10
REMARK    4  A    between atoms: C_12  and  C_13
REMARK    5  A    between atoms: C_16  and  C_17
REMARK    6  A    between atoms: C_17  and  N_18
REMARK    7  A    between atoms: C_19  and  C_21
REMARK    8  A    between atoms: C_21  and  C_22
REMARK    9  A    between atoms: C_22  and  C_25
REMARK   10  A    between atoms: C_25  and  C_26
REMARK                            x       y       z     vdW  Elec       q    Type
REMARK                         _______ _______ _______ _____ _____    ______ ____
ROOT
ATOM     10  C   UNL     1      -1.927  -0.936  25.078  0.00  0.00    +0.026 C 
ATOM     11  C   UNL     1      -2.414  -1.103  24.433  0.00  0.00    +0.005 C 
ATOM     12  C   UNL     1      -3.198  -0.847  24.432  0.00  0.00    +0.006 C 
ATOM     16  C   UNL     1      -3.496  -0.425  25.075  0.00  0.00    +0.043 C 
ATOM     29  C   UNL     1      -3.009  -0.258  25.720  0.00  0.00    -0.033 C 
ATOM     30  C   UNL     1      -2.225  -0.513  25.722  0.00  0.00    -0.048 C 
ATOM     31  C   UNL     1      -1.738  -0.346  26.367  0.00  0.00    +0.026 C 
ENDROOT
BRANCH  12  13
ATOM     13  C   UNL     1      -3.685  -1.014  23.787  0.00  0.00    +0.000 C 
ATOM     14  C   UNL     1      -4.165  -1.684  23.795  0.00  0.00    +0.000 C 
ATOM     15  C   UNL     1      -3.692  -0.509  23.134  0.00  0.00    +0.000 C 
ENDBRANCH  12  13
BRANCH  10   9
ATOM      9  C   UNL     1      -1.143  -1.191  25.081  0.00  0.00    +0.070 C 
BRANCH   9   8
ATOM      3  C   UNL     1       1.304   0.020  22.816  0.00  0.00    +0.140 A 
ATOM      4  C   UNL     1       0.896  -0.657  23.048  0.00  0.00    +0.058 A 
ATOM      5  C   UNL     1       0.341  -0.617  23.658  0.00  0.00    +0.103 A 
ATOM      6  C   UNL     1       0.195   0.102  24.035  0.00  0.00    +0.100 A 
ATOM      7  N   UNL     1      -0.379  -0.025  24.613  0.00  0.00    -0.229 NA
ATOM      8  C   UNL     1      -0.587  -0.823  24.594  0.00  0.00    +0.139 A 
ATOM     32  N   UNL     1      -0.142  -1.188  24.004  0.00  0.00    -0.229 NA
ATOM     33  C   UNL     1       0.603   0.781  23.802  0.00  0.00    +0.024 A 
ATOM     34  C   UNL     1       1.157   0.739  23.193  0.00  0.00    +0.039 A 
BRANCH   3   2
ATOM      1  C   UNL     1       2.659   0.094  22.368  0.00  0.00    +0.252 C 
ATOM      2  O   UNL     1       1.858  -0.020  22.207  0.00  0.00    -0.471 OA
ENDBRANCH   3   2
ENDBRANCH   9   8
ENDBRANCH  10   9
BRANCH  16  17
ATOM     17  C   UNL     1      -4.280  -0.169  25.074  0.00  0.00    +0.119 C 
BRANCH  17  18
ATOM     18  N   UNL     1      -4.494   0.509  25.491  0.00  0.00    -0.205 NA
ATOM     19  C   UNL     1      -5.214   0.881  25.334  0.00  0.00    +0.241 C 
ATOM     20  O   UNL     1      -5.720   0.574  24.760  0.00  0.00    -0.273 OA
BRANCH  19  21
ATOM     21  C   UNL     1      -5.428   1.559  25.752  0.00  0.00    +0.087 C 
BRANCH  21  22
ATOM     22  C   UNL     1      -5.461   2.288  25.366  0.00  0.00    +0.019 C 
ATOM     23  C   UNL     1      -4.746   2.506  25.715  0.00  0.00    +0.001 C 
ATOM     24  C   UNL     1      -6.177   2.070  25.018  0.00  0.00    +0.001 C 
BRANCH  22  25
ATOM     25  C   UNL     1      -5.496   3.017  24.981  0.00  0.00    +0.115 C 
BRANCH  25  26
ATOM     26  C   UNL     1      -5.419   3.716  25.413  0.00  0.00    +0.365 C 
ATOM     27  O   UNL     1      -6.061   4.009  25.840  0.00  0.00    -0.246 OA
ATOM     28  O   UNL     1      -4.700   4.121  25.418  0.00  0.00    -0.246 OA
ENDBRANCH  25  26
ENDBRANCH  22  25
ENDBRANCH  21  22
ENDBRANCH  19  21
ENDBRANCH  17  18
ENDBRANCH  16  17
TORSDOF 10
ENDMDL
MODEL 7
REMARK VINA RESULT:      -9.8      3.802      5.103
REMARK  Name = 
REMARK  10 active torsions:
REMARK  status: ('A' for Active; 'I' for Inactive)
REMARK    1  A    between atoms: O_2  and  C_3
REMARK    2  A    between atoms: C_8  and  C_9
REMARK    3  A    between atoms: C_9  and  C_10
REMARK    4  A    between atoms: C_12  and  C_13
REMARK    5  A    between atoms: C_16  and  C_17
REMARK    6  A    between atoms: C_17  and  N_18
REMARK    7  A    between atoms: C_19  and  C_21
REMARK    8  A    between atoms: C_21  and  C_22
REMARK    9  A    between atoms: C_22  and  C_25
REMARK   10  A    between atoms: C_25  and  C_26
REMARK                            x       y       z     vdW  Elec       q    Type
REMARK                         _______ _______ _______ _____ _____    ______ ____
ROOT
ATOM     10  C   UNL     1      -0.854  -0.373  24.627  0.00  0.00    +0.026 C 
ATOM     11  C   UNL     1      -0.796   0.449  24.661  0.00  0.00    +0.005 C 
ATOM     12  C   UNL     1      -0.157   0.832  24.306  0.00  0.00    +0.006 C 
ATOM     16  C   UNL     1       0.422   0.393  23.916  0.00  0.00    +0.043 C 
ATOM     29  C   UNL     1       0.364  -0.429  23.882  0.00  0.00    -0.033 C 
ATOM     30  C   UNL     1      -0.274  -0.813  24.237  0.00  0.00    -0.048 C 
ATOM     31  C   UNL     1      -0.333  -1.635  24.203  0.00  0.00    +0.026 C 
ENDROOT
BRANCH  12  13
ATOM     13  C   UNL     1      -0.098   1.654  24.340  0.00  0.00    +0.000 C 
ATOM     14  C   UNL     1       0.250   2.016  24.994  0.00  0.00    +0.000 C 
ATOM     15  C   UNL     1      -0.388   2.115  23.719  0.00  0.00    +0.000 C 
ENDBRANCH  12  13
BRANCH  10   9
ATOM      9  C   UNL     1      -1.492  -0.757  24.982  0.00  0.00    +0.070 C 
BRANCH   9   8
ATOM      3  C   UNL     1      -4.709   0.739  24.996  0.00  0.00    +0.140 A 
ATOM      4  C   UNL     1      -4.009   0.671  25.427  0.00  0.00    +0.058 A 
ATOM      5  C   UNL     1      -3.388   0.211  25.137  0.00  0.00    +0.103 A 
ATOM      6  C   UNL     1      -3.467  -0.180  24.415  0.00  0.00    +0.100 A 
ATOM      7  N   UNL     1      -2.767  -0.590  24.269  0.00  0.00    -0.229 NA
ATOM      8  C   UNL     1      -2.255  -0.453  24.901  0.00  0.00    +0.139 A 
ATOM     32  N   UNL     1      -2.639   0.043  25.437  0.00  0.00    -0.229 NA
ATOM     33  C   UNL     1      -4.167  -0.112  23.983  0.00  0.00    +0.024 A 
ATOM     34  C   UNL     1      -4.788   0.347  24.274  0.00  0.00    +0.039 A 
BRANCH   3   2
ATOM      1  C   UNL     1      -5.556   1.884  24.889  0.00  0.00    +0.252 C 
ATOM      2  O   UNL     1      -5.329   1.197  25.286  0.00  0.00    -0.471 OA
ENDBRANCH   3   2
ENDBRANCH   9   8
ENDBRANCH  10   9
BRANCH  16  17
ATOM     17  C   UNL     1       1.061   0.776  23.561  0.00  0.00    +0.119 C 
BRANCH  17  18
ATOM     18  N   UNL     1       1.697   0.337  23.272  0.00  0.00    -0.205 NA
ATOM     19  C   UNL     1       2.410   0.712  23.093  0.00  0.00    +0.241 C 
ATOM     20  O   UNL     1       2.487   1.526  23.204  0.00  0.00    -0.273 OA
BRANCH  19  21
ATOM     21  C   UNL     1       3.046   0.273  22.805  0.00  0.00    +0.087 C 
BRANCH  21  22
ATOM     22  C   UNL     1       3.819   0.492  22.994  0.00  0.00    +0.019 C 
ATOM     23  C   UNL     1       3.861  -0.125  23.539  0.00  0.00    +0.001 C 
ATOM     24  C   UNL     1       3.776   1.110  22.448  0.00  0.00    +0.001 C 
BRANCH  22  25
ATOM     25  C   UNL     1       4.591   0.712  23.182  0.00  0.00    +0.115 C 
BRANCH  25  26
ATOM     26  C   UNL     1       5.179   0.136  23.247  0.00  0.00    +0.365 C 
ATOM     27  O   UNL     1       5.441  -0.102  23.992  0.00  0.00    -0.246 OA
ATOM     28  O   UNL     1       5.504  -0.201  22.568  0.00  0.00    -0.246 OA
ENDBRANCH  25  26
ENDBRANCH  22  25
ENDBRANCH  21  22
ENDBRANCH  19  21
ENDBRANCH  17  18
ENDBRANCH  16  17
TORSDOF 10
ENDMDL
