MODEL 1
REMARK VINA RESULT:     -13.1      0.000      0.000
REMARK  Name = 
REMARK  3 active torsions:
REMARK  status: ('A' for Active; 'I' for Inactive)
REMARK    1  A    between atoms: C_6  and  C_7
REMARK    2  A    between atoms: C_7  and  N_8
REMARK    3  A    between atoms: C_11  and  C_13
REMARK                            x       y       z     vdW  Elec       q    Type
REMARK                         _______ _______ _______ _____ _____    ______ ____
ROOT
ATOM      8  N   UNL     1      -4.359   2.156  24.596  0.00  0.00    -0.268 NA
ATOM      9  C   UNL     1      -5.032   1.978  25.038  0.00  0.00    +0.073 C 
ATOM     10  C   UNL     1      -5.063   1.159  25.138  0.00  0.00    +0.028 C 
ATOM     11  C   UNL     1      -4.407   0.832  24.758  0.00  0.00    +0.094 C 
ATOM     12  C   UNL     1      -3.972   1.447  24.424  0.00  0.00    +0.082 C 
ENDROOT
BRANCH  11  13
ATOM     13  C   UNL     1      -4.220   0.029  24.720  0.00  0.00    +0.207 A 
ATOM     14  N   UNL     1      -3.807  -0.400  25.290  0.00  0.00    -0.212 NA
ATOM     15  C   UNL     1      -3.745  -1.179  25.027  0.00  0.00    +0.119 A 
ATOM     16  C   UNL     1      -4.120  -1.232  24.294  0.00  0.00    +0.164 A 
ATOM     17  O   UNL     1      -4.414  -0.485  24.104  0.00  0.00    -0.438 OA
ATOM     18  C   UNL     1      -4.145  -1.954  23.895  0.00  0.00    +0.039 A 
ATOM     19  C   UNL     1      -3.796  -2.622  24.228  0.00  0.00    +0.003 A 
ATOM     20  C   UNL     1      -3.420  -2.569  24.961  0.00  0.00    +0.002 A 
ATOM     21  C   UNL     1      -3.395  -1.848  25.361  0.00  0.00    +0.022 A 
ENDBRANCH  11  13
BRANCH   8   7
ATOM      7  C   UNL     1      -4.114   2.910  24.368  0.00  0.00    +0.099 C 
BRANCH   7   6
ATOM      1  F   UNL     1      -1.657   4.408  25.983  0.00  0.00    -0.202 F 
ATOM      2  C   UNL     1      -2.271   4.033  25.579  0.00  0.00    +0.167 A 
ATOM      3  C   UNL     1      -3.037   4.055  25.882  0.00  0.00    +0.167 A 
ATOM      4  F   UNL     1      -3.190   4.451  26.590  0.00  0.00    -0.202 F 
ATOM      5  C   UNL     1      -3.652   3.680  25.479  0.00  0.00    +0.029 A 
ATOM      6  C   UNL     1      -3.499   3.284  24.771  0.00  0.00    -0.004 A 
ATOM     22  C   UNL     1      -2.733   3.262  24.467  0.00  0.00    -0.000 A 
ATOM     23  C   UNL     1      -2.118   3.637  24.872  0.00  0.00    +0.032 A 
ENDBRANCH   7   6
ENDBRANCH   8   7
TORSDOF 3
ENDMDL
MODEL 2
REMARK VINA RESULT:     -12.7      2.573      5.137
REMARK  Name = 
REMARK  3 active torsions:
REMARK  status: ('A' for Active; 'I' for Inactive)
REMARK    1  A    between atoms: C_6  and  C_7
REMARK    2  A    between atoms: C_7  and  N_8
REMARK    3  A    between atoms: C_11  and  C_13
REMARK                            x       y       z     vdW  Elec       q    Type
REMARK                         _______ _______ _______ _____ _____    ______ ____
ROOT
ATOM      8  N   UNL     1      -3.803   0.737  24.404  0.00  0.00    -0.268 NA
ATOM      9  C   UNL     1      -3.511   0.776  23.634  0.00  0.00    +0.073 C 
ATOM     10  C   UNL     1      -3.017   1.436  23.582  0.00  0.00    +0.028 C 
ATOM     11  C   UNL     1      -3.004   1.803  24.321  0.00  0.00    +0.094 C 
ATOM     12  C   UNL     1      -3.489   1.371  24.829  0.00  0.00    +0.082 C 
ENDROOT
BRANCH  11  13
ATOM     13  C   UNL     1      -2.580   2.483  24.516  0.00  0.00    +0.207 A 
ATOM     14  N   UNL     1      -1.765   2.585  24.439  0.00  0.00    -0.212 NA
ATOM     15  C   UNL     1      -1.578   3.345  24.698  0.00  0.00    +0.119 A 
ATOM     16  C   UNL     1      -2.277   3.713  24.937  0.00  0.00    +0.164 A 
ATOM     17  O   UNL     1      -2.896   3.181  24.824  0.00  0.00    -0.438 OA
ATOM     18  C   UNL     1      -2.258   4.486  25.225  0.00  0.00    +0.039 A 
ATOM     19  C   UNL     1      -1.542   4.891  25.276  0.00  0.00    +0.003 A 
ATOM     20  C   UNL     1      -0.843   4.523  25.037  0.00  0.00    +0.002 A 
ATOM     21  C   UNL     1      -0.860   3.750  24.749  0.00  0.00    +0.022 A 
ENDBRANCH  11  13
BRANCH   8   7
ATOM      7  C   UNL     1      -4.317   0.164  24.699  0.00  0.00    +0.099 C 
BRANCH   7   6
ATOM      1  F   UNL     1      -3.280  -2.945  25.087  0.00  0.00    -0.202 F 
ATOM      2  C   UNL     1      -3.539  -2.167  24.991  0.00  0.00    +0.167 A 
ATOM      3  C   UNL     1      -3.940  -1.950  24.304  0.00  0.00    +0.167 A 
ATOM      4  F   UNL     1      -4.083  -2.509  23.713  0.00  0.00    -0.202 F 
ATOM      5  C   UNL     1      -4.200  -1.173  24.206  0.00  0.00    +0.029 A 
ATOM      6  C   UNL     1      -4.058  -0.613  24.797  0.00  0.00    -0.004 A 
ATOM     22  C   UNL     1      -3.656  -0.831  25.484  0.00  0.00    -0.000 A 
ATOM     23  C   UNL     1      -3.397  -1.609  25.580  0.00  0.00    +0.032 A 
ENDBRANCH   7   6
ENDBRANCH   8   7
TORSDOF 3
ENDMDL
MODEL 3
REMARK VINA RESULT:     -12.1      1.751      2.379
REMARK  Name = 
REMARK  3 active torsions:
REMARK  status: ('A' for Active; 'I' for Inactive)
REMARK    1  A    between atoms: C_6  and  C_7
REMARK    2  A    between atoms: C_7  and  N_8
REMARK    3  A    between atoms: C_11  and  C_13
REMARK                            x       y       z     vdW  Elec       q    Type
REMARK                         _______ _______ _______ _____ _____    ______ ____
ROOT
ATOM      8  N   UNL     1      -1.071   1.857  25.285  0.00  0.00    -0.268 NA
ATOM      9  C   UNL     1      -0.665   1.640  24.600  0.00  0.00    +0.073 C 
ATOM     10  C   UNL     1      -1.048   0.985  24.274  0.00  0.00    +0.028 C 
ATOM     11  C   UNL     1      -1.690   0.798  24.758  0.00  0.00    +0.094 C 
ATOM     12  C   UNL     1      -1.704   1.337  25.382  0.00  0.00    +0.082 C 
ENDROOT
BRANCH  11  13
ATOM     13  C   UNL     1      -2.224   0.181  24.638  0.00  0.00    +0.207 A 
ATOM     14  N   UNL     1      -2.106  -0.609  24.843  0.00  0.00    -0.212 NA
ATOM     15  C   UNL     1      -2.778  -1.033  24.623  0.00  0.00    +0.119 A 
ATOM     16  C   UNL     1      -3.312  -0.504  24.282  0.00  0.00    +0.164 A 
ATOM     17  O   UNL     1      -2.970   0.246  24.291  0.00  0.00    -0.438 OA
ATOM     18  C   UNL     1      -4.042  -0.776  24.008  0.00  0.00    +0.039 A 
ATOM     19  C   UNL     1      -4.237  -1.574  24.074  0.00  0.00    +0.003 A 
ATOM     20  C   UNL     1      -3.703  -2.102  24.415  0.00  0.00    +0.002 A 
ATOM     21  C   UNL     1      -2.973  -1.832  24.690  0.00  0.00    +0.022 A 
ENDBRANCH  11  13
BRANCH   8   7
ATOM      7  C   UNL     1      -0.878   2.484  25.784  0.00  0.00    +0.099 C 
BRANCH   7   6
ATOM      1  F   UNL     1      -1.884   5.543  25.061  0.00  0.00    -0.202 F 
ATOM      2  C   UNL     1      -1.633   4.778  25.242  0.00  0.00    +0.167 A 
ATOM      3  C   UNL     1      -0.886   4.522  25.003  0.00  0.00    +0.167 A 
ATOM      4  F   UNL     1      -0.390   5.031  24.583  0.00  0.00    -0.202 F 
ATOM      5  C   UNL     1      -0.634   3.758  25.184  0.00  0.00    +0.029 A 
ATOM      6  C   UNL     1      -1.130   3.249  25.604  0.00  0.00    -0.004 A 
ATOM     22  C   UNL     1      -1.877   3.504  25.843  0.00  0.00    -0.000 A 
ATOM     23  C   UNL     1      -2.128   4.269  25.662  0.00  0.00    +0.032 A 
ENDBRANCH   7   6
ENDBRANCH   8   7
TORSDOF 3
ENDMDL
