MODEL 1
REMARK VINA RESULT:     -10.0      0.000      0.000
REMARK  Name = 
REMARK  5 active torsions:
REMARK  status: ('A' for Active; 'I' for Inactive)
REMARK    1  A    between atoms: C_4  and  C_13
REMARK    2  A    between atoms: C_6  and  C_8
REMARK    3  A    between atoms: C_20  and  C_21
REMARK    4  A    between atoms: C_21  and  N_22
REMARK    5  A    between atoms: N_25  and  C_26
REMARK                            x       y       z     vdW  Elec       q    Type
REMARK                         _______ _______ _______ _____ _____    ______ ____
ROOT
ATOM     13  C   UNL     1      -2.061   0.499  24.147  0.00  0.00    +0.056 C 
ATOM     14  C   UNL     1      -1.856   0.900  23.512  0.00  0.00    +0.078 C 
ATOM     15  N   UNL     1      -1.344   0.605  24.089  0.00  0.00    -0.272 NA
ATOM     16  C   UNL     1      -1.935   0.116  24.805  0.00  0.00    +0.072 C 
ATOM     17  C   UNL     1      -1.989  -0.223  25.361  0.00  0.00    +0.018 C 
ATOM     18  C   UNL     1      -1.554   0.212  24.709  0.00  0.00    +0.010 C 
ATOM     19  C   UNL     1      -0.680   0.252  24.787  0.00  0.00    +0.018 C 
ATOM     20  C   UNL     1      -0.437   0.642  24.178  0.00  0.00    +0.079 C 
ENDROOT
BRANCH  13   4
ATOM      1  C   UNL     1      -4.290  -1.288  24.037  0.00  0.00    +0.074 C 
ATOM      2  C   UNL     1      -3.981  -0.541  24.202  0.00  0.00    +0.139 A 
ATOM      3  N   UNL     1      -3.176  -0.395  24.092  0.00  0.00    -0.235 NA
ATOM      4  C   UNL     1      -2.867   0.352  24.257  0.00  0.00    +0.063 A 
ATOM      5  C   UNL     1      -3.361   0.953  24.530  0.00  0.00    +0.037 A 
ATOM      6  C   UNL     1      -4.165   0.806  24.640  0.00  0.00    +0.118 A 
ATOM      7  N   UNL     1      -4.475   0.060  24.476  0.00  0.00    -0.228 NA
BRANCH   6   8
ATOM      8  C   UNL     1      -4.660   1.407  24.914  0.00  0.00    +0.163 A 
ATOM      9  C   UNL     1      -4.842   2.106  24.515  0.00  0.00    +0.042 A 
ATOM     10  C   UNL     1      -5.355   2.545  24.989  0.00  0.00    +0.044 A 
ATOM     11  C   UNL     1      -5.491   2.117  25.682  0.00  0.00    +0.180 A 
ATOM     12  O   UNL     1      -5.062   1.414  25.635  0.00  0.00    -0.449 OA
ENDBRANCH   6   8
ENDBRANCH  13   4
BRANCH  20  21
ATOM     21  C   UNL     1       0.245   0.928  23.814  0.00  0.00    +0.133 C 
BRANCH  21  22
ATOM     22  N   UNL     1       0.741   0.412  23.403  0.00  0.00    -0.186 NA
ATOM     23  C   UNL     1       1.549   0.570  23.351  0.00  0.00    +0.339 C 
ATOM     24  O   UNL     1       1.861   1.244  23.709  0.00  0.00    -0.249 OA
ATOM     25  N   UNL     1       2.044   0.054  22.940  0.00  0.00    -0.189 NA
BRANCH  25  26
ATOM     26  C   UNL     1       2.852   0.212  22.887  0.00  0.00    +0.097 C 
ATOM     27  C   UNL     1       3.120   0.842  22.427  0.00  0.00    +0.022 C 
ATOM     28  C   UNL     1       3.929   1.000  22.375  0.00  0.00    +0.002 C 
ATOM     29  C   UNL     1       4.469   0.528  22.782  0.00  0.00    +0.000 C 
ATOM     30  C   UNL     1       4.201  -0.102  23.243  0.00  0.00    +0.002 C 
ATOM     31  C   UNL     1       3.392  -0.260  23.295  0.00  0.00    +0.022 C 
ENDBRANCH  25  26
ENDBRANCH  21  22
ENDBRANCH  20  21
TORSDOF 5
ENDMDL
MODEL 2
REMARK VINA RESULT:      -9.9      3.470      4.835
REMARK  Name = 
REMARK  5 active torsions:
REMARK  status: ('A' for Active; 'I' for Inactive)
REMARK    1  A    between atoms: C_4  and  C_13
REMARK    2  A    between atoms: C_6  and  C_8
REMARK    3  A    between atoms: C_20  and  C_21
REMARK    4  A    between atoms: C_21  and  N_22
REMARK    5  A    between atoms: N_25  and  C_26
REMARK                            x       y       z     vdW  Elec       q    Type
REMARK                         _______ _______ _______ _____ _____    ______ ____
ROOT
ATOM     13  C   UNL     1      -3.755   0.293  24.432  0.00  0.00    +0.056 C 
ATOM     14  C   UNL     1      -3.356   0.773  23.968  0.00  0.00    +0.078 C 
ATOM     15  N   UNL     1      -3.898   0.996  24.549  0.00  0.00    -0.272 NA
ATOM     16  C   UNL     1      -4.257   0.116  24.992  0.00  0.00    +0.072 C 
ATOM     17  C   UNL     1      -4.639  -0.186  25.427  0.00  0.00    +0.018 C 
ATOM     18  C   UNL     1      -4.286   0.519  25.000  0.00  0.00    +0.010 C 
ATOM     19  C   UNL     1      -4.566   1.309  25.262  0.00  0.00    +0.018 C 
ATOM     20  C   UNL     1      -4.194   1.814  24.826  0.00  0.00    +0.079 C 
ENDROOT
BRANCH  13   4
ATOM      1  C   UNL     1      -4.695  -2.285  23.631  0.00  0.00    +0.074 C 
ATOM      2  C   UNL     1      -4.097  -1.806  23.937  0.00  0.00    +0.139 A 
ATOM      3  N   UNL     1      -4.225  -0.997  24.031  0.00  0.00    -0.235 NA
ATOM      4  C   UNL     1      -3.627  -0.518  24.338  0.00  0.00    +0.063 A 
ATOM      5  C   UNL     1      -2.902  -0.847  24.550  0.00  0.00    +0.037 A 
ATOM      6  C   UNL     1      -2.774  -1.657  24.456  0.00  0.00    +0.118 A 
ATOM      7  N   UNL     1      -3.371  -2.136  24.150  0.00  0.00    -0.228 NA
BRANCH   6   8
ATOM      8  C   UNL     1      -2.049  -1.988  24.668  0.00  0.00    +0.163 A 
ATOM      9  C   UNL     1      -1.624  -2.545  24.233  0.00  0.00    +0.042 A 
ATOM     10  C   UNL     1      -0.934  -2.722  24.647  0.00  0.00    +0.044 A 
ATOM     11  C   UNL     1      -0.931  -2.273  25.340  0.00  0.00    +0.180 A 
ATOM     12  O   UNL     1      -1.620  -1.820  25.353  0.00  0.00    -0.449 OA
ENDBRANCH   6   8
ENDBRANCH  13   4
BRANCH  20  21
ATOM     21  C   UNL     1      -4.110   2.622  24.688  0.00  0.00    +0.133 C 
BRANCH  21  22
ATOM     22  N   UNL     1      -3.723   3.096  25.240  0.00  0.00    -0.186 NA
ATOM     23  C   UNL     1      -3.091   3.572  25.006  0.00  0.00    +0.339 C 
ATOM     24  O   UNL     1      -2.846   3.572  24.218  0.00  0.00    -0.249 OA
ATOM     25  N   UNL     1      -2.703   4.046  25.558  0.00  0.00    -0.189 NA
BRANCH  25  26
ATOM     26  C   UNL     1      -2.071   4.521  25.323  0.00  0.00    +0.097 C 
ATOM     27  C   UNL     1      -2.185   5.330  25.204  0.00  0.00    +0.022 C 
ATOM     28  C   UNL     1      -1.552   5.805  24.969  0.00  0.00    +0.002 C 
ATOM     29  C   UNL     1      -0.807   5.472  24.852  0.00  0.00    +0.000 C 
ATOM     30  C   UNL     1      -0.693   4.663  24.971  0.00  0.00    +0.002 C 
ATOM     31  C   UNL     1      -1.325   4.188  25.207  0.00  0.00    +0.022 C 
ENDBRANCH  25  26
ENDBRANCH  21  22
ENDBRANCH  20  21
TORSDOF 5
ENDMDL
MODEL 3
REMARK VINA RESULT:      -9.5      0.959      2.081
REMARK  Name = 
REMARK  5 active torsions:
REMARK  status: ('A' for Active; 'I' for Inactive)
REMARK    1  A    between atoms: C_4  and  C_13
REMARK    2  A    between atoms: C_6  and  C_8
REMARK    3  A    between atoms: C_20  and  C_21
REMARK    4  A    between atoms: C_21  and  N_22
REMARK    5  A    between atoms: N_25  and  C_26
REMARK                            x       y       z     vdW  Elec       q    Type
REMARK                         _______ _______ _______ _____ _____    ______ ____
ROOT
ATOM     13  C   UNL     1      -1.753   0.549  24.277  0.00  0.00    +0.056 C 
ATOM     14  C   UNL     1      -1.185   0.260  24.724  0.00  0.00    +0.078 C 
ATOM     15  N   UNL     1      -1.089   0.771  24.082  0.00  0.00    -0.272 NA
ATOM     16  C   UNL     1      -2.044   0.969  23.699  0.00  0.00    +0.072 C 
ATOM     17  C   UNL     1      -2.431   1.267  23.265  0.00  0.00    +0.018 C 
ATOM     18  C   UNL     1      -1.651   1.050  23.649  0.00  0.00    +0.010 C 
ATOM     19  C   UNL     1      -0.932   1.405  23.291  0.00  0.00    +0.018 C 
ATOM     20  C   UNL     1      -0.346   1.143  23.704  0.00  0.00    +0.079 C 
ENDROOT
BRANCH  13   4
ATOM      1  C   UNL     1      -4.333   1.192  25.326  0.00  0.00    +0.074 C 
ATOM      2  C   UNL     1      -3.817   0.647  24.984  0.00  0.00    +0.139 A 
ATOM      3  N   UNL     1      -3.044   0.870  24.802  0.00  0.00    -0.235 NA
ATOM      4  C   UNL     1      -2.527   0.325  24.459  0.00  0.00    +0.063 A 
ATOM      5  C   UNL     1      -2.783  -0.441  24.299  0.00  0.00    +0.037 A 
ATOM      6  C   UNL     1      -3.556  -0.664  24.480  0.00  0.00    +0.118 A 
ATOM      7  N   UNL     1      -4.073  -0.120  24.823  0.00  0.00    -0.228 NA
BRANCH   6   8
ATOM      8  C   UNL     1      -3.813  -1.432  24.320  0.00  0.00    +0.163 A 
ATOM      9  C   UNL     1      -3.620  -2.108  24.751  0.00  0.00    +0.042 A 
ATOM     10  C   UNL     1      -3.995  -2.752  24.399  0.00  0.00    +0.044 A 
ATOM     11  C   UNL     1      -4.422  -2.474  23.750  0.00  0.00    +0.180 A 
ATOM     12  O   UNL     1      -4.309  -1.658  23.701  0.00  0.00    -0.449 OA
ENDBRANCH   6   8
ENDBRANCH  13   4
BRANCH  20  21
ATOM     21  C   UNL     1       0.475   1.178  23.771  0.00  0.00    +0.133 C 
BRANCH  21  22
ATOM     22  N   UNL     1       0.948   0.736  23.260  0.00  0.00    -0.186 NA
ATOM     23  C   UNL     1       1.770   0.776  23.320  0.00  0.00    +0.339 C 
ATOM     24  O   UNL     1       2.118   1.258  23.891  0.00  0.00    -0.249 OA
ATOM     25  N   UNL     1       2.243   0.334  22.809  0.00  0.00    -0.189 NA
BRANCH  25  26
ATOM     26  C   UNL     1       3.065   0.374  22.870  0.00  0.00    +0.097 C 
ATOM     27  C   UNL     1       3.470   1.026  22.567  0.00  0.00    +0.022 C 
ATOM     28  C   UNL     1       4.292   1.066  22.628  0.00  0.00    +0.002 C 
ATOM     29  C   UNL     1       4.709   0.455  22.992  0.00  0.00    +0.000 C 
ATOM     30  C   UNL     1       4.305  -0.197  23.295  0.00  0.00    +0.002 C 
ATOM     31  C   UNL     1       3.483  -0.237  23.234  0.00  0.00    +0.022 C 
ENDBRANCH  25  26
ENDBRANCH  21  22
ENDBRANCH  20  21
TORSDOF 5
ENDMDL
MODEL 4
REMARK VINA RESULT:      -9.1      3.547      5.570
REMARK  Name = 
REMARK  5 active torsions:
REMARK  status: ('A' for Active; 'I' for Inactive)
REMARK    1  A    between atoms: C_4  and  C_13
REMARK    2  A    between atoms: C_6  and  C_8
REMARK    3  A    between atoms: C_20  and  C_21
REMARK    4  A    between atoms: C_21  and  N_22
REMARK    5  A    between atoms: N_25  and  C_26
REMARK                            x       y       z     vdW  Elec       q    Type
REMARK                         _______ _______ _______ _____ _____    ______ ____
ROOT
ATOM     13  C   UNL     1      -3.640   2.689  25.263  0.00  0.00    +0.056 C 
ATOM     14  C   UNL     1      -3.423   2.027  25.610  0.00  0.00    +0.078 C 
ATOM     15  N   UNL     1      -4.009   2.106  25.034  0.00  0.00    -0.272 NA
ATOM     16  C   UNL     1      -4.054   3.121  24.775  0.00  0.00    +0.072 C 
ATOM     17  C   UNL     1      -4.313   3.607  24.424  0.00  0.00    +0.018 C 
ATOM     18  C   UNL     1      -4.215   2.759  24.698  0.00  0.00    +0.010 C 
ATOM     19  C   UNL     1      -4.742   2.168  24.319  0.00  0.00    +0.018 C 
ATOM     20  C   UNL     1      -4.560   1.497  24.636  0.00  0.00    +0.079 C 
ENDROOT
BRANCH  13   4
ATOM      1  C   UNL     1      -3.534   5.068  26.845  0.00  0.00    +0.074 C 
ATOM      2  C   UNL     1      -3.196   4.569  26.281  0.00  0.00    +0.139 A 
ATOM      3  N   UNL     1      -3.586   3.879  26.054  0.00  0.00    -0.235 NA
ATOM      4  C   UNL     1      -3.249   3.381  25.490  0.00  0.00    +0.063 A 
ATOM      5  C   UNL     1      -2.521   3.572  25.153  0.00  0.00    +0.037 A 
ATOM      6  C   UNL     1      -2.131   4.262  25.379  0.00  0.00    +0.118 A 
ATOM      7  N   UNL     1      -2.468   4.761  25.943  0.00  0.00    -0.228 NA
BRANCH   6   8
ATOM      8  C   UNL     1      -1.403   4.455  25.042  0.00  0.00    +0.163 A 
ATOM      9  C   UNL     1      -1.128   5.217  24.884  0.00  0.00    +0.042 A 
ATOM     10  C   UNL     1      -0.378   5.154  24.549  0.00  0.00    +0.044 A 
ATOM     11  C   UNL     1      -0.188   4.352  24.499  0.00  0.00    +0.180 A 
ATOM     12  O   UNL     1      -0.821   3.920  24.804  0.00  0.00    -0.449 OA
ENDBRANCH   6   8
ENDBRANCH  13   4
BRANCH  20  21
ATOM     21  C   UNL     1      -4.750   0.695  24.625  0.00  0.00    +0.133 C 
BRANCH  21  22
ATOM     22  N   UNL     1      -4.355   0.186  24.110  0.00  0.00    -0.186 NA
ATOM     23  C   UNL     1      -4.187  -0.588  24.343  0.00  0.00    +0.339 C 
ATOM     24  O   UNL     1      -4.413  -0.851  25.091  0.00  0.00    -0.249 OA
ATOM     25  N   UNL     1      -3.792  -1.097  23.828  0.00  0.00    -0.189 NA
BRANCH  25  26
ATOM     26  C   UNL     1      -3.624  -1.871  24.061  0.00  0.00    +0.097 C 
ATOM     27  C   UNL     1      -4.152  -2.479  23.884  0.00  0.00    +0.022 C 
ATOM     28  C   UNL     1      -3.984  -3.253  24.117  0.00  0.00    +0.002 C 
ATOM     29  C   UNL     1      -3.287  -3.418  24.528  0.00  0.00    +0.000 C 
ATOM     30  C   UNL     1      -2.760  -2.809  24.705  0.00  0.00    +0.002 C 
ATOM     31  C   UNL     1      -2.928  -2.036  24.472  0.00  0.00    +0.022 C 
ENDBRANCH  25  26
ENDBRANCH  21  22
ENDBRANCH  20  21
TORSDOF 5
ENDMDL
MODEL 5
REMARK VINA RESULT:      -8.7      1.470      2.078
REMARK  Name = 
REMARK  5 active torsions:
REMARK  status: ('A' for Active; 'I' for Inactive)
REMARK    1  A    between atoms: C_4  and  C_13
REMARK    2  A    between atoms: C_6  and  C_8
REMARK    3  A    between atoms: C_20  and  C_21
REMARK    4  A    between atoms: C_21  and  N_22
REMARK    5  A    between atoms: N_25  and  C_26
REMARK                            x       y       z     vdW  Elec       q    Type
REMARK                         _______ _______ _______ _____ _____    ______ ____
ROOT
ATOM     13  C   UNL     1      -2.215   2.095  24.241  0.00  0.00    +0.056 C 
ATOM     14  C   UNL     1      -1.732   2.002  24.844  0.00  0.00    +0.078 C 
ATOM     15  N   UNL     1      -1.628   1.696  24.085  0.00  0.00    -0.272 NA
ATOM     16  C   UNL     1      -2.452   2.001  23.512  0.00  0.00    +0.072 C 
ATOM     17  C   UNL     1      -2.777   2.011  22.946  0.00  0.00    +0.018 C 
ATOM     18  C   UNL     1      -2.106   1.791  23.499  0.00  0.00    +0.010 C 
ATOM     19  C   UNL     1      -1.466   1.300  23.152  0.00  0.00    +0.018 C 
ATOM     20  C   UNL     1      -0.966   1.186  23.718  0.00  0.00    +0.079 C 
ENDROOT
BRANCH  13   4
ATOM      1  C   UNL     1      -3.559   4.618  24.242  0.00  0.00    +0.074 C 
ATOM      2  C   UNL     1      -3.570   3.803  24.369  0.00  0.00    +0.139 A 
ATOM      3  N   UNL     1      -2.888   3.357  24.242  0.00  0.00    -0.235 NA
ATOM      4  C   UNL     1      -2.898   2.541  24.369  0.00  0.00    +0.063 A 
ATOM      5  C   UNL     1      -3.590   2.172  24.624  0.00  0.00    +0.037 A 
ATOM      6  C   UNL     1      -4.272   2.618  24.751  0.00  0.00    +0.118 A 
ATOM      7  N   UNL     1      -4.262   3.433  24.624  0.00  0.00    -0.228 NA
BRANCH   6   8
ATOM      8  C   UNL     1      -4.965   2.250  25.006  0.00  0.00    +0.163 A 
ATOM      9  C   UNL     1      -5.222   2.188  25.788  0.00  0.00    +0.042 A 
ATOM     10  C   UNL     1      -5.937   1.779  25.790  0.00  0.00    +0.044 A 
ATOM     11  C   UNL     1      -6.124   1.587  25.009  0.00  0.00    +0.180 A 
ATOM     12  O   UNL     1      -5.523   1.878  24.525  0.00  0.00    -0.449 OA
ENDBRANCH   6   8
ENDBRANCH  13   4
BRANCH  20  21
ATOM     21  C   UNL     1      -0.250   0.817  23.894  0.00  0.00    +0.133 C 
BRANCH  21  22
ATOM     22  N   UNL     1       0.213   0.506  23.286  0.00  0.00    -0.186 NA
ATOM     23  C   UNL     1       1.035   0.517  23.346  0.00  0.00    +0.339 C 
ATOM     24  O   UNL     1       1.395   0.840  24.015  0.00  0.00    -0.249 OA
ATOM     25  N   UNL     1       1.498   0.206  22.739  0.00  0.00    -0.189 NA
BRANCH  25  26
ATOM     26  C   UNL     1       2.321   0.217  22.799  0.00  0.00    +0.097 C 
ATOM     27  C   UNL     1       2.737   0.911  22.636  0.00  0.00    +0.022 C 
ATOM     28  C   UNL     1       3.560   0.922  22.697  0.00  0.00    +0.002 C 
ATOM     29  C   UNL     1       3.967   0.241  22.921  0.00  0.00    +0.000 C 
ATOM     30  C   UNL     1       3.551  -0.453  23.084  0.00  0.00    +0.002 C 
ATOM     31  C   UNL     1       2.728  -0.465  23.024  0.00  0.00    +0.022 C 
ENDBRANCH  25  26
ENDBRANCH  21  22
ENDBRANCH  20  21
TORSDOF 5
ENDMDL
MODEL 6
REMARK VINA RESULT:      -8.7      2.862      4.452
REMARK  Name = 
REMARK  5 active torsions:
REMARK  status: ('A' for Active; 'I' for Inactive)
REMARK    1  A    between atoms: C_4  and  C_13
REMARK    2  A    between atoms: C_6  and  C_8
REMARK    3  A    between atoms: C_20  and  C_21
REMARK    4  A    between atoms: C_21  and  N_22
REMARK    5  A    between atoms: N_25  and  C_26
REMARK                            x       y       z     vdW  Elec       q    Type
REMARK                         _______ _______ _______ _____ _____    ______ ____
ROOT
ATOM     13  C   UNL     1      -1.377   2.241  24.975  0.00  0.00    +0.056 C 
ATOM     14  C   UNL     1      -1.604   1.825  24.357  0.00  0.00    +0.078 C 
ATOM     15  N   UNL     1      -1.082   1.578  24.948  0.00  0.00    -0.272 NA
ATOM     16  C   UNL     1      -0.989   2.368  25.630  0.00  0.00    +0.072 C 
ATOM     17  C   UNL     1      -0.734   2.620  26.176  0.00  0.00    +0.018 C 
ATOM     18  C   UNL     1      -0.866   1.991  25.550  0.00  0.00    +0.010 C 
ATOM     19  C   UNL     1      -0.431   1.237  25.664  0.00  0.00    +0.018 C 
ATOM     20  C   UNL     1      -0.628   0.796  25.072  0.00  0.00    +0.079 C 
ENDROOT
BRANCH  13   4
ATOM      1  C   UNL     1      -1.005   5.076  24.956  0.00  0.00    +0.074 C 
ATOM      2  C   UNL     1      -1.500   4.420  25.041  0.00  0.00    +0.139 A 
ATOM      3  N   UNL     1      -1.192   3.659  24.966  0.00  0.00    -0.235 NA
ATOM      4  C   UNL     1      -1.686   3.004  25.050  0.00  0.00    +0.063 A 
ATOM      5  C   UNL     1      -2.488   3.110  25.210  0.00  0.00    +0.037 A 
ATOM      6  C   UNL     1      -2.796   3.871  25.285  0.00  0.00    +0.118 A 
ATOM      7  N   UNL     1      -2.302   4.527  25.201  0.00  0.00    -0.228 NA
BRANCH   6   8
ATOM      8  C   UNL     1      -3.598   3.978  25.445  0.00  0.00    +0.163 A 
ATOM      9  C   UNL     1      -4.186   4.141  24.889  0.00  0.00    +0.042 A 
ATOM     10  C   UNL     1      -4.904   4.205  25.288  0.00  0.00    +0.044 A 
ATOM     11  C   UNL     1      -4.762   4.082  26.091  0.00  0.00    +0.180 A 
ATOM     12  O   UNL     1      -3.954   3.942  26.188  0.00  0.00    -0.449 OA
ENDBRANCH   6   8
ENDBRANCH  13   4
BRANCH  20  21
ATOM     21  C   UNL     1      -0.503   0.052  24.741  0.00  0.00    +0.133 C 
BRANCH  21  22
ATOM     22  N   UNL     1      -0.766  -0.624  25.134  0.00  0.00    -0.186 NA
ATOM     23  C   UNL     1      -1.359  -1.091  24.802  0.00  0.00    +0.339 C 
ATOM     24  O   UNL     1      -1.689  -0.882  24.075  0.00  0.00    -0.249 OA
ATOM     25  N   UNL     1      -1.623  -1.766  25.195  0.00  0.00    -0.189 NA
BRANCH  25  26
ATOM     26  C   UNL     1      -2.216  -2.233  24.861  0.00  0.00    +0.097 C 
ATOM     27  C   UNL     1      -2.019  -2.833  24.330  0.00  0.00    +0.022 C 
ATOM     28  C   UNL     1      -2.612  -3.299  23.996  0.00  0.00    +0.002 C 
ATOM     29  C   UNL     1      -3.402  -3.167  24.194  0.00  0.00    +0.000 C 
ATOM     30  C   UNL     1      -3.599  -2.567  24.725  0.00  0.00    +0.002 C 
ATOM     31  C   UNL     1      -3.006  -2.101  25.059  0.00  0.00    +0.022 C 
ENDBRANCH  25  26
ENDBRANCH  21  22
ENDBRANCH  20  21
TORSDOF 5
ENDMDL
MODEL 7
REMARK VINA RESULT:      -8.6      2.775      4.376
REMARK  Name = 
REMARK  5 active torsions:
REMARK  status: ('A' for Active; 'I' for Inactive)
REMARK    1  A    between atoms: C_4  and  C_13
REMARK    2  A    between atoms: C_6  and  C_8
REMARK    3  A    between atoms: C_20  and  C_21
REMARK    4  A    between atoms: C_21  and  N_22
REMARK    5  A    between atoms: N_25  and  C_26
REMARK                            x       y       z     vdW  Elec       q    Type
REMARK                         _______ _______ _______ _____ _____    ______ ____
ROOT
ATOM     13  C   UNL     1      -0.843  -0.271  24.820  0.00  0.00    +0.056 C 
ATOM     14  C   UNL     1      -1.085   0.231  25.363  0.00  0.00    +0.078 C 
ATOM     15  N   UNL     1      -0.532   0.384  24.769  0.00  0.00    -0.272 NA
ATOM     16  C   UNL     1      -0.430  -0.496  24.208  0.00  0.00    +0.072 C 
ATOM     17  C   UNL     1      -0.158  -0.826  23.714  0.00  0.00    +0.018 C 
ATOM     18  C   UNL     1      -0.301  -0.114  24.240  0.00  0.00    +0.010 C 
ATOM     19  C   UNL     1       0.158   0.609  24.044  0.00  0.00    +0.018 C 
ATOM     20  C   UNL     1      -0.053   1.131  24.559  0.00  0.00    +0.079 C 
ENDROOT
BRANCH  13   4
ATOM      1  C   UNL     1      -0.588  -3.061  25.389  0.00  0.00    +0.074 C 
ATOM      2  C   UNL     1      -1.040  -2.425  25.121  0.00  0.00    +0.139 A 
ATOM      3  N   UNL     1      -0.716  -1.667  25.105  0.00  0.00    -0.235 NA
ATOM      4  C   UNL     1      -1.168  -1.031  24.837  0.00  0.00    +0.063 A 
ATOM      5  C   UNL     1      -1.944  -1.152  24.585  0.00  0.00    +0.037 A 
ATOM      6  C   UNL     1      -2.268  -1.911  24.601  0.00  0.00    +0.118 A 
ATOM      7  N   UNL     1      -1.816  -2.547  24.869  0.00  0.00    -0.228 NA
BRANCH   6   8
ATOM      8  C   UNL     1      -3.044  -2.033  24.350  0.00  0.00    +0.163 A 
ATOM      9  C   UNL     1      -3.423  -2.764  24.287  0.00  0.00    +0.042 A 
ATOM     10  C   UNL     1      -4.190  -2.630  24.015  0.00  0.00    +0.044 A 
ATOM     11  C   UNL     1      -4.286  -1.817  23.911  0.00  0.00    +0.180 A 
ATOM     12  O   UNL     1      -3.577  -1.449  24.117  0.00  0.00    -0.449 OA
ENDBRANCH   6   8
ENDBRANCH  13   4
BRANCH  20  21
ATOM     21  C   UNL     1       0.077   1.912  24.790  0.00  0.00    +0.133 C 
BRANCH  21  22
ATOM     22  N   UNL     1      -0.229   2.531  24.339  0.00  0.00    -0.186 NA
ATOM     23  C   UNL     1      -0.568   3.185  24.712  0.00  0.00    +0.339 C 
ATOM     24  O   UNL     1      -0.600   3.219  25.535  0.00  0.00    -0.249 OA
ATOM     25  N   UNL     1      -0.875   3.804  24.261  0.00  0.00    -0.189 NA
BRANCH  25  26
ATOM     26  C   UNL     1      -1.214   4.457  24.634  0.00  0.00    +0.097 C 
ATOM     27  C   UNL     1      -0.812   5.178  24.650  0.00  0.00    +0.022 C 
ATOM     28  C   UNL     1      -1.151   5.831  25.023  0.00  0.00    +0.002 C 
ATOM     29  C   UNL     1      -1.891   5.764  25.381  0.00  0.00    +0.000 C 
ATOM     30  C   UNL     1      -2.293   5.044  25.365  0.00  0.00    +0.002 C 
ATOM     31  C   UNL     1      -1.954   4.390  24.992  0.00  0.00    +0.022 C 
ENDBRANCH  25  26
ENDBRANCH  21  22
ENDBRANCH  20  21
TORSDOF 5
ENDMDL
