MODEL 1
REMARK VINA RESULT:     -11.6      0.000      0.000
REMARK  Name = 
REMARK  4 active torsions:
REMARK  status: ('A' for Active; 'I' for Inactive)
REMARK    1  A    between atoms: N_5  and  C_8
REMARK    2  A    between atoms: C_14  and  N_15
REMARK    3  A    between atoms: N_15  and  C_16
REMARK    4  A    between atoms: C_16  and  C_17
REMARK                            x       y       z     vdW  Elec       q    Type
REMARK                         _______ _______ _______ _____ _____    ______ ____
ROOT
ATOM      8  C   UNL     1      -4.314   1.509  24.619  0.00  0.00    +0.147 C 
ATOM      9  C   UNL     1      -5.017   2.122  24.889  0.00  0.00    +0.253 C 
ATOM     10  O   UNL     1      -4.929   2.991  25.017  0.00  0.00    -0.327 OA
ATOM     11  C   UNL     1      -4.726   2.314  24.854  0.00  0.00    +0.176 C 
ATOM     12  C   UNL     1      -4.956   1.574  24.781  0.00  0.00    +0.166 C 
ATOM     13  O   UNL     1      -5.648   1.594  24.946  0.00  0.00    -0.328 OA
ATOM     14  C   UNL     1      -4.293   0.977  24.523  0.00  0.00    +0.135 C 
ATOM     24  C   UNL     1      -3.660   1.509  24.466  0.00  0.00    +0.190 C 
ATOM     25  O   UNL     1      -2.896   1.791  24.336  0.00  0.00    -0.220 OA
ENDROOT
BRANCH   8   5
ATOM      1  C   UNL     1      -3.102   4.570  24.860  0.00  0.00    +0.090 C 
ATOM      2  N   UNL     1      -3.405   3.804  24.800  0.00  0.00    -0.269 NA
ATOM      3  C   UNL     1      -3.711   3.538  24.083  0.00  0.00    +0.090 C 
ATOM      4  C   UNL     1      -4.014   2.773  24.022  0.00  0.00    +0.090 C 
ATOM      5  N   UNL     1      -4.011   2.274  24.680  0.00  0.00    -0.265 NA
ATOM      6  C   UNL     1      -3.704   2.541  25.398  0.00  0.00    +0.090 C 
ATOM      7  C   UNL     1      -3.401   3.306  25.458  0.00  0.00    +0.090 C 
ENDBRANCH   8   5
BRANCH  14  15
ATOM     15  N   UNL     1      -4.324   0.162  24.391  0.00  0.00    -0.209 NA
BRANCH  15  16
ATOM     16  C   UNL     1      -3.936  -0.354  24.904  0.00  0.00    +0.118 C 
BRANCH  16  17
ATOM     17  C   UNL     1      -3.886  -1.157  24.721  0.00  0.00    +0.034 A 
ATOM     18  C   UNL     1      -3.529  -1.679  25.252  0.00  0.00    +0.193 A 
ATOM     19  O   UNL     1      -3.223  -1.398  25.964  0.00  0.00    -0.287 OA
ATOM     20  C   UNL     1      -3.479  -2.482  25.069  0.00  0.00    +0.042 A 
ATOM     21  C   UNL     1      -3.785  -2.762  24.356  0.00  0.00    +0.003 A 
ATOM     22  C   UNL     1      -4.142  -2.240  23.826  0.00  0.00    -0.000 A 
ATOM     23  C   UNL     1      -4.192  -1.438  24.009  0.00  0.00    +0.000 A 
ENDBRANCH  16  17
ENDBRANCH  15  16
ENDBRANCH  14  15
TORSDOF 4
ENDMDL
