MODEL 1
REMARK VINA RESULT:     -10.3      0.000      0.000
REMARK  Name = 
REMARK  3 active torsions:
REMARK  status: ('A' for Active; 'I' for Inactive)
REMARK    1  A    between atoms: C_4  and  C_15
REMARK    2  A    between atoms: C_5  and  N_6
REMARK    3  A    between atoms: C_7  and  C_9
REMARK                            x       y       z     vdW  Elec       q    Type
REMARK                         _______ _______ _______ _____ _____    ______ ____
ROOT
ATOM      1  O   UNL     1      -5.456   2.854  25.527  0.00  0.00    -0.220 OA
ATOM      2  C   UNL     1      -4.913   2.376  25.129  0.00  0.00    +0.184 C 
ATOM      3  C   UNL     1      -4.194   2.622  24.809  0.00  0.00    +0.042 C 
ATOM      4  C   UNL     1      -3.831   1.966  24.463  0.00  0.00    +0.049 C 
ATOM      5  C   UNL     1      -4.327   1.316  24.570  0.00  0.00    +0.132 C 
ATOM     13  C   UNL     1      -4.996   1.569  24.981  0.00  0.00    +0.202 C 
ATOM     14  O   UNL     1      -5.635   1.098  25.206  0.00  0.00    -0.219 OA
ENDROOT
BRANCH   4  15
ATOM     15  C   UNL     1      -3.101   1.964  24.079  0.00  0.00    -0.002 A 
ATOM     16  C   UNL     1      -3.068   1.983  23.255  0.00  0.00    -0.001 A 
ATOM     17  C   UNL     1      -2.338   1.980  22.871  0.00  0.00    +0.020 A 
ATOM     18  C   UNL     1      -1.641   1.958  23.312  0.00  0.00    +0.099 A 
ATOM     19  N   UNL     1      -1.674   1.939  24.136  0.00  0.00    -0.243 NA
ATOM     20  C   UNL     1      -2.405   1.942  24.519  0.00  0.00    +0.095 A 
ENDBRANCH   4  15
BRANCH   5   6
ATOM      6  N   UNL     1      -4.180   0.547  24.311  0.00  0.00    -0.204 NA
ATOM      7  C   UNL     1      -4.213  -0.082  24.843  0.00  0.00    +0.241 C 
ATOM      8  O   UNL     1      -4.394   0.059  25.636  0.00  0.00    -0.273 OA
BRANCH   7   9
ATOM      9  C   UNL     1      -4.066  -0.851  24.584  0.00  0.00    +0.078 C 
ATOM     10  C   UNL     1      -3.620  -1.486  24.864  0.00  0.00    +0.009 C 
ATOM     11  C   UNL     1      -3.857  -1.939  24.217  0.00  0.00    +0.001 C 
ATOM     12  C   UNL     1      -4.303  -1.304  23.937  0.00  0.00    +0.009 C 
ENDBRANCH   7   9
ENDBRANCH   5   6
TORSDOF 3
ENDMDL
MODEL 2
REMARK VINA RESULT:     -10.0      1.841      3.584
REMARK  Name = 
REMARK  3 active torsions:
REMARK  status: ('A' for Active; 'I' for Inactive)
REMARK    1  A    between atoms: C_4  and  C_15
REMARK    2  A    between atoms: C_5  and  N_6
REMARK    3  A    between atoms: C_7  and  C_9
REMARK                            x       y       z     vdW  Elec       q    Type
REMARK                         _______ _______ _______ _____ _____    ______ ____
ROOT
ATOM      1  O   UNL     1      -5.641   2.965  25.794  0.00  0.00    -0.220 OA
ATOM      2  C   UNL     1      -4.929   2.971  25.379  0.00  0.00    +0.184 C 
ATOM      3  C   UNL     1      -4.663   2.385  24.863  0.00  0.00    +0.042 C 
ATOM      4  C   UNL     1      -3.926   2.616  24.572  0.00  0.00    +0.049 C 
ATOM      5  C   UNL     1      -3.738   3.346  24.909  0.00  0.00    +0.132 C 
ATOM     13  C   UNL     1      -4.356   3.565  25.407  0.00  0.00    +0.202 C 
ATOM     14  O   UNL     1      -4.398   4.256  25.855  0.00  0.00    -0.219 OA
ENDROOT
BRANCH   4  15
ATOM     15  C   UNL     1      -3.461   2.192  24.038  0.00  0.00    -0.002 A 
ATOM     16  C   UNL     1      -3.421   2.426  23.248  0.00  0.00    -0.001 A 
ATOM     17  C   UNL     1      -2.956   2.001  22.716  0.00  0.00    +0.020 A 
ATOM     18  C   UNL     1      -2.531   1.343  22.973  0.00  0.00    +0.099 A 
ATOM     19  N   UNL     1      -2.570   1.109  23.763  0.00  0.00    -0.243 NA
ATOM     20  C   UNL     1      -3.036   1.534  24.296  0.00  0.00    +0.095 A 
ENDBRANCH   4  15
BRANCH   5   6
ATOM      6  N   UNL     1      -3.050   3.780  24.770  0.00  0.00    -0.204 NA
ATOM      7  C   UNL     1      -2.566   3.999  25.401  0.00  0.00    +0.241 C 
ATOM      8  O   UNL     1      -2.771   3.785  26.171  0.00  0.00    -0.273 OA
BRANCH   7   9
ATOM      9  C   UNL     1      -1.878   4.433  25.263  0.00  0.00    +0.078 C 
ATOM     10  C   UNL     1      -1.077   4.251  25.199  0.00  0.00    +0.009 C 
ATOM     11  C   UNL     1      -0.905   5.047  25.067  0.00  0.00    +0.001 C 
ATOM     12  C   UNL     1      -1.708   5.229  25.132  0.00  0.00    +0.009 C 
ENDBRANCH   7   9
ENDBRANCH   5   6
TORSDOF 3
ENDMDL
MODEL 3
REMARK VINA RESULT:      -9.8      1.399      3.079
REMARK  Name = 
REMARK  3 active torsions:
REMARK  status: ('A' for Active; 'I' for Inactive)
REMARK    1  A    between atoms: C_4  and  C_15
REMARK    2  A    between atoms: C_5  and  N_6
REMARK    3  A    between atoms: C_7  and  C_9
REMARK                            x       y       z     vdW  Elec       q    Type
REMARK                         _______ _______ _______ _____ _____    ______ ____
ROOT
ATOM      1  O   UNL     1      -5.254   1.931  24.972  0.00  0.00    -0.220 OA
ATOM      2  C   UNL     1      -4.674   1.359  24.843  0.00  0.00    +0.184 C 
ATOM      3  C   UNL     1      -4.759   0.547  24.957  0.00  0.00    +0.042 C 
ATOM      4  C   UNL     1      -4.043   0.185  24.762  0.00  0.00    +0.049 C 
ATOM      5  C   UNL     1      -3.516   0.775  24.528  0.00  0.00    +0.132 C 
ATOM     13  C   UNL     1      -3.905   1.500  24.578  0.00  0.00    +0.202 C 
ATOM     14  O   UNL     1      -3.584   2.238  24.395  0.00  0.00    -0.219 OA
ENDROOT
BRANCH   4  15
ATOM     15  C   UNL     1      -3.884  -0.624  24.796  0.00  0.00    -0.002 A 
ATOM     16  C   UNL     1      -3.951  -1.087  24.117  0.00  0.00    -0.001 A 
ATOM     17  C   UNL     1      -3.792  -1.895  24.152  0.00  0.00    +0.020 A 
ATOM     18  C   UNL     1      -3.565  -2.241  24.867  0.00  0.00    +0.099 A 
ATOM     19  N   UNL     1      -3.498  -1.777  25.546  0.00  0.00    -0.243 NA
ATOM     20  C   UNL     1      -3.658  -0.968  25.511  0.00  0.00    +0.095 A 
ENDBRANCH   4  15
BRANCH   5   6
ATOM      6  N   UNL     1      -2.736   0.660  24.286  0.00  0.00    -0.204 NA
ATOM      7  C   UNL     1      -2.125   1.082  24.645  0.00  0.00    +0.241 C 
ATOM      8  O   UNL     1      -2.296   1.620  25.247  0.00  0.00    -0.273 OA
BRANCH   7   9
ATOM      9  C   UNL     1      -1.345   0.966  24.403  0.00  0.00    +0.078 C 
ATOM     10  C   UNL     1      -0.948   0.999  23.682  0.00  0.00    +0.009 C 
ATOM     11  C   UNL     1      -0.242   0.802  24.061  0.00  0.00    +0.001 C 
ATOM     12  C   UNL     1      -0.640   0.769  24.783  0.00  0.00    +0.009 C 
ENDBRANCH   7   9
ENDBRANCH   5   6
TORSDOF 3
ENDMDL
MODEL 4
REMARK VINA RESULT:      -9.8      1.533      3.200
REMARK  Name = 
REMARK  3 active torsions:
REMARK  status: ('A' for Active; 'I' for Inactive)
REMARK    1  A    between atoms: C_4  and  C_15
REMARK    2  A    between atoms: C_5  and  N_6
REMARK    3  A    between atoms: C_7  and  C_9
REMARK                            x       y       z     vdW  Elec       q    Type
REMARK                         _______ _______ _______ _____ _____    ______ ____
ROOT
ATOM      1  O   UNL     1      -1.900   1.989  22.917  0.00  0.00    -0.220 OA
ATOM      2  C   UNL     1      -2.478   1.597  23.356  0.00  0.00    +0.184 C 
ATOM      3  C   UNL     1      -2.432   0.822  23.635  0.00  0.00    +0.042 C 
ATOM      4  C   UNL     1      -3.129   0.657  24.045  0.00  0.00    +0.049 C 
ATOM      5  C   UNL     1      -3.604   1.331  24.020  0.00  0.00    +0.132 C 
ATOM     13  C   UNL     1      -3.203   1.911  23.594  0.00  0.00    +0.202 C 
ATOM     14  O   UNL     1      -3.476   2.673  23.434  0.00  0.00    -0.219 OA
ENDROOT
BRANCH   4  15
ATOM     15  C   UNL     1      -3.316  -0.056  24.416  0.00  0.00    -0.002 A 
ATOM     16  C   UNL     1      -3.808  -0.601  24.039  0.00  0.00    -0.001 A 
ATOM     17  C   UNL     1      -3.994  -1.314  24.410  0.00  0.00    +0.020 A 
ATOM     18  C   UNL     1      -3.688  -1.482  25.158  0.00  0.00    +0.099 A 
ATOM     19  N   UNL     1      -3.197  -0.937  25.534  0.00  0.00    -0.243 NA
ATOM     20  C   UNL     1      -3.011  -0.224  25.163  0.00  0.00    +0.095 A 
ENDBRANCH   4  15
BRANCH   5   6
ATOM      6  N   UNL     1      -4.351   1.410  24.361  0.00  0.00    -0.204 NA
ATOM      7  C   UNL     1      -4.506   2.034  24.877  0.00  0.00    +0.241 C 
ATOM      8  O   UNL     1      -3.912   2.580  25.052  0.00  0.00    -0.273 OA
BRANCH   7   9
ATOM      9  C   UNL     1      -5.253   2.113  25.218  0.00  0.00    +0.078 C 
ATOM     10  C   UNL     1      -5.540   2.411  25.931  0.00  0.00    +0.009 C 
ATOM     11  C   UNL     1      -6.310   2.225  25.700  0.00  0.00    +0.001 C 
ATOM     12  C   UNL     1      -6.022   1.926  24.987  0.00  0.00    +0.009 C 
ENDBRANCH   7   9
ENDBRANCH   5   6
TORSDOF 3
ENDMDL
