MODEL 1
REMARK VINA RESULT:     -12.1      0.000      0.000
REMARK  Name = 
REMARK  4 active torsions:
REMARK  status: ('A' for Active; 'I' for Inactive)
REMARK    1  A    between atoms: N_2  and  C_4
REMARK    2  A    between atoms: C_7  and  C_10
REMARK    3  A    between atoms: C_13  and  C_15
REMARK    4  A    between atoms: C_20  and  C_22
REMARK                            x       y       z     vdW  Elec       q    Type
REMARK                         _______ _______ _______ _____ _____    ______ ____
ROOT
ATOM     10  C   UNL     1      -4.211   0.706  24.804  0.00  0.00    +0.250 A 
ATOM     11  N   UNL     1      -4.938   1.094  24.835  0.00  0.00    -0.107 NA
ATOM     12  N   UNL     1      -4.794   1.900  24.941  0.00  0.00    -0.111 NA
ATOM     13  C   UNL     1      -3.977   2.009  24.974  0.00  0.00    +0.228 A 
ATOM     14  O   UNL     1      -3.617   1.271  24.889  0.00  0.00    -0.419 OA
ENDROOT
BRANCH  13  15
ATOM     15  C   UNL     1      -3.588   2.729  25.075  0.00  0.00    +0.100 C 
ATOM     16  C   UNL     1      -3.947   3.468  25.158  0.00  0.00    +0.033 C 
ATOM     17  C   UNL     1      -3.352   4.033  25.244  0.00  0.00    +0.094 C 
ATOM     18  N   UNL     1      -2.625   3.644  25.215  0.00  0.00    -0.274 N 
ATOM     19  C   UNL     1      -2.771   2.839  25.111  0.00  0.00    +0.103 C 
ATOM     20  C   UNL     1      -1.883   3.999  25.280  0.00  0.00    +0.267 C 
ATOM     21  O   UNL     1      -1.824   4.815  25.383  0.00  0.00    -0.268 OA
BRANCH  20  22
ATOM     22  C   UNL     1      -1.200   3.537  25.240  0.00  0.00    +0.135 A 
ATOM     23  N   UNL     1      -0.845   3.387  24.510  0.00  0.00    -0.239 NA
ATOM     24  C   UNL     1      -0.163   2.925  24.471  0.00  0.00    +0.099 A 
ATOM     25  C   UNL     1       0.165   2.614  25.161  0.00  0.00    +0.021 A 
ATOM     26  C   UNL     1      -0.190   2.764  25.890  0.00  0.00    +0.003 A 
ATOM     27  C   UNL     1      -0.873   3.226  25.930  0.00  0.00    +0.024 A 
ENDBRANCH  20  22
ENDBRANCH  13  15
BRANCH  10   7
ATOM      4  C   UNL     1      -3.873  -1.727  24.503  0.00  0.00    +0.048 A 
ATOM      5  C   UNL     1      -4.090  -1.258  23.859  0.00  0.00    +0.015 A 
ATOM      6  C   UNL     1      -4.202  -0.447  23.960  0.00  0.00    +0.006 A 
ATOM      7  C   UNL     1      -4.098  -0.105  24.703  0.00  0.00    +0.055 A 
ATOM      8  C   UNL     1      -3.882  -0.574  25.346  0.00  0.00    +0.006 A 
ATOM      9  C   UNL     1      -3.769  -1.385  25.246  0.00  0.00    +0.015 A 
BRANCH   4   2
ATOM      1  C   UNL     1      -4.199  -2.949  23.839  0.00  0.00    +0.112 C 
ATOM      2  N   UNL     1      -3.760  -2.539  24.403  0.00  0.00    -0.304 N 
ATOM      3  C   UNL     1      -3.208  -2.938  24.868  0.00  0.00    +0.112 C 
ENDBRANCH   4   2
ENDBRANCH  10   7
TORSDOF 4
ENDMDL
MODEL 2
REMARK VINA RESULT:     -11.2      1.432      2.568
REMARK  Name = 
REMARK  4 active torsions:
REMARK  status: ('A' for Active; 'I' for Inactive)
REMARK    1  A    between atoms: N_2  and  C_4
REMARK    2  A    between atoms: C_7  and  C_10
REMARK    3  A    between atoms: C_13  and  C_15
REMARK    4  A    between atoms: C_20  and  C_22
REMARK                            x       y       z     vdW  Elec       q    Type
REMARK                         _______ _______ _______ _____ _____    ______ ____
ROOT
ATOM     10  C   UNL     1      -1.644  -0.089  25.268  0.00  0.00    +0.250 A 
ATOM     11  N   UNL     1      -0.897  -0.147  25.614  0.00  0.00    -0.107 NA
ATOM     12  N   UNL     1      -0.606   0.617  25.723  0.00  0.00    -0.111 NA
ATOM     13  C   UNL     1      -1.173   1.147  25.443  0.00  0.00    +0.228 A 
ATOM     14  O   UNL     1      -1.814   0.711  25.162  0.00  0.00    -0.419 OA
ENDROOT
BRANCH  13  15
ATOM     15  C   UNL     1      -1.110   1.970  25.444  0.00  0.00    +0.100 C 
ATOM     16  C   UNL     1      -0.409   2.402  25.498  0.00  0.00    +0.033 C 
ATOM     17  C   UNL     1      -0.602   3.205  25.479  0.00  0.00    +0.094 C 
ATOM     18  N   UNL     1      -1.422   3.267  25.413  0.00  0.00    -0.274 N 
ATOM     19  C   UNL     1      -1.736   2.504  25.391  0.00  0.00    +0.103 C 
ATOM     20  C   UNL     1      -1.853   3.970  25.375  0.00  0.00    +0.267 C 
ATOM     21  O   UNL     1      -1.461   4.696  25.403  0.00  0.00    -0.268 OA
BRANCH  20  22
ATOM     22  C   UNL     1      -2.675   3.947  25.309  0.00  0.00    +0.135 A 
ATOM     23  N   UNL     1      -3.028   3.901  24.564  0.00  0.00    -0.239 NA
ATOM     24  C   UNL     1      -3.850   3.877  24.498  0.00  0.00    +0.099 A 
ATOM     25  C   UNL     1      -4.319   3.901  25.177  0.00  0.00    +0.021 A 
ATOM     26  C   UNL     1      -3.966   3.947  25.921  0.00  0.00    +0.003 A 
ATOM     27  C   UNL     1      -3.144   3.970  25.987  0.00  0.00    +0.024 A 
ENDBRANCH  20  22
ENDBRANCH  13  15
BRANCH  10   7
ATOM      4  C   UNL     1      -3.114  -1.984  24.655  0.00  0.00    +0.048 A 
ATOM      5  C   UNL     1      -3.410  -1.362  25.111  0.00  0.00    +0.015 A 
ATOM      6  C   UNL     1      -2.920  -0.731  25.316  0.00  0.00    +0.006 A 
ATOM      7  C   UNL     1      -2.134  -0.721  25.064  0.00  0.00    +0.055 A 
ATOM      8  C   UNL     1      -1.838  -1.341  24.608  0.00  0.00    +0.006 A 
ATOM      9  C   UNL     1      -2.328  -1.973  24.404  0.00  0.00    +0.015 A 
BRANCH   4   2
ATOM      1  C   UNL     1      -3.505  -3.348  24.814  0.00  0.00    +0.112 C 
ATOM      2  N   UNL     1      -3.604  -2.615  24.450  0.00  0.00    -0.304 N 
ATOM      3  C   UNL     1      -4.193  -2.512  23.882  0.00  0.00    +0.112 C 
ENDBRANCH   4   2
ENDBRANCH  10   7
TORSDOF 4
ENDMDL
MODEL 3
REMARK VINA RESULT:     -10.4      1.981      5.713
REMARK  Name = 
REMARK  4 active torsions:
REMARK  status: ('A' for Active; 'I' for Inactive)
REMARK    1  A    between atoms: N_2  and  C_4
REMARK    2  A    between atoms: C_7  and  C_10
REMARK    3  A    between atoms: C_13  and  C_15
REMARK    4  A    between atoms: C_20  and  C_22
REMARK                            x       y       z     vdW  Elec       q    Type
REMARK                         _______ _______ _______ _____ _____    ______ ____
ROOT
ATOM     10  C   UNL     1      -0.602   1.738  24.598  0.00  0.00    +0.250 A 
ATOM     11  N   UNL     1       0.113   1.535  24.241  0.00  0.00    -0.107 NA
ATOM     12  N   UNL     1       0.150   0.712  24.191  0.00  0.00    -0.111 NA
ATOM     13  C   UNL     1      -0.544   0.406  24.517  0.00  0.00    +0.228 A 
ATOM     14  O   UNL     1      -1.008   1.041  24.769  0.00  0.00    -0.419 OA
ENDROOT
BRANCH  13  15
ATOM     15  C   UNL     1      -0.739  -0.392  24.580  0.00  0.00    +0.100 C 
ATOM     16  C   UNL     1      -0.206  -1.017  24.660  0.00  0.00    +0.033 C 
ATOM     17  C   UNL     1      -0.639  -1.718  24.704  0.00  0.00    +0.094 C 
ATOM     18  N   UNL     1      -1.439  -1.527  24.652  0.00  0.00    -0.274 N 
ATOM     19  C   UNL     1      -1.502  -0.707  24.575  0.00  0.00    +0.103 C 
ATOM     20  C   UNL     1      -2.068  -2.061  24.672  0.00  0.00    +0.267 C 
ATOM     21  O   UNL     1      -1.920  -2.869  24.752  0.00  0.00    -0.268 OA
BRANCH  20  22
ATOM     22  C   UNL     1      -2.844  -1.787  24.614  0.00  0.00    +0.135 A 
ATOM     23  N   UNL     1      -3.219  -1.764  23.879  0.00  0.00    -0.239 NA
ATOM     24  C   UNL     1      -3.995  -1.491  23.820  0.00  0.00    +0.099 A 
ATOM     25  C   UNL     1      -4.396  -1.240  24.496  0.00  0.00    +0.021 A 
ATOM     26  C   UNL     1      -4.022  -1.263  25.231  0.00  0.00    +0.003 A 
ATOM     27  C   UNL     1      -3.245  -1.537  25.290  0.00  0.00    +0.024 A 
ENDBRANCH  20  22
ENDBRANCH  13  15
BRANCH  10   7
ATOM      4  C   UNL     1      -1.391   4.035  25.075  0.00  0.00    +0.048 A 
ATOM      5  C   UNL     1      -1.826   3.544  24.573  0.00  0.00    +0.015 A 
ATOM      6  C   UNL     1      -1.563   2.779  24.415  0.00  0.00    +0.006 A 
ATOM      7  C   UNL     1      -0.865   2.504  24.757  0.00  0.00    +0.055 A 
ATOM      8  C   UNL     1      -0.430   2.993  25.258  0.00  0.00    +0.006 A 
ATOM      9  C   UNL     1      -0.693   3.759  25.416  0.00  0.00    +0.015 A 
BRANCH   4   2
ATOM      1  C   UNL     1      -2.365   4.918  25.632  0.00  0.00    +0.112 C 
ATOM      2  N   UNL     1      -1.653   4.801  25.233  0.00  0.00    -0.304 N 
ATOM      3  C   UNL     1      -1.203   5.449  24.992  0.00  0.00    +0.112 C 
ENDBRANCH   4   2
ENDBRANCH  10   7
TORSDOF 4
ENDMDL
MODEL 4
REMARK VINA RESULT:     -10.0      1.624      4.990
REMARK  Name = 
REMARK  4 active torsions:
REMARK  status: ('A' for Active; 'I' for Inactive)
REMARK    1  A    between atoms: N_2  and  C_4
REMARK    2  A    between atoms: C_7  and  C_10
REMARK    3  A    between atoms: C_13  and  C_15
REMARK    4  A    between atoms: C_20  and  C_22
REMARK                            x       y       z     vdW  Elec       q    Type
REMARK                         _______ _______ _______ _____ _____    ______ ____
ROOT
ATOM     10  C   UNL     1      -3.443   2.116  24.882  0.00  0.00    +0.250 A 
ATOM     11  N   UNL     1      -4.264   2.064  24.944  0.00  0.00    -0.107 NA
ATOM     12  N   UNL     1      -4.478   1.272  24.852  0.00  0.00    -0.111 NA
ATOM     13  C   UNL     1      -3.788   0.835  24.732  0.00  0.00    +0.228 A 
ATOM     14  O   UNL     1      -3.149   1.357  24.751  0.00  0.00    -0.419 OA
ENDROOT
BRANCH  13  15
ATOM     15  C   UNL     1      -3.745   0.020  24.614  0.00  0.00    +0.100 C 
ATOM     16  C   UNL     1      -4.376  -0.476  24.424  0.00  0.00    +0.033 C 
ATOM     17  C   UNL     1      -4.085  -1.246  24.358  0.00  0.00    +0.094 C 
ATOM     18  N   UNL     1      -3.274  -1.224  24.508  0.00  0.00    -0.274 N 
ATOM     19  C   UNL     1      -3.064  -0.442  24.666  0.00  0.00    +0.103 C 
ATOM     20  C   UNL     1      -2.762  -1.872  24.500  0.00  0.00    +0.267 C 
ATOM     21  O   UNL     1      -3.054  -2.625  24.332  0.00  0.00    -0.268 OA
BRANCH  20  22
ATOM     22  C   UNL     1      -1.960  -1.766  24.662  0.00  0.00    +0.135 A 
ATOM     23  N   UNL     1      -1.435  -1.596  24.049  0.00  0.00    -0.239 NA
ATOM     24  C   UNL     1      -0.633  -1.489  24.210  0.00  0.00    +0.099 A 
ATOM     25  C   UNL     1      -0.356  -1.554  24.985  0.00  0.00    +0.021 A 
ATOM     26  C   UNL     1      -0.881  -1.724  25.598  0.00  0.00    +0.003 A 
ATOM     27  C   UNL     1      -1.684  -1.830  25.437  0.00  0.00    +0.024 A 
ENDBRANCH  20  22
ENDBRANCH  13  15
BRANCH  10   7
ATOM      4  C   UNL     1      -2.099   4.187  25.059  0.00  0.00    +0.048 A 
ATOM      5  C   UNL     1      -2.799   4.185  24.621  0.00  0.00    +0.015 A 
ATOM      6  C   UNL     1      -3.247   3.495  24.562  0.00  0.00    +0.006 A 
ATOM      7  C   UNL     1      -2.995   2.807  24.941  0.00  0.00    +0.055 A 
ATOM      8  C   UNL     1      -2.297   2.808  25.380  0.00  0.00    +0.006 A 
ATOM      9  C   UNL     1      -1.849   3.499  25.438  0.00  0.00    +0.015 A 
BRANCH   4   2
ATOM      1  C   UNL     1      -2.018   5.591  25.308  0.00  0.00    +0.112 C 
ATOM      2  N   UNL     1      -1.652   4.877  25.118  0.00  0.00    -0.304 N 
ATOM      3  C   UNL     1      -0.837   4.853  24.987  0.00  0.00    +0.112 C 
ENDBRANCH   4   2
ENDBRANCH  10   7
TORSDOF 4
ENDMDL
MODEL 5
REMARK VINA RESULT:      -9.9      1.919      5.125
REMARK  Name = 
REMARK  4 active torsions:
REMARK  status: ('A' for Active; 'I' for Inactive)
REMARK    1  A    between atoms: N_2  and  C_4
REMARK    2  A    between atoms: C_7  and  C_10
REMARK    3  A    between atoms: C_13  and  C_15
REMARK    4  A    between atoms: C_20  and  C_22
REMARK                            x       y       z     vdW  Elec       q    Type
REMARK                         _______ _______ _______ _____ _____    ______ ____
ROOT
ATOM     10  C   UNL     1      -2.584   1.962  24.626  0.00  0.00    +0.250 A 
ATOM     11  N   UNL     1      -1.933   2.217  24.189  0.00  0.00    -0.107 NA
ATOM     12  N   UNL     1      -1.405   1.587  24.125  0.00  0.00    -0.111 NA
ATOM     13  C   UNL     1      -1.729   0.942  24.524  0.00  0.00    +0.228 A 
ATOM     14  O   UNL     1      -2.458   1.174  24.833  0.00  0.00    -0.419 OA
ENDROOT
BRANCH  13  15
ATOM     15  C   UNL     1      -1.386   0.196  24.599  0.00  0.00    +0.100 C 
ATOM     16  C   UNL     1      -0.578   0.037  24.656  0.00  0.00    +0.033 C 
ATOM     17  C   UNL     1      -0.482  -0.780  24.724  0.00  0.00    +0.094 C 
ATOM     18  N   UNL     1      -1.231  -1.126  24.709  0.00  0.00    -0.274 N 
ATOM     19  C   UNL     1      -1.789  -0.523  24.632  0.00  0.00    +0.103 C 
ATOM     20  C   UNL     1      -1.393  -1.933  24.762  0.00  0.00    +0.267 C 
ATOM     21  O   UNL     1      -0.774  -2.474  24.837  0.00  0.00    -0.268 OA
BRANCH  20  22
ATOM     22  C   UNL     1      -2.173  -2.200  24.740  0.00  0.00    +0.135 A 
ATOM     23  N   UNL     1      -2.513  -2.422  24.021  0.00  0.00    -0.239 NA
ATOM     24  C   UNL     1      -3.293  -2.689  23.999  0.00  0.00    +0.099 A 
ATOM     25  C   UNL     1      -3.734  -2.733  24.695  0.00  0.00    +0.021 A 
ATOM     26  C   UNL     1      -3.395  -2.510  25.413  0.00  0.00    +0.003 A 
ATOM     27  C   UNL     1      -2.614  -2.244  25.436  0.00  0.00    +0.024 A 
ENDBRANCH  20  22
ENDBRANCH  13  15
BRANCH  10   7
ATOM      4  C   UNL     1      -4.566   3.323  25.215  0.00  0.00    +0.048 A 
ATOM      5  C   UNL     1      -3.833   3.492  25.555  0.00  0.00    +0.015 A 
ATOM      6  C   UNL     1      -3.172   3.039  25.358  0.00  0.00    +0.006 A 
ATOM      7  C   UNL     1      -3.245   2.416  24.822  0.00  0.00    +0.055 A 
ATOM      8  C   UNL     1      -3.977   2.246  24.483  0.00  0.00    +0.006 A 
ATOM      9  C   UNL     1      -4.637   2.699  24.679  0.00  0.00    +0.015 A 
BRANCH   4   2
ATOM      1  C   UNL     1      -5.222   4.590  25.279  0.00  0.00    +0.112 C 
ATOM      2  N   UNL     1      -5.227   3.776  25.411  0.00  0.00    -0.304 N 
ATOM      3  C   UNL     1      -5.892   3.415  25.739  0.00  0.00    +0.112 C 
ENDBRANCH   4   2
ENDBRANCH  10   7
TORSDOF 4
ENDMDL
MODEL 6
REMARK VINA RESULT:      -9.9      2.050      3.521
REMARK  Name = 
REMARK  4 active torsions:
REMARK  status: ('A' for Active; 'I' for Inactive)
REMARK    1  A    between atoms: N_2  and  C_4
REMARK    2  A    between atoms: C_7  and  C_10
REMARK    3  A    between atoms: C_13  and  C_15
REMARK    4  A    between atoms: C_20  and  C_22
REMARK                            x       y       z     vdW  Elec       q    Type
REMARK                         _______ _______ _______ _____ _____    ______ ____
ROOT
ATOM     10  C   UNL     1      -1.249   1.293  25.284  0.00  0.00    +0.250 A 
ATOM     11  N   UNL     1      -0.679   1.871  25.428  0.00  0.00    -0.107 NA
ATOM     12  N   UNL     1      -1.059   2.603  25.461  0.00  0.00    -0.111 NA
ATOM     13  C   UNL     1      -1.865   2.476  25.338  0.00  0.00    +0.228 A 
ATOM     14  O   UNL     1      -1.982   1.667  25.229  0.00  0.00    -0.419 OA
ENDROOT
BRANCH  13  15
ATOM     15  C   UNL     1      -2.450   3.057  25.326  0.00  0.00    +0.100 C 
ATOM     16  C   UNL     1      -2.325   3.872  25.288  0.00  0.00    +0.033 C 
ATOM     17  C   UNL     1      -3.062   4.244  25.288  0.00  0.00    +0.094 C 
ATOM     18  N   UNL     1      -3.642   3.659  25.326  0.00  0.00    -0.274 N 
ATOM     19  C   UNL     1      -3.265   2.925  25.349  0.00  0.00    +0.103 C 
ATOM     20  C   UNL     1      -4.458   3.785  25.339  0.00  0.00    +0.267 C 
ATOM     21  O   UNL     1      -4.756   4.554  25.312  0.00  0.00    -0.268 OA
BRANCH  20  22
ATOM     22  C   UNL     1      -4.974   3.143  25.378  0.00  0.00    +0.135 A 
ATOM     23  N   UNL     1      -5.316   2.932  26.099  0.00  0.00    -0.239 NA
ATOM     24  C   UNL     1      -5.832   2.289  26.138  0.00  0.00    +0.099 A 
ATOM     25  C   UNL     1      -6.007   1.859  25.456  0.00  0.00    +0.021 A 
ATOM     26  C   UNL     1      -5.665   2.069  24.736  0.00  0.00    +0.003 A 
ATOM     27  C   UNL     1      -5.148   2.712  24.696  0.00  0.00    +0.024 A 
ENDBRANCH  20  22
ENDBRANCH  13  15
BRANCH  10   7
ATOM      4  C   UNL     1      -0.834  -1.137  25.060  0.00  0.00    +0.048 A 
ATOM      5  C   UNL     1      -1.270  -0.850  25.700  0.00  0.00    +0.015 A 
ATOM      6  C   UNL     1      -1.408  -0.040  25.775  0.00  0.00    +0.006 A 
ATOM      7  C   UNL     1      -1.111   0.483  25.210  0.00  0.00    +0.055 A 
ATOM      8  C   UNL     1      -0.676   0.197  24.571  0.00  0.00    +0.006 A 
ATOM      9  C   UNL     1      -0.537  -0.613  24.496  0.00  0.00    +0.015 A 
BRANCH   4   2
ATOM      1  C   UNL     1      -0.003  -2.276  25.289  0.00  0.00    +0.112 C 
ATOM      2  N   UNL     1      -0.695  -1.947  24.986  0.00  0.00    -0.304 N 
ATOM      3  C   UNL     1      -1.250  -2.426  24.607  0.00  0.00    +0.112 C 
ENDBRANCH   4   2
ENDBRANCH  10   7
TORSDOF 4
ENDMDL
MODEL 7
REMARK VINA RESULT:      -9.8      2.455      4.299
REMARK  Name = 
REMARK  4 active torsions:
REMARK  status: ('A' for Active; 'I' for Inactive)
REMARK    1  A    between atoms: N_2  and  C_4
REMARK    2  A    between atoms: C_7  and  C_10
REMARK    3  A    between atoms: C_13  and  C_15
REMARK    4  A    between atoms: C_20  and  C_22
REMARK                            x       y       z     vdW  Elec       q    Type
REMARK                         _______ _______ _______ _____ _____    ______ ____
ROOT
ATOM     10  C   UNL     1      -1.141   0.015  24.559  0.00  0.00    +0.250 A 
ATOM     11  N   UNL     1      -1.201  -0.241  25.341  0.00  0.00    -0.107 NA
ATOM     12  N   UNL     1      -1.987  -0.157  25.578  0.00  0.00    -0.111 NA
ATOM     13  C   UNL     1      -2.413   0.151  24.942  0.00  0.00    +0.228 A 
ATOM     14  O   UNL     1      -1.890   0.257  24.312  0.00  0.00    -0.419 OA
ENDROOT
BRANCH  13  15
ATOM     15  C   UNL     1      -3.220   0.322  24.935  0.00  0.00    +0.100 C 
ATOM     16  C   UNL     1      -3.833  -0.230  24.930  0.00  0.00    +0.033 C 
ATOM     17  C   UNL     1      -4.548   0.183  24.924  0.00  0.00    +0.094 C 
ATOM     18  N   UNL     1      -4.376   0.989  24.926  0.00  0.00    -0.274 N 
ATOM     19  C   UNL     1      -3.555   1.076  24.933  0.00  0.00    +0.103 C 
ATOM     20  C   UNL     1      -4.928   1.603  24.922  0.00  0.00    +0.267 C 
ATOM     21  O   UNL     1      -5.735   1.431  24.916  0.00  0.00    -0.268 OA
BRANCH  20  22
ATOM     22  C   UNL     1      -4.674   2.387  24.925  0.00  0.00    +0.135 A 
ATOM     23  N   UNL     1      -4.626   2.803  25.636  0.00  0.00    -0.239 NA
ATOM     24  C   UNL     1      -4.372   3.588  25.639  0.00  0.00    +0.099 A 
ATOM     25  C   UNL     1      -4.164   3.957  24.931  0.00  0.00    +0.021 A 
ATOM     26  C   UNL     1      -4.211   3.541  24.220  0.00  0.00    +0.003 A 
ATOM     27  C   UNL     1      -4.466   2.756  24.217  0.00  0.00    +0.024 A 
ENDBRANCH  20  22
ENDBRANCH  13  15
BRANCH  10   7
ATOM      4  C   UNL     1       0.924   0.050  23.195  0.00  0.00    +0.048 A 
ATOM      5  C   UNL     1       0.554  -0.668  23.366  0.00  0.00    +0.015 A 
ATOM      6  C   UNL     1      -0.134  -0.680  23.821  0.00  0.00    +0.006 A 
ATOM      7  C   UNL     1      -0.453   0.027  24.104  0.00  0.00    +0.055 A 
ATOM      8  C   UNL     1      -0.084   0.744  23.933  0.00  0.00    +0.006 A 
ATOM      9  C   UNL     1       0.604   0.755  23.479  0.00  0.00    +0.015 A 
BRANCH   4   2
ATOM      1  C   UNL     1       1.618  -0.287  21.993  0.00  0.00    +0.112 C 
ATOM      2  N   UNL     1       1.612   0.061  22.740  0.00  0.00    -0.304 N 
ATOM      3  C   UNL     1       2.294   0.422  23.034  0.00  0.00    +0.112 C 
ENDBRANCH   4   2
ENDBRANCH  10   7
TORSDOF 4
ENDMDL
