MODEL 1
REMARK VINA RESULT:      -8.8      0.000      0.000
REMARK  Name = 
REMARK  10 active torsions:
REMARK  status: ('A' for Active; 'I' for Inactive)
REMARK    1  A    between atoms: C_2  and  C_4
REMARK    2  A    between atoms: C_6  and  C_7
REMARK    3  A    between atoms: C_7  and  C_8
REMARK    4  A    between atoms: N_10  and  C_11
REMARK    5  A    between atoms: C_11  and  C_12
REMARK    6  A    between atoms: C_15  and  C_18
REMARK    7  A    between atoms: C_23  and  C_24
REMARK    8  A    between atoms: C_24  and  N_25
REMARK    9  A    between atoms: N_25  and  S_26
REMARK   10  A    between atoms: S_26  and  C_29
REMARK                            x       y       z     vdW  Elec       q    Type
REMARK                         _______ _______ _______ _____ _____    ______ ____
ROOT
ATOM      4  C   UNL     1      -1.139   0.556  24.481  0.00  0.00    +0.006 C 
ATOM      5  C   UNL     1      -1.868   0.336  24.802  0.00  0.00    +0.005 C 
ATOM      6  C   UNL     1      -2.085  -0.460  24.822  0.00  0.00    +0.027 C 
ATOM     20  C   UNL     1      -1.576  -1.035  24.521  0.00  0.00    -0.048 C 
ATOM     21  C   UNL     1      -1.794  -1.829  24.541  0.00  0.00    +0.026 C 
ATOM     22  C   UNL     1      -0.849  -0.815  24.201  0.00  0.00    -0.033 C 
ATOM     23  C   UNL     1      -0.630  -0.019  24.180  0.00  0.00    +0.041 C 
ENDROOT
BRANCH   4   2
ATOM      1  C   UNL     1      -0.519   1.684  25.101  0.00  0.00    +0.000 C 
ATOM      2  C   UNL     1      -0.922   1.351  24.462  0.00  0.00    +0.000 C 
ATOM      3  C   UNL     1      -1.105   1.813  23.804  0.00  0.00    +0.000 C 
ENDBRANCH   4   2
BRANCH   6   7
ATOM      7  C   UNL     1      -2.813  -0.679  25.142  0.00  0.00    +0.091 C 
BRANCH   7   8
ATOM      8  C   UNL     1      -3.513  -0.399  24.806  0.00  0.00    +0.242 C 
ATOM      9  O   UNL     1      -3.822  -0.763  24.133  0.00  0.00    -0.273 OA
ATOM     10  N   UNL     1      -3.904   0.246  25.143  0.00  0.00    -0.201 NA
BRANCH  10  11
ATOM     11  C   UNL     1      -4.603   0.525  24.807  0.00  0.00    +0.141 C 
BRANCH  11  12
ATOM     12  C   UNL     1      -4.876   1.280  24.994  0.00  0.00    -0.001 A 
ATOM     13  C   UNL     1      -5.400   1.386  25.622  0.00  0.00    -0.002 A 
ATOM     14  C   UNL     1      -5.673   2.142  25.809  0.00  0.00    +0.010 A 
ATOM     15  C   UNL     1      -5.422   2.792  25.367  0.00  0.00    +0.068 A 
ATOM     16  C   UNL     1      -4.899   2.686  24.739  0.00  0.00    +0.010 A 
ATOM     17  C   UNL     1      -4.625   1.931  24.552  0.00  0.00    -0.002 A 
BRANCH  15  18
ATOM     18  C   UNL     1      -5.695   3.548  25.554  0.00  0.00    +0.100 C 
ATOM     19  N   UNL     1      -5.968   4.304  25.742  0.00  0.00    -0.191 NA
ENDBRANCH  15  18
ENDBRANCH  11  12
ENDBRANCH  10  11
ENDBRANCH   7   8
ENDBRANCH   6   7
BRANCH  23  24
ATOM     24  C   UNL     1       0.097   0.201  23.860  0.00  0.00    +0.120 C 
BRANCH  24  25
ATOM     25  N   UNL     1       0.520  -0.332  23.394  0.00  0.00    -0.077 NA
BRANCH  25  26
ATOM     26  S   UNL     1       1.262  -0.123  23.097  0.00  0.00    +0.083 S 
ATOM     27  O   UNL     1       1.614  -0.377  23.798  0.00  0.00    -0.151 OA
ATOM     28  O   UNL     1       0.909   0.132  22.395  0.00  0.00    -0.151 OA
BRANCH  26  29
ATOM     29  C   UNL     1       2.002   0.086  22.802  0.00  0.00    +0.153 A 
ATOM     30  C   UNL     1       2.511   0.652  23.122  0.00  0.00    +0.027 A 
ATOM     31  C   UNL     1       3.187   0.682  22.652  0.00  0.00    +0.009 A 
ATOM     32  C   UNL     1       3.099   0.135  22.041  0.00  0.00    +0.037 A 
ATOM     33  S   UNL     1       2.366  -0.233  22.133  0.00  0.00    -0.067 S 
ENDBRANCH  26  29
ENDBRANCH  25  26
ENDBRANCH  24  25
ENDBRANCH  23  24
TORSDOF 10
ENDMDL
MODEL 2
REMARK VINA RESULT:      -8.8      3.108      5.071
REMARK  Name = 
REMARK  10 active torsions:
REMARK  status: ('A' for Active; 'I' for Inactive)
REMARK    1  A    between atoms: C_2  and  C_4
REMARK    2  A    between atoms: C_6  and  C_7
REMARK    3  A    between atoms: C_7  and  C_8
REMARK    4  A    between atoms: N_10  and  C_11
REMARK    5  A    between atoms: C_11  and  C_12
REMARK    6  A    between atoms: C_15  and  C_18
REMARK    7  A    between atoms: C_23  and  C_24
REMARK    8  A    between atoms: C_24  and  N_25
REMARK    9  A    between atoms: N_25  and  S_26
REMARK   10  A    between atoms: S_26  and  C_29
REMARK                            x       y       z     vdW  Elec       q    Type
REMARK                         _______ _______ _______ _____ _____    ______ ____
ROOT
ATOM      4  C   UNL     1      -3.658   1.438  23.841  0.00  0.00    +0.006 C 
ATOM      5  C   UNL     1      -3.791   2.240  23.984  0.00  0.00    +0.005 C 
ATOM      6  C   UNL     1      -4.400   2.473  24.488  0.00  0.00    +0.027 C 
ATOM     20  C   UNL     1      -4.877   1.905  24.850  0.00  0.00    -0.048 C 
ATOM     21  C   UNL     1      -5.486   2.138  25.354  0.00  0.00    +0.026 C 
ATOM     22  C   UNL     1      -4.744   1.104  24.707  0.00  0.00    -0.033 C 
ATOM     23  C   UNL     1      -4.134   0.870  24.202  0.00  0.00    +0.041 C 
ENDROOT
BRANCH   4   2
ATOM      1  C   UNL     1      -3.173   1.188  22.520  0.00  0.00    +0.000 C 
ATOM      2  C   UNL     1      -3.048   1.205  23.336  0.00  0.00    +0.000 C 
ATOM      3  C   UNL     1      -2.316   0.988  23.646  0.00  0.00    +0.000 C 
ENDBRANCH   4   2
BRANCH   6   7
ATOM      7  C   UNL     1      -4.532   3.274  24.631  0.00  0.00    +0.091 C 
BRANCH   7   8
ATOM      8  C   UNL     1      -3.892   3.790  24.711  0.00  0.00    +0.242 C 
ATOM      9  O   UNL     1      -3.768   4.384  24.153  0.00  0.00    -0.273 OA
ATOM     10  N   UNL     1      -3.376   3.710  25.351  0.00  0.00    -0.201 NA
BRANCH  10  11
ATOM     11  C   UNL     1      -2.737   4.225  25.431  0.00  0.00    +0.141 C 
BRANCH  11  12
ATOM     12  C   UNL     1      -1.995   3.931  25.640  0.00  0.00    -0.001 A 
ATOM     13  C   UNL     1      -1.335   4.115  25.182  0.00  0.00    -0.002 A 
ATOM     14  C   UNL     1      -0.593   3.820  25.391  0.00  0.00    +0.010 A 
ATOM     15  C   UNL     1      -0.513   3.341  26.058  0.00  0.00    +0.068 A 
ATOM     16  C   UNL     1      -1.173   3.157  26.515  0.00  0.00    +0.010 A 
ATOM     17  C   UNL     1      -1.915   3.451  26.307  0.00  0.00    -0.002 A 
BRANCH  15  18
ATOM     18  C   UNL     1       0.230   3.046  26.267  0.00  0.00    +0.100 C 
ATOM     19  N   UNL     1       0.971   2.751  26.476  0.00  0.00    -0.191 NA
ENDBRANCH  15  18
ENDBRANCH  11  12
ENDBRANCH  10  11
ENDBRANCH   7   8
ENDBRANCH   6   7
BRANCH  23  24
ATOM     24  C   UNL     1      -4.002   0.069  24.059  0.00  0.00    +0.120 C 
BRANCH  24  25
ATOM     25  N   UNL     1      -4.365  -0.501  24.533  0.00  0.00    -0.077 NA
BRANCH  25  26
ATOM     26  S   UNL     1      -4.119  -1.288  24.496  0.00  0.00    +0.083 S 
ATOM     27  O   UNL     1      -4.551  -1.390  23.802  0.00  0.00    -0.151 OA
ATOM     28  O   UNL     1      -3.685  -1.185  25.191  0.00  0.00    -0.151 OA
BRANCH  26  29
ATOM     29  C   UNL     1      -3.872  -2.074  24.459  0.00  0.00    +0.153 A 
ATOM     30  C   UNL     1      -4.072  -2.618  23.871  0.00  0.00    +0.027 A 
ATOM     31  C   UNL     1      -3.707  -3.334  24.051  0.00  0.00    +0.009 A 
ATOM     32  C   UNL     1      -3.280  -3.234  24.750  0.00  0.00    +0.037 A 
ATOM     33  S   UNL     1      -3.383  -2.455  25.002  0.00  0.00    -0.067 S 
ENDBRANCH  26  29
ENDBRANCH  25  26
ENDBRANCH  24  25
ENDBRANCH  23  24
TORSDOF 10
ENDMDL
MODEL 3
REMARK VINA RESULT:      -8.6      2.203      6.639
REMARK  Name = 
REMARK  10 active torsions:
REMARK  status: ('A' for Active; 'I' for Inactive)
REMARK    1  A    between atoms: C_2  and  C_4
REMARK    2  A    between atoms: C_6  and  C_7
REMARK    3  A    between atoms: C_7  and  C_8
REMARK    4  A    between atoms: N_10  and  C_11
REMARK    5  A    between atoms: C_11  and  C_12
REMARK    6  A    between atoms: C_15  and  C_18
REMARK    7  A    between atoms: C_23  and  C_24
REMARK    8  A    between atoms: C_24  and  N_25
REMARK    9  A    between atoms: N_25  and  S_26
REMARK   10  A    between atoms: S_26  and  C_29
REMARK                            x       y       z     vdW  Elec       q    Type
REMARK                         _______ _______ _______ _____ _____    ______ ____
ROOT
ATOM      4  C   UNL     1      -0.892   1.584  24.401  0.00  0.00    +0.006 C 
ATOM      5  C   UNL     1      -0.284   1.059  24.212  0.00  0.00    +0.005 C 
ATOM      6  C   UNL     1      -0.453   0.262  24.085  0.00  0.00    +0.027 C 
ATOM     20  C   UNL     1      -1.229  -0.011  24.147  0.00  0.00    -0.048 C 
ATOM     21  C   UNL     1      -1.398  -0.807  24.020  0.00  0.00    +0.026 C 
ATOM     22  C   UNL     1      -1.836   0.514  24.336  0.00  0.00    -0.033 C 
ATOM     23  C   UNL     1      -1.668   1.312  24.464  0.00  0.00    +0.041 C 
ENDROOT
BRANCH   4   2
ATOM      1  C   UNL     1      -0.755   2.915  23.899  0.00  0.00    +0.000 C 
ATOM      2  C   UNL     1      -0.722   2.382  24.528  0.00  0.00    +0.000 C 
ATOM      3  C   UNL     1      -0.521   2.646  25.283  0.00  0.00    +0.000 C 
ENDBRANCH   4   2
BRANCH   6   7
ATOM      7  C   UNL     1       0.155  -0.263  23.895  0.00  0.00    +0.091 C 
BRANCH   7   8
ATOM      8  C   UNL     1       0.661  -0.096  23.264  0.00  0.00    +0.242 C 
ATOM      9  O   UNL     1       0.354   0.019  22.508  0.00  0.00    -0.273 OA
ATOM     10  N   UNL     1       1.475  -0.046  23.391  0.00  0.00    -0.201 NA
BRANCH  10  11
ATOM     11  C   UNL     1       1.981   0.121  22.761  0.00  0.00    +0.141 C 
BRANCH  11  12
ATOM     12  C   UNL     1       2.796   0.144  22.883  0.00  0.00    -0.001 A 
ATOM     13  C   UNL     1       3.193  -0.528  23.148  0.00  0.00    -0.002 A 
ATOM     14  C   UNL     1       4.009  -0.505  23.270  0.00  0.00    +0.010 A 
ATOM     15  C   UNL     1       4.427   0.192  23.126  0.00  0.00    +0.068 A 
ATOM     16  C   UNL     1       4.031   0.863  22.861  0.00  0.00    +0.010 A 
ATOM     17  C   UNL     1       3.215   0.840  22.739  0.00  0.00    -0.002 A 
BRANCH  15  18
ATOM     18  C   UNL     1       5.244   0.215  23.248  0.00  0.00    +0.100 C 
ATOM     19  N   UNL     1       6.059   0.239  23.369  0.00  0.00    -0.191 NA
ENDBRANCH  15  18
ENDBRANCH  11  12
ENDBRANCH  10  11
ENDBRANCH   7   8
ENDBRANCH   6   7
BRANCH  23  24
ATOM     24  C   UNL     1      -2.275   1.837  24.653  0.00  0.00    +0.120 C 
BRANCH  24  25
ATOM     25  N   UNL     1      -3.061   1.588  24.618  0.00  0.00    -0.077 NA
BRANCH  25  26
ATOM     26  S   UNL     1      -3.666   2.100  24.850  0.00  0.00    +0.083 S 
ATOM     27  O   UNL     1      -3.572   1.856  25.632  0.00  0.00    -0.151 OA
ATOM     28  O   UNL     1      -3.761   2.343  24.066  0.00  0.00    -0.151 OA
BRANCH  26  29
ATOM     29  C   UNL     1      -4.271   2.610  25.082  0.00  0.00    +0.153 A 
ATOM     30  C   UNL     1      -4.199   3.423  25.206  0.00  0.00    +0.027 A 
ATOM     31  C   UNL     1      -4.937   3.713  25.431  0.00  0.00    +0.009 A 
ATOM     32  C   UNL     1      -5.466   3.080  25.446  0.00  0.00    +0.037 A 
ATOM     33  S   UNL     1      -5.054   2.399  25.230  0.00  0.00    -0.067 S 
ENDBRANCH  26  29
ENDBRANCH  25  26
ENDBRANCH  24  25
ENDBRANCH  23  24
TORSDOF 10
ENDMDL
MODEL 4
REMARK VINA RESULT:      -8.3      2.974      4.941
REMARK  Name = 
REMARK  10 active torsions:
REMARK  status: ('A' for Active; 'I' for Inactive)
REMARK    1  A    between atoms: C_2  and  C_4
REMARK    2  A    between atoms: C_6  and  C_7
REMARK    3  A    between atoms: C_7  and  C_8
REMARK    4  A    between atoms: N_10  and  C_11
REMARK    5  A    between atoms: C_11  and  C_12
REMARK    6  A    between atoms: C_15  and  C_18
REMARK    7  A    between atoms: C_23  and  C_24
REMARK    8  A    between atoms: C_24  and  N_25
REMARK    9  A    between atoms: N_25  and  S_26
REMARK   10  A    between atoms: S_26  and  C_29
REMARK                            x       y       z     vdW  Elec       q    Type
REMARK                         _______ _______ _______ _____ _____    ______ ____
ROOT
ATOM      4  C   UNL     1      -3.300   1.435  23.787  0.00  0.00    +0.006 C 
ATOM      5  C   UNL     1      -3.743   0.738  23.809  0.00  0.00    +0.005 C 
ATOM      6  C   UNL     1      -4.303   0.625  24.403  0.00  0.00    +0.027 C 
ATOM     20  C   UNL     1      -4.422   1.207  24.976  0.00  0.00    -0.048 C 
ATOM     21  C   UNL     1      -4.982   1.092  25.569  0.00  0.00    +0.026 C 
ATOM     22  C   UNL     1      -3.979   1.902  24.954  0.00  0.00    -0.033 C 
ATOM     23  C   UNL     1      -3.418   2.017  24.360  0.00  0.00    +0.041 C 
ENDROOT
BRANCH   4   2
ATOM      1  C   UNL     1      -1.968   1.271  23.295  0.00  0.00    +0.000 C 
ATOM      2  C   UNL     1      -2.739   1.549  23.193  0.00  0.00    +0.000 C 
ATOM      3  C   UNL     1      -2.948   1.939  22.498  0.00  0.00    +0.000 C 
ENDBRANCH   4   2
BRANCH   6   7
ATOM      7  C   UNL     1      -4.745  -0.071  24.424  0.00  0.00    +0.091 C 
BRANCH   7   8
ATOM      8  C   UNL     1      -4.382  -0.795  24.263  0.00  0.00    +0.242 C 
ATOM      9  O   UNL     1      -4.520  -1.176  23.545  0.00  0.00    -0.273 OA
ATOM     10  N   UNL     1      -3.879  -1.137  24.822  0.00  0.00    -0.201 NA
BRANCH  10  11
ATOM     11  C   UNL     1      -3.517  -1.861  24.661  0.00  0.00    +0.141 C 
BRANCH  11  12
ATOM     12  C   UNL     1      -2.717  -1.966  24.832  0.00  0.00    -0.001 A 
ATOM     13  C   UNL     1      -2.401  -1.670  25.533  0.00  0.00    -0.002 A 
ATOM     14  C   UNL     1      -1.600  -1.776  25.703  0.00  0.00    +0.010 A 
ATOM     15  C   UNL     1      -1.116  -2.178  25.170  0.00  0.00    +0.068 A 
ATOM     16  C   UNL     1      -1.431  -2.474  24.469  0.00  0.00    +0.010 A 
ATOM     17  C   UNL     1      -2.231  -2.369  24.299  0.00  0.00    -0.002 A 
BRANCH  15  18
ATOM     18  C   UNL     1      -0.315  -2.284  25.341  0.00  0.00    +0.100 C 
ATOM     19  N   UNL     1       0.485  -2.390  25.510  0.00  0.00    -0.191 NA
ENDBRANCH  15  18
ENDBRANCH  11  12
ENDBRANCH  10  11
ENDBRANCH   7   8
ENDBRANCH   6   7
BRANCH  23  24
ATOM     24  C   UNL     1      -2.976   2.712  24.339  0.00  0.00    +0.120 C 
BRANCH  24  25
ATOM     25  N   UNL     1      -2.927   3.190  25.009  0.00  0.00    -0.077 NA
BRANCH  25  26
ATOM     26  S   UNL     1      -2.396   3.823  25.027  0.00  0.00    +0.083 S 
ATOM     27  O   UNL     1      -2.933   4.284  24.605  0.00  0.00    -0.151 OA
ATOM     28  O   UNL     1      -1.859   3.360  25.451  0.00  0.00    -0.151 OA
BRANCH  26  29
ATOM     29  C   UNL     1      -1.867   4.455  25.045  0.00  0.00    +0.153 A 
ATOM     30  C   UNL     1      -2.066   5.254  25.100  0.00  0.00    +0.027 A 
ATOM     31  C   UNL     1      -1.368   5.691  25.100  0.00  0.00    +0.009 A 
ATOM     32  C   UNL     1      -0.736   5.164  25.045  0.00  0.00    +0.037 A 
ATOM     33  S   UNL     1      -1.044   4.400  25.012  0.00  0.00    -0.067 S 
ENDBRANCH  26  29
ENDBRANCH  25  26
ENDBRANCH  24  25
ENDBRANCH  23  24
TORSDOF 10
ENDMDL
MODEL 5
REMARK VINA RESULT:      -8.2      2.211      3.792
REMARK  Name = 
REMARK  10 active torsions:
REMARK  status: ('A' for Active; 'I' for Inactive)
REMARK    1  A    between atoms: C_2  and  C_4
REMARK    2  A    between atoms: C_6  and  C_7
REMARK    3  A    between atoms: C_7  and  C_8
REMARK    4  A    between atoms: N_10  and  C_11
REMARK    5  A    between atoms: C_11  and  C_12
REMARK    6  A    between atoms: C_15  and  C_18
REMARK    7  A    between atoms: C_23  and  C_24
REMARK    8  A    between atoms: C_24  and  N_25
REMARK    9  A    between atoms: N_25  and  S_26
REMARK   10  A    between atoms: S_26  and  C_29
REMARK                            x       y       z     vdW  Elec       q    Type
REMARK                         _______ _______ _______ _____ _____    ______ ____
ROOT
ATOM      4  C   UNL     1      -0.748   1.423  24.276  0.00  0.00    +0.006 C 
ATOM      5  C   UNL     1      -0.581   2.209  24.468  0.00  0.00    +0.005 C 
ATOM      6  C   UNL     1      -0.416   2.415  25.249  0.00  0.00    +0.027 C 
ATOM     20  C   UNL     1      -0.416   1.837  25.838  0.00  0.00    -0.048 C 
ATOM     21  C   UNL     1      -0.250   2.044  26.619  0.00  0.00    +0.026 C 
ATOM     22  C   UNL     1      -0.582   1.053  25.646  0.00  0.00    -0.033 C 
ATOM     23  C   UNL     1      -0.749   0.845  24.865  0.00  0.00    +0.041 C 
ENDROOT
BRANCH   4   2
ATOM      1  C   UNL     1      -1.673   1.330  23.191  0.00  0.00    +0.000 C 
ATOM      2  C   UNL     1      -0.914   1.217  23.495  0.00  0.00    +0.000 C 
ATOM      3  C   UNL     1      -0.323   0.898  23.017  0.00  0.00    +0.000 C 
ENDBRANCH   4   2
BRANCH   6   7
ATOM      7  C   UNL     1      -0.249   3.199  25.441  0.00  0.00    +0.091 C 
BRANCH   7   8
ATOM      8  C   UNL     1      -0.795   3.792  25.262  0.00  0.00    +0.242 C 
ATOM      9  O   UNL     1      -0.588   4.402  24.746  0.00  0.00    -0.273 OA
ATOM     10  N   UNL     1      -1.549   3.775  25.599  0.00  0.00    -0.201 NA
BRANCH  10  11
ATOM     11  C   UNL     1      -2.094   4.367  25.420  0.00  0.00    +0.141 C 
BRANCH  11  12
ATOM     12  C   UNL     1      -2.902   4.212  25.473  0.00  0.00    -0.001 A 
ATOM     13  C   UNL     1      -3.263   4.152  26.211  0.00  0.00    -0.002 A 
ATOM     14  C   UNL     1      -4.072   3.997  26.264  0.00  0.00    +0.010 A 
ATOM     15  C   UNL     1      -4.519   3.902  25.578  0.00  0.00    +0.068 A 
ATOM     16  C   UNL     1      -4.158   3.962  24.839  0.00  0.00    +0.010 A 
ATOM     17  C   UNL     1      -3.350   4.117  24.786  0.00  0.00    -0.002 A 
BRANCH  15  18
ATOM     18  C   UNL     1      -5.328   3.746  25.631  0.00  0.00    +0.100 C 
ATOM     19  N   UNL     1      -6.137   3.591  25.684  0.00  0.00    -0.191 NA
ENDBRANCH  15  18
ENDBRANCH  11  12
ENDBRANCH  10  11
ENDBRANCH   7   8
ENDBRANCH   6   7
BRANCH  23  24
ATOM     24  C   UNL     1      -0.915   0.061  24.672  0.00  0.00    +0.120 C 
BRANCH  24  25
ATOM     25  N   UNL     1      -1.114  -0.476  25.266  0.00  0.00    -0.077 NA
BRANCH  25  26
ATOM     26  S   UNL     1      -1.574  -1.138  25.087  0.00  0.00    +0.083 S 
ATOM     27  O   UNL     1      -2.227  -0.778  25.438  0.00  0.00    -0.151 OA
ATOM     28  O   UNL     1      -0.919  -1.498  24.736  0.00  0.00    -0.151 OA
BRANCH  26  29
ATOM     29  C   UNL     1      -2.033  -1.799  24.909  0.00  0.00    +0.153 A 
ATOM     30  C   UNL     1      -2.836  -1.892  25.077  0.00  0.00    +0.027 A 
ATOM     31  C   UNL     1      -3.070  -2.633  24.803  0.00  0.00    +0.009 A 
ATOM     32  C   UNL     1      -2.413  -3.000  24.465  0.00  0.00    +0.037 A 
ATOM     33  S   UNL     1      -1.772  -2.484  24.531  0.00  0.00    -0.067 S 
ENDBRANCH  26  29
ENDBRANCH  25  26
ENDBRANCH  24  25
ENDBRANCH  23  24
TORSDOF 10
ENDMDL
MODEL 6
REMARK VINA RESULT:      -7.8      2.591      5.675
REMARK  Name = 
REMARK  10 active torsions:
REMARK  status: ('A' for Active; 'I' for Inactive)
REMARK    1  A    between atoms: C_2  and  C_4
REMARK    2  A    between atoms: C_6  and  C_7
REMARK    3  A    between atoms: C_7  and  C_8
REMARK    4  A    between atoms: N_10  and  C_11
REMARK    5  A    between atoms: C_11  and  C_12
REMARK    6  A    between atoms: C_15  and  C_18
REMARK    7  A    between atoms: C_23  and  C_24
REMARK    8  A    between atoms: C_24  and  N_25
REMARK    9  A    between atoms: N_25  and  S_26
REMARK   10  A    between atoms: S_26  and  C_29
REMARK                            x       y       z     vdW  Elec       q    Type
REMARK                         _______ _______ _______ _____ _____    ______ ____
ROOT
ATOM      4  C   UNL     1      -2.007   1.951  23.714  0.00  0.00    +0.006 C 
ATOM      5  C   UNL     1      -1.282   1.558  23.669  0.00  0.00    +0.005 C 
ATOM      6  C   UNL     1      -0.723   1.656  24.267  0.00  0.00    +0.027 C 
ATOM     20  C   UNL     1      -0.888   2.146  24.910  0.00  0.00    -0.048 C 
ATOM     21  C   UNL     1      -0.329   2.244  25.508  0.00  0.00    +0.026 C 
ATOM     22  C   UNL     1      -1.612   2.538  24.955  0.00  0.00    -0.033 C 
ATOM     23  C   UNL     1      -2.172   2.440  24.357  0.00  0.00    +0.041 C 
ENDROOT
BRANCH   4   2
ATOM      1  C   UNL     1      -2.565   2.359  22.462  0.00  0.00    +0.000 C 
ATOM      2  C   UNL     1      -2.566   1.853  23.115  0.00  0.00    +0.000 C 
ATOM      3  C   UNL     1      -3.126   1.250  23.168  0.00  0.00    +0.000 C 
ENDBRANCH   4   2
BRANCH   6   7
ATOM      7  C   UNL     1       0.001   1.264  24.222  0.00  0.00    +0.091 C 
BRANCH   7   8
ATOM      8  C   UNL     1       0.024   0.460  24.035  0.00  0.00    +0.242 C 
ATOM      9  O   UNL     1       0.385   0.209  23.337  0.00  0.00    -0.273 OA
ATOM     10  N   UNL     1      -0.316  -0.092  24.546  0.00  0.00    -0.201 NA
BRANCH  10  11
ATOM     11  C   UNL     1      -0.293  -0.895  24.359  0.00  0.00    +0.141 C 
BRANCH  11  12
ATOM     12  C   UNL     1      -0.951  -1.370  24.508  0.00  0.00    -0.001 A 
ATOM     13  C   UNL     1      -1.245  -1.863  23.917  0.00  0.00    -0.002 A 
ATOM     14  C   UNL     1      -1.903  -2.339  24.066  0.00  0.00    +0.010 A 
ATOM     15  C   UNL     1      -2.265  -2.321  24.807  0.00  0.00    +0.068 A 
ATOM     16  C   UNL     1      -1.971  -1.828  25.398  0.00  0.00    +0.010 A 
ATOM     17  C   UNL     1      -1.314  -1.352  25.249  0.00  0.00    -0.002 A 
BRANCH  15  18
ATOM     18  C   UNL     1      -2.923  -2.797  24.956  0.00  0.00    +0.100 C 
ATOM     19  N   UNL     1      -3.581  -3.272  25.105  0.00  0.00    -0.191 NA
ENDBRANCH  15  18
ENDBRANCH  11  12
ENDBRANCH  10  11
ENDBRANCH   7   8
ENDBRANCH   6   7
BRANCH  23  24
ATOM     24  C   UNL     1      -2.897   2.832  24.401  0.00  0.00    +0.120 C 
BRANCH  24  25
ATOM     25  N   UNL     1      -3.116   3.214  25.098  0.00  0.00    -0.077 NA
BRANCH  25  26
ATOM     26  S   UNL     1      -3.910   3.391  25.240  0.00  0.00    +0.083 S 
ATOM     27  O   UNL     1      -3.986   2.698  25.679  0.00  0.00    -0.151 OA
ATOM     28  O   UNL     1      -3.834   4.085  24.800  0.00  0.00    -0.151 OA
BRANCH  26  29
ATOM     29  C   UNL     1      -4.703   3.567  25.382  0.00  0.00    +0.153 A 
ATOM     30  C   UNL     1      -5.069   4.296  25.255  0.00  0.00    +0.027 A 
ATOM     31  C   UNL     1      -5.861   4.225  25.469  0.00  0.00    +0.009 A 
ATOM     32  C   UNL     1      -5.987   3.452  25.730  0.00  0.00    +0.037 A 
ATOM     33  S   UNL     1      -5.271   3.046  25.675  0.00  0.00    -0.067 S 
ENDBRANCH  26  29
ENDBRANCH  25  26
ENDBRANCH  24  25
ENDBRANCH  23  24
TORSDOF 10
ENDMDL
MODEL 7
REMARK VINA RESULT:      -7.2      1.662      2.975
REMARK  Name = 
REMARK  10 active torsions:
REMARK  status: ('A' for Active; 'I' for Inactive)
REMARK    1  A    between atoms: C_2  and  C_4
REMARK    2  A    between atoms: C_6  and  C_7
REMARK    3  A    between atoms: C_7  and  C_8
REMARK    4  A    between atoms: N_10  and  C_11
REMARK    5  A    between atoms: C_11  and  C_12
REMARK    6  A    between atoms: C_15  and  C_18
REMARK    7  A    between atoms: C_23  and  C_24
REMARK    8  A    between atoms: C_24  and  N_25
REMARK    9  A    between atoms: N_25  and  S_26
REMARK   10  A    between atoms: S_26  and  C_29
REMARK                            x       y       z     vdW  Elec       q    Type
REMARK                         _______ _______ _______ _____ _____    ______ ____
ROOT
ATOM      4  C   UNL     1      -1.012   1.599  24.816  0.00  0.00    +0.006 C 
ATOM      5  C   UNL     1      -1.808   1.801  24.900  0.00  0.00    +0.005 C 
ATOM      6  C   UNL     1      -2.264   1.960  24.231  0.00  0.00    +0.027 C 
ATOM     20  C   UNL     1      -1.926   1.916  23.480  0.00  0.00    -0.048 C 
ATOM     21  C   UNL     1      -2.384   2.075  22.813  0.00  0.00    +0.026 C 
ATOM     22  C   UNL     1      -1.132   1.714  23.397  0.00  0.00    -0.033 C 
ATOM     23  C   UNL     1      -0.674   1.555  24.065  0.00  0.00    +0.041 C 
ENDROOT
BRANCH   4   2
ATOM      1  C   UNL     1      -0.124   2.046  25.843  0.00  0.00    +0.000 C 
ATOM      2  C   UNL     1      -0.555   1.440  25.484  0.00  0.00    +0.000 C 
ATOM      3  C   UNL     1      -0.528   0.677  25.794  0.00  0.00    +0.000 C 
ENDBRANCH   4   2
BRANCH   6   7
ATOM      7  C   UNL     1      -3.060   2.162  24.315  0.00  0.00    +0.091 C 
BRANCH   7   8
ATOM      8  C   UNL     1      -3.579   1.644  24.693  0.00  0.00    +0.242 C 
ATOM      9  O   UNL     1      -3.981   1.884  25.372  0.00  0.00    -0.273 OA
ATOM     10  N   UNL     1      -3.697   0.884  24.391  0.00  0.00    -0.201 NA
BRANCH  10  11
ATOM     11  C   UNL     1      -4.216   0.366  24.768  0.00  0.00    +0.141 C 
BRANCH  11  12
ATOM     12  C   UNL     1      -4.112  -0.448  24.692  0.00  0.00    -0.001 A 
ATOM     13  C   UNL     1      -3.801  -0.885  25.317  0.00  0.00    -0.002 A 
ATOM     14  C   UNL     1      -3.697  -1.701  25.240  0.00  0.00    +0.010 A 
ATOM     15  C   UNL     1      -3.906  -2.078  24.537  0.00  0.00    +0.068 A 
ATOM     16  C   UNL     1      -4.217  -1.641  23.911  0.00  0.00    +0.010 A 
ATOM     17  C   UNL     1      -4.320  -0.826  23.988  0.00  0.00    -0.002 A 
BRANCH  15  18
ATOM     18  C   UNL     1      -3.802  -2.893  24.460  0.00  0.00    +0.100 C 
ATOM     19  N   UNL     1      -3.699  -3.708  24.383  0.00  0.00    -0.191 NA
ENDBRANCH  15  18
ENDBRANCH  11  12
ENDBRANCH  10  11
ENDBRANCH   7   8
ENDBRANCH   6   7
BRANCH  23  24
ATOM     24  C   UNL     1       0.121   1.353  23.982  0.00  0.00    +0.120 C 
BRANCH  24  25
ATOM     25  N   UNL     1       0.423   1.166  23.237  0.00  0.00    -0.077 NA
BRANCH  25  26
ATOM     26  S   UNL     1       1.204   0.906  23.161  0.00  0.00    +0.083 S 
ATOM     27  O   UNL     1       1.473   1.657  23.370  0.00  0.00    -0.151 OA
ATOM     28  O   UNL     1       0.934   0.155  22.953  0.00  0.00    -0.151 OA
BRANCH  26  29
ATOM     29  C   UNL     1       1.983   0.648  23.086  0.00  0.00    +0.153 A 
ATOM     30  C   UNL     1       2.660   1.112  23.179  0.00  0.00    +0.027 A 
ATOM     31  C   UNL     1       3.317   0.631  23.055  0.00  0.00    +0.009 A 
ATOM     32  C   UNL     1       3.049  -0.130  22.884  0.00  0.00    +0.037 A 
ATOM     33  S   UNL     1       2.224  -0.119  22.903  0.00  0.00    -0.067 S 
ENDBRANCH  26  29
ENDBRANCH  25  26
ENDBRANCH  24  25
ENDBRANCH  23  24
TORSDOF 10
ENDMDL
MODEL 8
REMARK VINA RESULT:      -7.1      1.750      2.531
REMARK  Name = 
REMARK  10 active torsions:
REMARK  status: ('A' for Active; 'I' for Inactive)
REMARK    1  A    between atoms: C_2  and  C_4
REMARK    2  A    between atoms: C_6  and  C_7
REMARK    3  A    between atoms: C_7  and  C_8
REMARK    4  A    between atoms: N_10  and  C_11
REMARK    5  A    between atoms: C_11  and  C_12
REMARK    6  A    between atoms: C_15  and  C_18
REMARK    7  A    between atoms: C_23  and  C_24
REMARK    8  A    between atoms: C_24  and  N_25
REMARK    9  A    between atoms: N_25  and  S_26
REMARK   10  A    between atoms: S_26  and  C_29
REMARK                            x       y       z     vdW  Elec       q    Type
REMARK                         _______ _______ _______ _____ _____    ______ ____
ROOT
ATOM      4  C   UNL     1      -1.049   1.925  24.265  0.00  0.00    +0.006 C 
ATOM      5  C   UNL     1      -1.453   2.431  24.778  0.00  0.00    +0.005 C 
ATOM      6  C   UNL     1      -1.066   2.746  25.435  0.00  0.00    +0.027 C 
ATOM     20  C   UNL     1      -0.276   2.558  25.579  0.00  0.00    -0.048 C 
ATOM     21  C   UNL     1       0.109   2.874  26.235  0.00  0.00    +0.026 C 
ATOM     22  C   UNL     1       0.127   2.053  25.067  0.00  0.00    -0.033 C 
ATOM     23  C   UNL     1      -0.259   1.737  24.409  0.00  0.00    +0.041 C 
ENDROOT
BRANCH   4   2
ATOM      1  C   UNL     1      -1.436   2.022  22.893  0.00  0.00    +0.000 C 
ATOM      2  C   UNL     1      -1.435   1.610  23.609  0.00  0.00    +0.000 C 
ATOM      3  C   UNL     1      -1.821   0.884  23.666  0.00  0.00    +0.000 C 
ENDBRANCH   4   2
BRANCH   6   7
ATOM      7  C   UNL     1      -1.471   3.251  25.947  0.00  0.00    +0.091 C 
BRANCH   7   8
ATOM      8  C   UNL     1      -2.145   3.649  25.686  0.00  0.00    +0.242 C 
ATOM      9  O   UNL     1      -2.071   4.352  25.261  0.00  0.00    -0.273 OA
ATOM     10  N   UNL     1      -2.894   3.343  25.850  0.00  0.00    -0.201 NA
BRANCH  10  11
ATOM     11  C   UNL     1      -3.568   3.741  25.590  0.00  0.00    +0.141 C 
BRANCH  11  12
ATOM     12  C   UNL     1      -4.264   3.322  25.446  0.00  0.00    -0.001 A 
ATOM     13  C   UNL     1      -4.748   3.099  26.075  0.00  0.00    -0.002 A 
ATOM     14  C   UNL     1      -5.444   2.679  25.931  0.00  0.00    +0.010 A 
ATOM     15  C   UNL     1      -5.655   2.483  25.158  0.00  0.00    +0.068 A 
ATOM     16  C   UNL     1      -5.171   2.706  24.530  0.00  0.00    +0.010 A 
ATOM     17  C   UNL     1      -4.475   3.125  24.673  0.00  0.00    -0.002 A 
BRANCH  15  18
ATOM     18  C   UNL     1      -6.351   2.064  25.015  0.00  0.00    +0.100 C 
ATOM     19  N   UNL     1      -7.047   1.644  24.871  0.00  0.00    -0.191 NA
ENDBRANCH  15  18
ENDBRANCH  11  12
ENDBRANCH  10  11
ENDBRANCH   7   8
ENDBRANCH   6   7
BRANCH  23  24
ATOM     24  C   UNL     1       0.145   1.233  23.897  0.00  0.00    +0.120 C 
BRANCH  24  25
ATOM     25  N   UNL     1       0.907   0.979  24.084  0.00  0.00    -0.077 NA
BRANCH  25  26
ATOM     26  S   UNL     1       1.393   0.664  23.495  0.00  0.00    +0.083 S 
ATOM     27  O   UNL     1       1.830   1.363  23.483  0.00  0.00    -0.151 OA
ATOM     28  O   UNL     1       0.956  -0.036  23.508  0.00  0.00    -0.151 OA
BRANCH  26  29
ATOM     29  C   UNL     1       1.879   0.350  22.908  0.00  0.00    +0.153 A 
ATOM     30  C   UNL     1       1.635  -0.124  22.278  0.00  0.00    +0.027 A 
ATOM     31  C   UNL     1       2.299  -0.312  21.827  0.00  0.00    +0.009 A 
ATOM     32  C   UNL     1       2.954   0.045  22.177  0.00  0.00    +0.037 A 
ATOM     33  S   UNL     1       2.695   0.454  22.845  0.00  0.00    -0.067 S 
ENDBRANCH  26  29
ENDBRANCH  25  26
ENDBRANCH  24  25
ENDBRANCH  23  24
TORSDOF 10
ENDMDL
MODEL 9
REMARK VINA RESULT:      -5.7     17.126     18.778
REMARK  Name = 
REMARK  10 active torsions:
REMARK  status: ('A' for Active; 'I' for Inactive)
REMARK    1  A    between atoms: C_2  and  C_4
REMARK    2  A    between atoms: C_6  and  C_7
REMARK    3  A    between atoms: C_7  and  C_8
REMARK    4  A    between atoms: N_10  and  C_11
REMARK    5  A    between atoms: C_11  and  C_12
REMARK    6  A    between atoms: C_15  and  C_18
REMARK    7  A    between atoms: C_23  and  C_24
REMARK    8  A    between atoms: C_24  and  N_25
REMARK    9  A    between atoms: N_25  and  S_26
REMARK   10  A    between atoms: S_26  and  C_29
REMARK                            x       y       z     vdW  Elec       q    Type
REMARK                         _______ _______ _______ _____ _____    ______ ____
ROOT
ATOM      4  C   UNL     1      -7.010  -9.330   9.928  0.00  0.00    +0.006 C 
ATOM      5  C   UNL     1      -6.365  -9.840  10.000  0.00  0.00    +0.005 C 
ATOM      6  C   UNL     1      -5.798  -9.874   9.401  0.00  0.00    +0.027 C 
ATOM     20  C   UNL     1      -5.876  -9.399   8.731  0.00  0.00    -0.048 C 
ATOM     21  C   UNL     1      -5.310  -9.433   8.133  0.00  0.00    +0.026 C 
ATOM     22  C   UNL     1      -6.520  -8.889   8.660  0.00  0.00    -0.033 C 
ATOM     23  C   UNL     1      -7.088  -8.854   9.258  0.00  0.00    +0.041 C 
ENDROOT
BRANCH   4   2
ATOM      1  C   UNL     1      -8.254  -9.765  10.480  0.00  0.00    +0.000 C 
ATOM      2  C   UNL     1      -7.576  -9.296  10.527  0.00  0.00    +0.000 C 
ATOM      3  C   UNL     1      -7.465  -8.795  11.171  0.00  0.00    +0.000 C 
ENDBRANCH   4   2
BRANCH   6   7
ATOM      7  C   UNL     1      -5.154 -10.384   9.473  0.00  0.00    +0.091 C 
BRANCH   7   8
ATOM      8  C   UNL     1      -4.745 -10.433  10.188  0.00  0.00    +0.242 C 
ATOM      9  O   UNL     1      -5.102 -10.781  10.845  0.00  0.00    -0.273 OA
ATOM     10  N   UNL     1      -3.977 -10.134  10.246  0.00  0.00    -0.201 NA
BRANCH  10  11
ATOM     11  C   UNL     1      -3.569 -10.183  10.961  0.00  0.00    +0.141 C 
BRANCH  11  12
ATOM     12  C   UNL     1      -2.809  -9.868  11.023  0.00  0.00    -0.001 A 
ATOM     13  C   UNL     1      -2.580  -9.245  10.535  0.00  0.00    -0.002 A 
ATOM     14  C   UNL     1      -1.819  -8.930  10.598  0.00  0.00    +0.010 A 
ATOM     15  C   UNL     1      -1.290  -9.239  11.149  0.00  0.00    +0.068 A 
ATOM     16  C   UNL     1      -1.519  -9.862  11.638  0.00  0.00    +0.010 A 
ATOM     17  C   UNL     1      -2.279 -10.177  11.575  0.00  0.00    -0.002 A 
BRANCH  15  18
ATOM     18  C   UNL     1      -0.529  -8.924  11.212  0.00  0.00    +0.100 C 
ATOM     19  N   UNL     1       0.231  -8.609  11.275  0.00  0.00    -0.191 NA
ENDBRANCH  15  18
ENDBRANCH  11  12
ENDBRANCH  10  11
ENDBRANCH   7   8
ENDBRANCH   6   7
BRANCH  23  24
ATOM     24  C   UNL     1      -7.732  -8.345   9.187  0.00  0.00    +0.120 C 
BRANCH  24  25
ATOM     25  N   UNL     1      -7.825  -7.891   8.505  0.00  0.00    -0.077 NA
BRANCH  25  26
ATOM     26  S   UNL     1      -8.416  -7.316   8.469  0.00  0.00    +0.083 S 
ATOM     27  O   UNL     1      -8.963  -7.891   8.244  0.00  0.00    -0.151 OA
ATOM     28  O   UNL     1      -7.869  -6.740   8.695  0.00  0.00    -0.151 OA
BRANCH  26  29
ATOM     29  C   UNL     1      -9.006  -6.741   8.434  0.00  0.00    +0.153 A 
ATOM     30  C   UNL     1      -9.792  -6.837   8.668  0.00  0.00    +0.027 A 
ATOM     31  C   UNL     1     -10.186  -6.125   8.537  0.00  0.00    +0.009 A 
ATOM     32  C   UNL     1      -9.645  -5.588   8.222  0.00  0.00    +0.037 A 
ATOM     33  S   UNL     1      -8.916  -5.969   8.158  0.00  0.00    -0.067 S 
ENDBRANCH  26  29
ENDBRANCH  25  26
ENDBRANCH  24  25
ENDBRANCH  23  24
TORSDOF 10
ENDMDL
MODEL 10
REMARK VINA RESULT:      -5.2     14.956     16.190
REMARK  Name = 
REMARK  10 active torsions:
REMARK  status: ('A' for Active; 'I' for Inactive)
REMARK    1  A    between atoms: C_2  and  C_4
REMARK    2  A    between atoms: C_6  and  C_7
REMARK    3  A    between atoms: C_7  and  C_8
REMARK    4  A    between atoms: N_10  and  C_11
REMARK    5  A    between atoms: C_11  and  C_12
REMARK    6  A    between atoms: C_15  and  C_18
REMARK    7  A    between atoms: C_23  and  C_24
REMARK    8  A    between atoms: C_24  and  N_25
REMARK    9  A    between atoms: N_25  and  S_26
REMARK   10  A    between atoms: S_26  and  C_29
REMARK                            x       y       z     vdW  Elec       q    Type
REMARK                         _______ _______ _______ _____ _____    ______ ____
ROOT
ATOM      4  C   UNL     1      -6.641 -10.012  13.078  0.00  0.00    +0.006 C 
ATOM      5  C   UNL     1      -7.217 -10.120  13.660  0.00  0.00    +0.005 C 
ATOM      6  C   UNL     1      -8.016 -10.079  13.461  0.00  0.00    +0.027 C 
ATOM     20  C   UNL     1      -8.240  -9.930  12.681  0.00  0.00    -0.048 C 
ATOM     21  C   UNL     1      -9.039  -9.889  12.483  0.00  0.00    +0.026 C 
ATOM     22  C   UNL     1      -7.665  -9.822  12.101  0.00  0.00    -0.033 C 
ATOM     23  C   UNL     1      -6.865  -9.863  12.299  0.00  0.00    +0.041 C 
ENDROOT
BRANCH   4   2
ATOM      1  C   UNL     1      -5.449 -10.780  13.261  0.00  0.00    +0.000 C 
ATOM      2  C   UNL     1      -5.842 -10.053  13.278  0.00  0.00    +0.000 C 
ATOM      3  C   UNL     1      -5.434  -9.370  13.494  0.00  0.00    +0.000 C 
ENDBRANCH   4   2
BRANCH   6   7
ATOM      7  C   UNL     1      -8.591 -10.187  14.043  0.00  0.00    +0.091 C 
BRANCH   7   8
ATOM      8  C   UNL     1      -8.614  -9.686  14.698  0.00  0.00    +0.242 C 
ATOM      9  O   UNL     1      -8.844  -8.899  14.607  0.00  0.00    -0.273 OA
ATOM     10  N   UNL     1      -8.406  -9.972  15.444  0.00  0.00    -0.201 NA
BRANCH  10  11
ATOM     11  C   UNL     1      -8.429  -9.471  16.099  0.00  0.00    +0.141 C 
BRANCH  11  12
ATOM     12  C   UNL     1      -8.145  -9.732  16.827  0.00  0.00    -0.001 A 
ATOM     13  C   UNL     1      -7.377  -9.549  17.061  0.00  0.00    -0.002 A 
ATOM     14  C   UNL     1      -7.093  -9.811  17.791  0.00  0.00    +0.010 A 
ATOM     15  C   UNL     1      -7.580 -10.257  18.286  0.00  0.00    +0.068 A 
ATOM     16  C   UNL     1      -8.348 -10.441  18.052  0.00  0.00    +0.010 A 
ATOM     17  C   UNL     1      -8.632 -10.179  17.323  0.00  0.00    -0.002 A 
BRANCH  15  18
ATOM     18  C   UNL     1      -7.296 -10.519  19.015  0.00  0.00    +0.100 C 
ATOM     19  N   UNL     1      -7.013 -10.781  19.744  0.00  0.00    -0.191 NA
ENDBRANCH  15  18
ENDBRANCH  11  12
ENDBRANCH  10  11
ENDBRANCH   7   8
ENDBRANCH   6   7
BRANCH  23  24
ATOM     24  C   UNL     1      -6.290  -9.755  11.718  0.00  0.00    +0.120 C 
BRANCH  24  25
ATOM     25  N   UNL     1      -6.514  -9.573  10.945  0.00  0.00    -0.077 NA
BRANCH  25  26
ATOM     26  S   UNL     1      -5.938  -9.462  10.364  0.00  0.00    +0.083 S 
ATOM     27  O   UNL     1      -5.934  -8.653  10.522  0.00  0.00    -0.151 OA
ATOM     28  O   UNL     1      -5.941 -10.273  10.206  0.00  0.00    -0.151 OA
BRANCH  26  29
ATOM     29  C   UNL     1      -5.363  -9.351   9.784  0.00  0.00    +0.153 A 
ATOM     30  C   UNL     1      -4.645  -8.955   9.881  0.00  0.00    +0.027 A 
ATOM     31  C   UNL     1      -4.243  -8.976   9.162  0.00  0.00    +0.009 A 
ATOM     32  C   UNL     1      -4.711  -9.384   8.619  0.00  0.00    +0.037 A 
ATOM     33  S   UNL     1      -5.403  -9.616   9.003  0.00  0.00    -0.067 S 
ENDBRANCH  26  29
ENDBRANCH  25  26
ENDBRANCH  24  25
ENDBRANCH  23  24
TORSDOF 10
ENDMDL
