REMARK  Name = 
REMARK  7 active torsions:
REMARK  status: ('A' for Active; 'I' for Inactive)
REMARK    1  A    between atoms: C_4  and  C_29
REMARK    2  A    between atoms: C_6  and  C_7
REMARK    3  A    between atoms: C_14  and  C_15
REMARK    4  A    between atoms: C_15  and  O_16
REMARK    5  A    between atoms: O_16  and  C_17
REMARK    6  A    between atoms: N_19  and  C_20
REMARK    7  A    between atoms: C_23  and  C_26
REMARK                            x       y       z     vdW  Elec       q    Type
REMARK                         _______ _______ _______ _____ _____    ______ ____
ROOT
ATOM      7  C   UNL     1       1.661  -1.343   0.000  0.00  0.00    +0.056 C 
ATOM      8  C   UNL     1       1.814  -2.106   0.000  0.00  0.00    +0.078 C 
ATOM      9  N   UNL     1       1.065  -1.759   0.000  0.00  0.00    -0.270 NA
ATOM     10  C   UNL     1       1.205  -0.720   0.000  0.00  0.00    +0.072 C 
ATOM     11  C   UNL     1       0.961  -0.114   0.000  0.00  0.00    +0.018 C 
ATOM     12  C   UNL     1       0.923  -1.010   0.000  0.00  0.00    +0.010 C 
ATOM     13  C   UNL     1       0.119  -1.362   0.000  0.00  0.00    +0.020 C 
ATOM     14  C   UNL     1       0.226  -2.118   0.000  0.00  0.00    +0.102 C 
ENDROOT
BRANCH   7   6
ATOM      1  C   UNL     1       1.582   0.451   0.000  0.00  0.00    +0.153 C 
ATOM      2  N   UNL     1       2.270  -0.004   0.000  0.00  0.00    -0.253 N 
ATOM      3  N   UNL     1       3.043   0.285   0.000  0.00  0.00    -0.169 NA
ATOM      4  C   UNL     1       3.557  -0.360   0.000  0.00  0.00    +0.108 A 
ATOM      5  C   UNL     1       3.102  -1.048   0.000  0.00  0.00    +0.036 A 
ATOM      6  C   UNL     1       2.307  -0.828   0.000  0.00  0.00    +0.058 A 
BRANCH   4  29
ATOM     29  C   UNL     1       4.381  -0.323   0.000  0.00  0.00    +0.049 A 
ATOM     30  C   UNL     1       4.836   0.365   0.000  0.00  0.00    +0.009 A 
ATOM     31  C   UNL     1       5.631   0.145   0.000  0.00  0.00    +0.008 A 
ATOM     32  C   UNL     1       5.667  -0.679   0.000  0.00  0.00    +0.035 A 
ATOM     33  S   UNL     1       4.895  -0.969   0.000  0.00  0.00    -0.085 S 
ENDBRANCH   4  29
ENDBRANCH   7   6
BRANCH  14  15
ATOM     15  C   UNL     1      -0.179  -2.836   0.000  0.00  0.00    +0.226 C 
BRANCH  15  16
ATOM     16  O   UNL     1      -1.004  -2.845   0.000  0.00  0.00    -0.432 OA
BRANCH  16  17
ATOM     17  C   UNL     1      -1.408  -3.564   0.000  0.00  0.00    +0.425 C 
ATOM     18  O   UNL     1      -0.988  -4.274   0.000  0.00  0.00    -0.224 OA
ATOM     19  N   UNL     1      -2.233  -3.573   0.000  0.00  0.00    -0.142 NA
BRANCH  19  20
ATOM     20  C   UNL     1      -2.638  -4.292   0.000  0.00  0.00    +0.077 A 
ATOM     21  C   UNL     1      -2.218  -5.002   0.000  0.00  0.00    +0.017 A 
ATOM     22  C   UNL     1      -2.623  -5.721   0.000  0.00  0.00    +0.004 A 
ATOM     23  C   UNL     1      -3.448  -5.729   0.000  0.00  0.00    +0.035 A 
ATOM     24  C   UNL     1      -3.868  -5.019   0.000  0.00  0.00    +0.004 A 
ATOM     25  C   UNL     1      -3.463  -4.301   0.000  0.00  0.00    +0.017 A 
BRANCH  23  26
ATOM     26  C   UNL     1      -3.853  -6.448   0.000  0.00  0.00    +0.173 C 
ATOM     27  C   UNL     1      -4.678  -6.457   0.000  0.00  0.00    +0.077 C 
ATOM     28  O   UNL     1      -3.432  -7.158   0.000  0.00  0.00    -0.291 OA
ENDBRANCH  23  26
ENDBRANCH  19  20
ENDBRANCH  16  17
ENDBRANCH  15  16
ENDBRANCH  14  15
TORSDOF 7
