MODEL 1
REMARK VINA RESULT:     -11.2      0.000      0.000
REMARK  Name = 
REMARK  9 active torsions:
REMARK  status: ('A' for Active; 'I' for Inactive)
REMARK    1  A    between atoms: C_2  and  C_3
REMARK    2  A    between atoms: C_3  and  C_4
REMARK    3  A    between atoms: C_4  and  C_5
REMARK    4  A    between atoms: C_7  and  C_8
REMARK    5  A    between atoms: C_8  and  C_9
REMARK    6  A    between atoms: C_14  and  C_15
REMARK    7  A    between atoms: C_15  and  C_16
REMARK    8  A    between atoms: N_18  and  C_19
REMARK    9  A    between atoms: C_19  and  C_20
REMARK                            x       y       z     vdW  Elec       q    Type
REMARK                         _______ _______ _______ _____ _____    ______ ____
ROOT
ATOM      9  C   UNL     1      -4.328   3.032  24.955  0.00  0.00    +0.024 C 
ATOM     10  C   UNL     1      -4.599   3.641  25.440  0.00  0.00    +0.089 C 
ATOM     11  N   UNL     1      -5.233   3.511  25.952  0.00  0.00    -0.218 NA
ATOM     12  C   UNL     1      -5.596   2.771  25.978  0.00  0.00    +0.089 C 
ATOM     13  C   UNL     1      -5.326   2.161  25.493  0.00  0.00    +0.019 C 
ATOM     14  C   UNL     1      -4.691   2.291  24.982  0.00  0.00    +0.012 C 
ENDROOT
BRANCH   9   8
ATOM      8  C   UNL     1      -3.694   3.162  24.444  0.00  0.00    +0.051 C 
BRANCH   8   7
ATOM      5  C   UNL     1      -1.770   3.778  25.134  0.00  0.00    +0.154 A 
ATOM      6  C   UNL     1      -2.289   3.191  24.876  0.00  0.00    +0.054 A 
ATOM      7  C   UNL     1      -3.017   3.546  24.716  0.00  0.00    +0.100 A 
ATOM     26  N   UNL     1      -2.948   4.353  24.875  0.00  0.00    -0.082 NA
ATOM     27  O   UNL     1      -2.178   4.496  25.134  0.00  0.00    -0.358 OA
BRANCH   5   4
ATOM      4  C   UNL     1      -0.984   3.667  25.354  0.00  0.00    +0.067 C 
BRANCH   4   3
ATOM      3  C   UNL     1      -0.774   3.024  25.826  0.00  0.00    +0.008 C 
BRANCH   3   2
ATOM      1  C   UNL     1       0.225   2.333  26.580  0.00  0.00    +0.000 C 
ATOM      2  C   UNL     1       0.021   2.878  25.994  0.00  0.00    +0.000 C 
ENDBRANCH   3   2
ENDBRANCH   4   3
ENDBRANCH   5   4
ENDBRANCH   8   7
ENDBRANCH   9   8
BRANCH  14  15
ATOM     15  C   UNL     1      -4.420   1.680  24.496  0.00  0.00    +0.087 C 
BRANCH  15  16
ATOM     16  C   UNL     1      -4.756   0.929  24.553  0.00  0.00    +0.242 C 
ATOM     17  O   UNL     1      -5.577   0.844  24.566  0.00  0.00    -0.273 OA
ATOM     18  N   UNL     1      -4.271   0.264  24.597  0.00  0.00    -0.201 NA
BRANCH  18  19
ATOM     19  C   UNL     1      -4.607  -0.488  24.653  0.00  0.00    +0.141 C 
BRANCH  19  20
ATOM     20  C   UNL     1      -4.123  -1.156  24.665  0.00  0.00    -0.001 A 
ATOM     21  C   UNL     1      -4.158  -1.701  24.046  0.00  0.00    -0.003 A 
ATOM     22  C   UNL     1      -3.673  -2.369  24.058  0.00  0.00    -0.000 A 
ATOM     23  C   UNL     1      -3.155  -2.492  24.687  0.00  0.00    -0.000 A 
ATOM     24  C   UNL     1      -3.120  -1.947  25.305  0.00  0.00    -0.000 A 
ATOM     25  C   UNL     1      -3.604  -1.279  25.294  0.00  0.00    -0.003 A 
ENDBRANCH  19  20
ENDBRANCH  18  19
ENDBRANCH  15  16
ENDBRANCH  14  15
TORSDOF 9
ENDMDL
MODEL 2
REMARK VINA RESULT:     -11.0      1.078      4.821
REMARK  Name = 
REMARK  9 active torsions:
REMARK  status: ('A' for Active; 'I' for Inactive)
REMARK    1  A    between atoms: C_2  and  C_3
REMARK    2  A    between atoms: C_3  and  C_4
REMARK    3  A    between atoms: C_4  and  C_5
REMARK    4  A    between atoms: C_7  and  C_8
REMARK    5  A    between atoms: C_8  and  C_9
REMARK    6  A    between atoms: C_14  and  C_15
REMARK    7  A    between atoms: C_15  and  C_16
REMARK    8  A    between atoms: N_18  and  C_19
REMARK    9  A    between atoms: C_19  and  C_20
REMARK                            x       y       z     vdW  Elec       q    Type
REMARK                         _______ _______ _______ _____ _____    ______ ____
ROOT
ATOM      9  C   UNL     1      -5.035   1.712  25.015  0.00  0.00    +0.024 C 
ATOM     10  C   UNL     1      -5.604   1.292  25.440  0.00  0.00    +0.089 C 
ATOM     11  N   UNL     1      -6.126   1.693  25.938  0.00  0.00    -0.218 NA
ATOM     12  C   UNL     1      -6.079   2.513  26.010  0.00  0.00    +0.089 C 
ATOM     13  C   UNL     1      -5.510   2.933  25.586  0.00  0.00    +0.019 C 
ATOM     14  C   UNL     1      -4.988   2.533  25.088  0.00  0.00    +0.012 C 
ENDROOT
BRANCH   9   8
ATOM      8  C   UNL     1      -4.513   1.312  24.518  0.00  0.00    +0.051 C 
BRANCH   8   7
ATOM      5  C   UNL     1      -4.110  -0.784  24.561  0.00  0.00    +0.154 A 
ATOM      6  C   UNL     1      -4.392  -0.112  24.174  0.00  0.00    +0.054 A 
ATOM      7  C   UNL     1      -4.302   0.532  24.683  0.00  0.00    +0.100 A 
ATOM     26  N   UNL     1      -3.964   0.258  25.384  0.00  0.00    -0.082 NA
ATOM     27  O   UNL     1      -3.845  -0.555  25.309  0.00  0.00    -0.358 OA
BRANCH   5   4
ATOM      4  C   UNL     1      -4.095  -1.549  24.255  0.00  0.00    +0.067 C 
BRANCH   4   3
ATOM      3  C   UNL     1      -3.624  -2.127  24.610  0.00  0.00    +0.008 C 
BRANCH   3   2
ATOM      1  C   UNL     1      -2.949  -3.356  24.334  0.00  0.00    +0.000 C 
ATOM      2  C   UNL     1      -3.638  -2.902  24.326  0.00  0.00    +0.000 C 
ENDBRANCH   3   2
ENDBRANCH   4   3
ENDBRANCH   5   4
ENDBRANCH   8   7
ENDBRANCH   9   8
BRANCH  14  15
ATOM     15  C   UNL     1      -4.419   2.953  24.663  0.00  0.00    +0.087 C 
BRANCH  15  16
ATOM     16  C   UNL     1      -4.022   3.583  25.017  0.00  0.00    +0.242 C 
ATOM     17  O   UNL     1      -4.449   4.197  25.366  0.00  0.00    -0.273 OA
ATOM     18  N   UNL     1      -3.197   3.599  25.023  0.00  0.00    -0.201 NA
BRANCH  18  19
ATOM     19  C   UNL     1      -2.799   4.229  25.378  0.00  0.00    +0.141 C 
BRANCH  19  20
ATOM     20  C   UNL     1      -1.987   4.321  25.263  0.00  0.00    -0.001 A 
ATOM     21  C   UNL     1      -1.684   5.054  25.035  0.00  0.00    -0.003 A 
ATOM     22  C   UNL     1      -0.872   5.146  24.920  0.00  0.00    -0.000 A 
ATOM     23  C   UNL     1      -0.365   4.507  25.033  0.00  0.00    -0.000 A 
ATOM     24  C   UNL     1      -0.668   3.774  25.261  0.00  0.00    -0.000 A 
ATOM     25  C   UNL     1      -1.480   3.682  25.376  0.00  0.00    -0.003 A 
ENDBRANCH  19  20
ENDBRANCH  18  19
ENDBRANCH  15  16
ENDBRANCH  14  15
TORSDOF 9
ENDMDL
MODEL 3
REMARK VINA RESULT:     -10.6      1.650      3.458
REMARK  Name = 
REMARK  9 active torsions:
REMARK  status: ('A' for Active; 'I' for Inactive)
REMARK    1  A    between atoms: C_2  and  C_3
REMARK    2  A    between atoms: C_3  and  C_4
REMARK    3  A    between atoms: C_4  and  C_5
REMARK    4  A    between atoms: C_7  and  C_8
REMARK    5  A    between atoms: C_8  and  C_9
REMARK    6  A    between atoms: C_14  and  C_15
REMARK    7  A    between atoms: C_15  and  C_16
REMARK    8  A    between atoms: N_18  and  C_19
REMARK    9  A    between atoms: C_19  and  C_20
REMARK                            x       y       z     vdW  Elec       q    Type
REMARK                         _______ _______ _______ _____ _____    ______ ____
ROOT
ATOM      9  C   UNL     1      -1.328   2.503  24.824  0.00  0.00    +0.024 C 
ATOM     10  C   UNL     1      -1.210   3.115  25.365  0.00  0.00    +0.089 C 
ATOM     11  N   UNL     1      -0.677   3.018  25.988  0.00  0.00    -0.218 NA
ATOM     12  C   UNL     1      -0.263   2.310  26.070  0.00  0.00    +0.089 C 
ATOM     13  C   UNL     1      -0.381   1.698  25.530  0.00  0.00    +0.019 C 
ATOM     14  C   UNL     1      -0.913   1.794  24.907  0.00  0.00    +0.012 C 
ENDROOT
BRANCH   9   8
ATOM      8  C   UNL     1      -1.860   2.600  24.202  0.00  0.00    +0.051 C 
BRANCH   8   7
ATOM      5  C   UNL     1      -3.928   3.036  24.503  0.00  0.00    +0.154 A 
ATOM      6  C   UNL     1      -3.321   2.504  24.332  0.00  0.00    +0.054 A 
ATOM      7  C   UNL     1      -2.607   2.918  24.344  0.00  0.00    +0.100 A 
ATOM     26  N   UNL     1      -2.773   3.707  24.521  0.00  0.00    -0.082 NA
ATOM     27  O   UNL     1      -3.589   3.780  24.619  0.00  0.00    -0.358 OA
BRANCH   5   4
ATOM      4  C   UNL     1      -4.731   2.857  24.549  0.00  0.00    +0.067 C 
BRANCH   4   3
ATOM      3  C   UNL     1      -5.004   2.331  25.123  0.00  0.00    +0.008 C 
BRANCH   3   2
ATOM      1  C   UNL     1      -6.103   1.692  25.779  0.00  0.00    +0.000 C 
ATOM      2  C   UNL     1      -5.800   2.108  25.133  0.00  0.00    +0.000 C 
ENDBRANCH   3   2
ENDBRANCH   4   3
ENDBRANCH   5   4
ENDBRANCH   8   7
ENDBRANCH   9   8
BRANCH  14  15
ATOM     15  C   UNL     1      -1.031   1.182  24.366  0.00  0.00    +0.087 C 
BRANCH  15  16
ATOM     16  C   UNL     1      -0.956   0.397  24.609  0.00  0.00    +0.242 C 
ATOM     17  O   UNL     1      -0.210   0.088  24.781  0.00  0.00    -0.273 OA
ATOM     18  N   UNL     1      -1.626  -0.078  24.680  0.00  0.00    -0.201 NA
BRANCH  18  19
ATOM     19  C   UNL     1      -1.550  -0.863  24.923  0.00  0.00    +0.141 C 
BRANCH  19  20
ATOM     20  C   UNL     1      -2.216  -1.349  24.959  0.00  0.00    -0.001 A 
ATOM     21  C   UNL     1      -2.856  -1.137  25.436  0.00  0.00    -0.003 A 
ATOM     22  C   UNL     1      -3.522  -1.623  25.471  0.00  0.00    -0.000 A 
ATOM     23  C   UNL     1      -3.548  -2.319  25.031  0.00  0.00    -0.000 A 
ATOM     24  C   UNL     1      -2.909  -2.531  24.554  0.00  0.00    -0.000 A 
ATOM     25  C   UNL     1      -2.243  -2.045  24.519  0.00  0.00    -0.003 A 
ENDBRANCH  19  20
ENDBRANCH  18  19
ENDBRANCH  15  16
ENDBRANCH  14  15
TORSDOF 9
ENDMDL
MODEL 4
REMARK VINA RESULT:     -10.5      1.560      1.922
REMARK  Name = 
REMARK  9 active torsions:
REMARK  status: ('A' for Active; 'I' for Inactive)
REMARK    1  A    between atoms: C_2  and  C_3
REMARK    2  A    between atoms: C_3  and  C_4
REMARK    3  A    between atoms: C_4  and  C_5
REMARK    4  A    between atoms: C_7  and  C_8
REMARK    5  A    between atoms: C_8  and  C_9
REMARK    6  A    between atoms: C_14  and  C_15
REMARK    7  A    between atoms: C_15  and  C_16
REMARK    8  A    between atoms: N_18  and  C_19
REMARK    9  A    between atoms: C_19  and  C_20
REMARK                            x       y       z     vdW  Elec       q    Type
REMARK                         _______ _______ _______ _____ _____    ______ ____
ROOT
ATOM      9  C   UNL     1      -2.992   3.155  24.665  0.00  0.00    +0.024 C 
ATOM     10  C   UNL     1      -2.712   3.709  25.209  0.00  0.00    +0.089 C 
ATOM     11  N   UNL     1      -3.179   3.930  25.852  0.00  0.00    -0.218 NA
ATOM     12  C   UNL     1      -3.927   3.597  25.951  0.00  0.00    +0.089 C 
ATOM     13  C   UNL     1      -4.208   3.043  25.408  0.00  0.00    +0.019 C 
ATOM     14  C   UNL     1      -3.741   2.822  24.765  0.00  0.00    +0.012 C 
ENDROOT
BRANCH   9   8
ATOM      8  C   UNL     1      -2.526   2.934  24.023  0.00  0.00    +0.051 C 
BRANCH   8   7
ATOM      5  C   UNL     1      -0.634   1.965  24.218  0.00  0.00    +0.154 A 
ATOM      6  C   UNL     1      -1.439   1.944  24.041  0.00  0.00    +0.054 A 
ATOM      7  C   UNL     1      -1.742   2.706  24.141  0.00  0.00    +0.100 A 
ATOM     26  N   UNL     1      -1.124   3.197  24.380  0.00  0.00    -0.082 NA
ATOM     27  O   UNL     1      -0.439   2.740  24.428  0.00  0.00    -0.358 OA
BRANCH   5   4
ATOM      4  C   UNL     1      -0.114   1.325  24.190  0.00  0.00    +0.067 C 
BRANCH   4   3
ATOM      3  C   UNL     1      -0.410   0.556  24.149  0.00  0.00    +0.008 C 
BRANCH   3   2
ATOM      1  C   UNL     1      -0.115  -0.843  24.150  0.00  0.00    +0.000 C 
ATOM      2  C   UNL     1       0.094  -0.069  23.954  0.00  0.00    +0.000 C 
ENDBRANCH   3   2
ENDBRANCH   4   3
ENDBRANCH   5   4
ENDBRANCH   8   7
ENDBRANCH   9   8
BRANCH  14  15
ATOM     15  C   UNL     1      -4.022   2.268  24.222  0.00  0.00    +0.087 C 
BRANCH  15  16
ATOM     16  C   UNL     1      -4.461   1.620  24.484  0.00  0.00    +0.242 C 
ATOM     17  O   UNL     1      -5.238   1.724  24.739  0.00  0.00    -0.273 OA
ATOM     18  N   UNL     1      -4.121   0.869  24.489  0.00  0.00    -0.201 NA
BRANCH  18  19
ATOM     19  C   UNL     1      -4.560   0.220  24.752  0.00  0.00    +0.141 C 
BRANCH  19  20
ATOM     20  C   UNL     1      -4.214  -0.528  24.775  0.00  0.00    -0.001 A 
ATOM     21  C   UNL     1      -3.814  -0.777  25.454  0.00  0.00    -0.003 A 
ATOM     22  C   UNL     1      -3.469  -1.525  25.477  0.00  0.00    -0.000 A 
ATOM     23  C   UNL     1      -3.522  -2.025  24.824  0.00  0.00    -0.000 A 
ATOM     24  C   UNL     1      -3.921  -1.777  24.146  0.00  0.00    -0.000 A 
ATOM     25  C   UNL     1      -4.267  -1.028  24.122  0.00  0.00    -0.003 A 
ENDBRANCH  19  20
ENDBRANCH  18  19
ENDBRANCH  15  16
ENDBRANCH  14  15
TORSDOF 9
ENDMDL
MODEL 5
REMARK VINA RESULT:     -10.5      2.582      6.104
REMARK  Name = 
REMARK  9 active torsions:
REMARK  status: ('A' for Active; 'I' for Inactive)
REMARK    1  A    between atoms: C_2  and  C_3
REMARK    2  A    between atoms: C_3  and  C_4
REMARK    3  A    between atoms: C_4  and  C_5
REMARK    4  A    between atoms: C_7  and  C_8
REMARK    5  A    between atoms: C_8  and  C_9
REMARK    6  A    between atoms: C_14  and  C_15
REMARK    7  A    between atoms: C_15  and  C_16
REMARK    8  A    between atoms: N_18  and  C_19
REMARK    9  A    between atoms: C_19  and  C_20
REMARK                            x       y       z     vdW  Elec       q    Type
REMARK                         _______ _______ _______ _____ _____    ______ ____
ROOT
ATOM      9  C   UNL     1      -0.370  -0.141  24.632  0.00  0.00    +0.024 C 
ATOM     10  C   UNL     1      -0.092  -0.590  23.998  0.00  0.00    +0.089 C 
ATOM     11  N   UNL     1       0.290  -0.220  23.367  0.00  0.00    -0.218 NA
ATOM     12  C   UNL     1       0.393   0.598  23.370  0.00  0.00    +0.089 C 
ATOM     13  C   UNL     1       0.115   1.048  24.003  0.00  0.00    +0.019 C 
ATOM     14  C   UNL     1      -0.267   0.678  24.635  0.00  0.00    +0.012 C 
ENDROOT
BRANCH   9   8
ATOM      8  C   UNL     1      -0.751  -0.511  25.262  0.00  0.00    +0.051 C 
BRANCH   8   7
ATOM      5  C   UNL     1      -2.210  -2.041  24.972  0.00  0.00    +0.154 A 
ATOM      6  C   UNL     1      -2.011  -1.253  25.113  0.00  0.00    +0.054 A 
ATOM      7  C   UNL     1      -1.187  -1.199  25.135  0.00  0.00    +0.100 A 
ATOM     26  N   UNL     1      -0.878  -1.954  25.008  0.00  0.00    -0.082 NA
ATOM     27  O   UNL     1      -1.510  -2.474  24.907  0.00  0.00    -0.358 OA
BRANCH   5   4
ATOM      4  C   UNL     1      -2.974  -2.344  24.907  0.00  0.00    +0.067 C 
BRANCH   4   3
ATOM      3  C   UNL     1      -3.431  -2.172  24.242  0.00  0.00    +0.008 C 
BRANCH   3   2
ATOM      1  C   UNL     1      -4.637  -2.339  23.493  0.00  0.00    +0.000 C 
ATOM      2  C   UNL     1      -4.162  -2.541  24.137  0.00  0.00    +0.000 C 
ENDBRANCH   3   2
ENDBRANCH   4   3
ENDBRANCH   5   4
ENDBRANCH   8   7
ENDBRANCH   9   8
BRANCH  14  15
ATOM     15  C   UNL     1      -0.545   1.127  25.269  0.00  0.00    +0.087 C 
BRANCH  15  16
ATOM     16  C   UNL     1      -0.287   1.904  25.368  0.00  0.00    +0.242 C 
ATOM     17  O   UNL     1       0.515   2.062  25.480  0.00  0.00    -0.273 OA
ATOM     18  N   UNL     1      -0.832   2.523  25.355  0.00  0.00    -0.201 NA
BRANCH  18  19
ATOM     19  C   UNL     1      -0.574   3.301  25.454  0.00  0.00    +0.141 C 
BRANCH  19  20
ATOM     20  C   UNL     1      -1.114   3.923  25.407  0.00  0.00    -0.001 A 
ATOM     21  C   UNL     1      -0.894   4.634  25.050  0.00  0.00    -0.003 A 
ATOM     22  C   UNL     1      -1.434   5.256  25.002  0.00  0.00    -0.000 A 
ATOM     23  C   UNL     1      -2.193   5.167  25.311  0.00  0.00    -0.000 A 
ATOM     24  C   UNL     1      -2.413   4.457  25.668  0.00  0.00    -0.000 A 
ATOM     25  C   UNL     1      -1.873   3.835  25.716  0.00  0.00    -0.003 A 
ENDBRANCH  19  20
ENDBRANCH  18  19
ENDBRANCH  15  16
ENDBRANCH  14  15
TORSDOF 9
ENDMDL
MODEL 6
REMARK VINA RESULT:     -10.5      1.971      4.611
REMARK  Name = 
REMARK  9 active torsions:
REMARK  status: ('A' for Active; 'I' for Inactive)
REMARK    1  A    between atoms: C_2  and  C_3
REMARK    2  A    between atoms: C_3  and  C_4
REMARK    3  A    between atoms: C_4  and  C_5
REMARK    4  A    between atoms: C_7  and  C_8
REMARK    5  A    between atoms: C_8  and  C_9
REMARK    6  A    between atoms: C_14  and  C_15
REMARK    7  A    between atoms: C_15  and  C_16
REMARK    8  A    between atoms: N_18  and  C_19
REMARK    9  A    between atoms: C_19  and  C_20
REMARK                            x       y       z     vdW  Elec       q    Type
REMARK                         _______ _______ _______ _____ _____    ______ ____
ROOT
ATOM      9  C   UNL     1      -0.819   1.740  24.803  0.00  0.00    +0.024 C 
ATOM     10  C   UNL     1      -0.220   1.563  25.342  0.00  0.00    +0.089 C 
ATOM     11  N   UNL     1      -0.035   2.097  25.943  0.00  0.00    -0.218 NA
ATOM     12  C   UNL     1      -0.449   2.807  26.006  0.00  0.00    +0.089 C 
ATOM     13  C   UNL     1      -1.048   2.985  25.467  0.00  0.00    +0.019 C 
ATOM     14  C   UNL     1      -1.233   2.452  24.865  0.00  0.00    +0.012 C 
ENDROOT
BRANCH   9   8
ATOM      8  C   UNL     1      -1.004   1.207  24.202  0.00  0.00    +0.051 C 
BRANCH   8   7
ATOM      5  C   UNL     1      -1.197  -0.872  24.647  0.00  0.00    +0.154 A 
ATOM      6  C   UNL     1      -1.516  -0.113  24.598  0.00  0.00    +0.054 A 
ATOM      7  C   UNL     1      -0.924   0.396  24.330  0.00  0.00    +0.100 A 
ATOM     26  N   UNL     1      -0.238  -0.049  24.214  0.00  0.00    -0.082 NA
ATOM     27  O   UNL     1      -0.407  -0.832  24.410  0.00  0.00    -0.358 OA
BRANCH   5   4
ATOM      4  C   UNL     1      -1.596  -1.551  24.890  0.00  0.00    +0.067 C 
BRANCH   4   3
ATOM      3  C   UNL     1      -2.333  -1.735  24.565  0.00  0.00    +0.008 C 
BRANCH   3   2
ATOM      1  C   UNL     1      -3.484  -2.581  24.533  0.00  0.00    +0.000 C 
ATOM      2  C   UNL     1      -2.701  -2.449  24.757  0.00  0.00    +0.000 C 
ENDBRANCH   3   2
ENDBRANCH   4   3
ENDBRANCH   5   4
ENDBRANCH   8   7
ENDBRANCH   9   8
BRANCH  14  15
ATOM     15  C   UNL     1      -1.832   2.629  24.326  0.00  0.00    +0.087 C 
BRANCH  15  16
ATOM     16  C   UNL     1      -2.480   3.081  24.564  0.00  0.00    +0.242 C 
ATOM     17  O   UNL     1      -2.388   3.886  24.716  0.00  0.00    -0.273 OA
ATOM     18  N   UNL     1      -3.220   2.727  24.649  0.00  0.00    -0.201 NA
BRANCH  18  19
ATOM     19  C   UNL     1      -3.869   3.179  24.887  0.00  0.00    +0.141 C 
BRANCH  19  20
ATOM     20  C   UNL     1      -4.582   2.809  25.074  0.00  0.00    -0.001 A 
ATOM     21  C   UNL     1      -5.051   3.104  25.686  0.00  0.00    -0.003 A 
ATOM     22  C   UNL     1      -5.764   2.735  25.874  0.00  0.00    -0.000 A 
ATOM     23  C   UNL     1      -6.008   2.071  25.451  0.00  0.00    -0.000 A 
ATOM     24  C   UNL     1      -5.540   1.775  24.840  0.00  0.00    -0.000 A 
ATOM     25  C   UNL     1      -4.826   2.145  24.651  0.00  0.00    -0.003 A 
ENDBRANCH  19  20
ENDBRANCH  18  19
ENDBRANCH  15  16
ENDBRANCH  14  15
TORSDOF 9
ENDMDL
MODEL 7
REMARK VINA RESULT:     -10.4      1.793      5.199
REMARK  Name = 
REMARK  9 active torsions:
REMARK  status: ('A' for Active; 'I' for Inactive)
REMARK    1  A    between atoms: C_2  and  C_3
REMARK    2  A    between atoms: C_3  and  C_4
REMARK    3  A    between atoms: C_4  and  C_5
REMARK    4  A    between atoms: C_7  and  C_8
REMARK    5  A    between atoms: C_8  and  C_9
REMARK    6  A    between atoms: C_14  and  C_15
REMARK    7  A    between atoms: C_15  and  C_16
REMARK    8  A    between atoms: N_18  and  C_19
REMARK    9  A    between atoms: C_19  and  C_20
REMARK                            x       y       z     vdW  Elec       q    Type
REMARK                         _______ _______ _______ _____ _____    ______ ____
ROOT
ATOM      9  C   UNL     1      -2.166  -0.054  24.712  0.00  0.00    +0.024 C 
ATOM     10  C   UNL     1      -2.342  -0.678  25.221  0.00  0.00    +0.089 C 
ATOM     11  N   UNL     1      -1.782  -0.934  25.771  0.00  0.00    -0.218 NA
ATOM     12  C   UNL     1      -1.046  -0.566  25.810  0.00  0.00    +0.089 C 
ATOM     13  C   UNL     1      -0.868   0.059  25.300  0.00  0.00    +0.019 C 
ATOM     14  C   UNL     1      -1.428   0.314  24.751  0.00  0.00    +0.012 C 
ENDROOT
BRANCH   9   8
ATOM      8  C   UNL     1      -2.725   0.201  24.163  0.00  0.00    +0.051 C 
BRANCH   8   7
ATOM      5  C   UNL     1      -4.690   0.775  24.769  0.00  0.00    +0.154 A 
ATOM      6  C   UNL     1      -3.907   0.963  24.592  0.00  0.00    +0.054 A 
ATOM      7  C   UNL     1      -3.518   0.266  24.382  0.00  0.00    +0.100 A 
ATOM     26  N   UNL     1      -4.061  -0.353  24.428  0.00  0.00    -0.082 NA
ATOM     27  O   UNL     1      -4.786  -0.039  24.667  0.00  0.00    -0.358 OA
BRANCH   5   4
ATOM      4  C   UNL     1      -5.275   1.305  25.005  0.00  0.00    +0.067 C 
BRANCH   4   3
ATOM      3  C   UNL     1      -5.082   2.094  25.153  0.00  0.00    +0.008 C 
BRANCH   3   2
ATOM      1  C   UNL     1      -5.458   3.387  25.632  0.00  0.00    +0.000 C 
ATOM      2  C   UNL     1      -5.665   2.621  25.405  0.00  0.00    +0.000 C 
ENDBRANCH   3   2
ENDBRANCH   4   3
ENDBRANCH   5   4
ENDBRANCH   8   7
ENDBRANCH   9   8
BRANCH  14  15
ATOM     15  C   UNL     1      -1.251   0.939  24.241  0.00  0.00    +0.087 C 
BRANCH  15  16
ATOM     16  C   UNL     1      -0.775   1.560  24.501  0.00  0.00    +0.242 C 
ATOM     17  O   UNL     1       0.032   1.440  24.622  0.00  0.00    -0.273 OA
ATOM     18  N   UNL     1      -1.107   2.303  24.639  0.00  0.00    -0.201 NA
BRANCH  18  19
ATOM     19  C   UNL     1      -0.631   2.925  24.899  0.00  0.00    +0.141 C 
BRANCH  19  20
ATOM     20  C   UNL     1      -0.959   3.672  25.020  0.00  0.00    -0.001 A 
ATOM     21  C   UNL     1      -0.588   4.341  24.709  0.00  0.00    -0.003 A 
ATOM     22  C   UNL     1      -0.917   5.088  24.831  0.00  0.00    -0.000 A 
ATOM     23  C   UNL     1      -1.615   5.166  25.261  0.00  0.00    -0.000 A 
ATOM     24  C   UNL     1      -1.986   4.499  25.572  0.00  0.00    -0.000 A 
ATOM     25  C   UNL     1      -1.657   3.751  25.451  0.00  0.00    -0.003 A 
ENDBRANCH  19  20
ENDBRANCH  18  19
ENDBRANCH  15  16
ENDBRANCH  14  15
TORSDOF 9
ENDMDL
MODEL 8
REMARK VINA RESULT:     -10.3      2.087      5.030
REMARK  Name = 
REMARK  9 active torsions:
REMARK  status: ('A' for Active; 'I' for Inactive)
REMARK    1  A    between atoms: C_2  and  C_3
REMARK    2  A    between atoms: C_3  and  C_4
REMARK    3  A    between atoms: C_4  and  C_5
REMARK    4  A    between atoms: C_7  and  C_8
REMARK    5  A    between atoms: C_8  and  C_9
REMARK    6  A    between atoms: C_14  and  C_15
REMARK    7  A    between atoms: C_15  and  C_16
REMARK    8  A    between atoms: N_18  and  C_19
REMARK    9  A    between atoms: C_19  and  C_20
REMARK                            x       y       z     vdW  Elec       q    Type
REMARK                         _______ _______ _______ _____ _____    ______ ____
ROOT
ATOM      9  C   UNL     1      -0.701   0.830  24.984  0.00  0.00    +0.024 C 
ATOM     10  C   UNL     1      -0.175   0.522  24.429  0.00  0.00    +0.089 C 
ATOM     11  N   UNL     1       0.163   1.016  23.862  0.00  0.00    -0.218 NA
ATOM     12  C   UNL     1      -0.025   1.818  23.849  0.00  0.00    +0.089 C 
ATOM     13  C   UNL     1      -0.552   2.128  24.403  0.00  0.00    +0.019 C 
ATOM     14  C   UNL     1      -0.890   1.634  24.971  0.00  0.00    +0.012 C 
ENDROOT
BRANCH   9   8
ATOM      8  C   UNL     1      -1.039   0.337  25.552  0.00  0.00    +0.051 C 
BRANCH   8   7
ATOM      5  C   UNL     1      -1.861  -1.569  25.053  0.00  0.00    +0.154 A 
ATOM      6  C   UNL     1      -1.951  -0.763  25.206  0.00  0.00    +0.054 A 
ATOM      7  C   UNL     1      -1.204  -0.450  25.369  0.00  0.00    +0.100 A 
ATOM     26  N   UNL     1      -0.653  -1.062  25.316  0.00  0.00    -0.082 NA
ATOM     27  O   UNL     1      -1.059  -1.754  25.121  0.00  0.00    -0.358 OA
BRANCH   5   4
ATOM      4  C   UNL     1      -2.466  -2.097  24.865  0.00  0.00    +0.067 C 
BRANCH   4   3
ATOM      3  C   UNL     1      -3.151  -1.825  24.493  0.00  0.00    +0.008 C 
BRANCH   3   2
ATOM      1  C   UNL     1      -4.367  -2.110  23.799  0.00  0.00    +0.000 C 
ATOM      2  C   UNL     1      -3.742  -2.359  24.277  0.00  0.00    +0.000 C 
ENDBRANCH   3   2
ENDBRANCH   4   3
ENDBRANCH   5   4
ENDBRANCH   8   7
ENDBRANCH   9   8
BRANCH  14  15
ATOM     15  C   UNL     1      -1.417   1.943  25.527  0.00  0.00    +0.087 C 
BRANCH  15  16
ATOM     16  C   UNL     1      -1.960   2.521  25.301  0.00  0.00    +0.242 C 
ATOM     17  O   UNL     1      -1.699   3.277  25.098  0.00  0.00    -0.273 OA
ATOM     18  N   UNL     1      -2.765   2.343  25.279  0.00  0.00    -0.201 NA
BRANCH  18  19
ATOM     19  C   UNL     1      -3.310   2.921  25.054  0.00  0.00    +0.141 C 
BRANCH  19  20
ATOM     20  C   UNL     1      -4.118   2.764  25.095  0.00  0.00    -0.001 A 
ATOM     21  C   UNL     1      -4.616   3.269  25.518  0.00  0.00    -0.003 A 
ATOM     22  C   UNL     1      -5.424   3.112  25.559  0.00  0.00    -0.000 A 
ATOM     23  C   UNL     1      -5.736   2.451  25.178  0.00  0.00    -0.000 A 
ATOM     24  C   UNL     1      -5.239   1.946  24.755  0.00  0.00    -0.000 A 
ATOM     25  C   UNL     1      -4.430   2.103  24.714  0.00  0.00    -0.003 A 
ENDBRANCH  19  20
ENDBRANCH  18  19
ENDBRANCH  15  16
ENDBRANCH  14  15
TORSDOF 9
ENDMDL
MODEL 9
REMARK VINA RESULT:     -10.3      1.899      3.703
REMARK  Name = 
REMARK  9 active torsions:
REMARK  status: ('A' for Active; 'I' for Inactive)
REMARK    1  A    between atoms: C_2  and  C_3
REMARK    2  A    between atoms: C_3  and  C_4
REMARK    3  A    between atoms: C_4  and  C_5
REMARK    4  A    between atoms: C_7  and  C_8
REMARK    5  A    between atoms: C_8  and  C_9
REMARK    6  A    between atoms: C_14  and  C_15
REMARK    7  A    between atoms: C_15  and  C_16
REMARK    8  A    between atoms: N_18  and  C_19
REMARK    9  A    between atoms: C_19  and  C_20
REMARK                            x       y       z     vdW  Elec       q    Type
REMARK                         _______ _______ _______ _____ _____    ______ ____
ROOT
ATOM      9  C   UNL     1      -1.552   0.134  24.691  0.00  0.00    +0.024 C 
ATOM     10  C   UNL     1      -1.013  -0.125  25.259  0.00  0.00    +0.089 C 
ATOM     11  N   UNL     1      -1.261  -0.627  25.865  0.00  0.00    -0.218 NA
ATOM     12  C   UNL     1      -2.047  -0.870  25.903  0.00  0.00    +0.089 C 
ATOM     13  C   UNL     1      -2.588  -0.612  25.335  0.00  0.00    +0.019 C 
ATOM     14  C   UNL     1      -2.340  -0.110  24.730  0.00  0.00    +0.012 C 
ENDROOT
BRANCH   9   8
ATOM      8  C   UNL     1      -1.305   0.636  24.086  0.00  0.00    +0.051 C 
BRANCH   8   7
ATOM      5  C   UNL     1      -0.408   2.540  24.440  0.00  0.00    +0.154 A 
ATOM      6  C   UNL     1      -1.057   2.078  24.226  0.00  0.00    +0.054 A 
ATOM      7  C   UNL     1      -0.827   1.286  24.258  0.00  0.00    +0.100 A 
ATOM     26  N   UNL     1      -0.036   1.258  24.491  0.00  0.00    -0.082 NA
ATOM     27  O   UNL     1       0.223   2.033  24.604  0.00  0.00    -0.358 OA
BRANCH   5   4
ATOM      4  C   UNL     1      -0.392   3.363  24.482  0.00  0.00    +0.067 C 
BRANCH   4   3
ATOM      3  C   UNL     1      -0.969   3.766  24.914  0.00  0.00    +0.008 C 
BRANCH   3   2
ATOM      1  C   UNL     1      -1.596   4.996  25.284  0.00  0.00    +0.000 C 
ATOM      2  C   UNL     1      -0.964   4.591  24.940  0.00  0.00    +0.000 C 
ENDBRANCH   3   2
ENDBRANCH   4   3
ENDBRANCH   5   4
ENDBRANCH   8   7
ENDBRANCH   9   8
BRANCH  14  15
ATOM     15  C   UNL     1      -2.880   0.149  24.161  0.00  0.00    +0.087 C 
BRANCH  15  16
ATOM     16  C   UNL     1      -3.669   0.270  24.368  0.00  0.00    +0.242 C 
ATOM     17  O   UNL     1      -4.185  -0.372  24.424  0.00  0.00    -0.273 OA
ATOM     18  N   UNL     1      -3.943   1.033  24.519  0.00  0.00    -0.201 NA
BRANCH  18  19
ATOM     19  C   UNL     1      -4.733   1.155  24.726  0.00  0.00    +0.141 C 
BRANCH  19  20
ATOM     20  C   UNL     1      -4.976   1.892  25.005  0.00  0.00    -0.001 A 
ATOM     21  C   UNL     1      -5.532   1.939  25.613  0.00  0.00    -0.003 A 
ATOM     22  C   UNL     1      -5.776   2.676  25.892  0.00  0.00    -0.000 A 
ATOM     23  C   UNL     1      -5.465   3.365  25.564  0.00  0.00    -0.000 A 
ATOM     24  C   UNL     1      -4.909   3.319  24.956  0.00  0.00    -0.000 A 
ATOM     25  C   UNL     1      -4.665   2.581  24.676  0.00  0.00    -0.003 A 
ENDBRANCH  19  20
ENDBRANCH  18  19
ENDBRANCH  15  16
ENDBRANCH  14  15
TORSDOF 9
ENDMDL
MODEL 10
REMARK VINA RESULT:     -10.2      1.878      4.244
REMARK  Name = 
REMARK  9 active torsions:
REMARK  status: ('A' for Active; 'I' for Inactive)
REMARK    1  A    between atoms: C_2  and  C_3
REMARK    2  A    between atoms: C_3  and  C_4
REMARK    3  A    between atoms: C_4  and  C_5
REMARK    4  A    between atoms: C_7  and  C_8
REMARK    5  A    between atoms: C_8  and  C_9
REMARK    6  A    between atoms: C_14  and  C_15
REMARK    7  A    between atoms: C_15  and  C_16
REMARK    8  A    between atoms: N_18  and  C_19
REMARK    9  A    between atoms: C_19  and  C_20
REMARK                            x       y       z     vdW  Elec       q    Type
REMARK                         _______ _______ _______ _____ _____    ______ ____
ROOT
ATOM      9  C   UNL     1      -2.955  -1.369  25.037  0.00  0.00    +0.024 C 
ATOM     10  C   UNL     1      -2.713  -2.024  24.597  0.00  0.00    +0.089 C 
ATOM     11  N   UNL     1      -3.232  -2.373  24.059  0.00  0.00    -0.218 NA
ATOM     12  C   UNL     1      -3.992  -2.069  23.961  0.00  0.00    +0.089 C 
ATOM     13  C   UNL     1      -4.234  -1.414  24.401  0.00  0.00    +0.019 C 
ATOM     14  C   UNL     1      -3.716  -1.064  24.939  0.00  0.00    +0.012 C 
ENDROOT
BRANCH   9   8
ATOM      8  C   UNL     1      -2.437  -1.020  25.575  0.00  0.00    +0.051 C 
BRANCH   8   7
ATOM      5  C   UNL     1      -0.639  -0.080  24.912  0.00  0.00    +0.154 A 
ATOM      6  C   UNL     1      -1.440  -0.047  25.105  0.00  0.00    +0.054 A 
ATOM      7  C   UNL     1      -1.678  -0.803  25.336  0.00  0.00    +0.100 A 
ATOM     26  N   UNL     1      -1.023  -1.303  25.285  0.00  0.00    -0.082 NA
ATOM     27  O   UNL     1      -0.381  -0.856  25.023  0.00  0.00    -0.358 OA
BRANCH   5   4
ATOM      4  C   UNL     1      -0.176   0.552  24.654  0.00  0.00    +0.067 C 
BRANCH   4   3
ATOM      3  C   UNL     1      -0.435   1.327  24.768  0.00  0.00    +0.008 C 
BRANCH   3   2
ATOM      1  C   UNL     1      -0.206   2.735  24.669  0.00  0.00    +0.000 C 
ATOM      2  C   UNL     1       0.030   1.959  24.512  0.00  0.00    +0.000 C 
ENDBRANCH   3   2
ENDBRANCH   4   3
ENDBRANCH   5   4
ENDBRANCH   8   7
ENDBRANCH   9   8
BRANCH  14  15
ATOM     15  C   UNL     1      -3.958  -0.409  25.380  0.00  0.00    +0.087 C 
BRANCH  15  16
ATOM     16  C   UNL     1      -4.443   0.162  25.035  0.00  0.00    +0.242 C 
ATOM     17  O   UNL     1      -5.173  -0.052  24.717  0.00  0.00    -0.273 OA
ATOM     18  N   UNL     1      -4.196   0.949  25.008  0.00  0.00    -0.201 NA
BRANCH  18  19
ATOM     19  C   UNL     1      -4.681   1.522  24.664  0.00  0.00    +0.141 C 
BRANCH  19  20
ATOM     20  C   UNL     1      -4.403   2.293  24.568  0.00  0.00    -0.001 A 
ATOM     21  C   UNL     1      -4.524   2.851  25.164  0.00  0.00    -0.003 A 
ATOM     22  C   UNL     1      -4.247   3.622  25.068  0.00  0.00    -0.000 A 
ATOM     23  C   UNL     1      -3.850   3.835  24.379  0.00  0.00    -0.000 A 
ATOM     24  C   UNL     1      -3.729   3.277  23.783  0.00  0.00    -0.000 A 
ATOM     25  C   UNL     1      -4.006   2.506  23.878  0.00  0.00    -0.003 A 
ENDBRANCH  19  20
ENDBRANCH  18  19
ENDBRANCH  15  16
ENDBRANCH  14  15
TORSDOF 9
ENDMDL
