MODEL 1
REMARK VINA RESULT:     -10.4      0.000      0.000
REMARK  Name = 
REMARK  9 active torsions:
REMARK  status: ('A' for Active; 'I' for Inactive)
REMARK    1  A    between atoms: N_2  and  C_4
REMARK    2  A    between atoms: C_4  and  C_5
REMARK    3  A    between atoms: C_5  and  N_6
REMARK    4  A    between atoms: N_6  and  C_8
REMARK    5  A    between atoms: C_11  and  C_12
REMARK    6  A    between atoms: C_15  and  C_16
REMARK    7  A    between atoms: C_16  and  N_17
REMARK    8  A    between atoms: C_18  and  C_20
REMARK    9  A    between atoms: C_23  and  C_26
REMARK                            x       y       z     vdW  Elec       q    Type
REMARK                         _______ _______ _______ _____ _____    ______ ____
ROOT
ATOM      8  C   UNL     1      -1.971   2.103  24.453  0.00  0.00    +0.120 C 
ATOM      9  C   UNL     1      -1.628   2.787  24.762  0.00  0.00    +0.198 C 
ATOM     10  O   UNL     1      -0.891   3.096  24.556  0.00  0.00    -0.219 OA
ATOM     11  C   UNL     1      -2.152   3.108  25.312  0.00  0.00    +0.180 C 
ATOM     14  O   UNL     1      -2.819   2.623  25.344  0.00  0.00    -0.350 OA
ATOM     15  C   UNL     1      -2.707   2.001  24.812  0.00  0.00    +0.154 C 
ENDROOT
BRANCH   8   6
ATOM      6  N   UNL     1      -1.637   1.608  23.884  0.00  0.00    -0.267 NA
ATOM      7  C   UNL     1      -1.876   1.664  23.095  0.00  0.00    +0.090 C 
BRANCH   6   5
ATOM      5  C   UNL     1      -1.063   1.057  24.102  0.00  0.00    +0.090 C 
BRANCH   5   4
ATOM      4  C   UNL     1      -0.756   0.536  23.540  0.00  0.00    +0.090 C 
BRANCH   4   2
ATOM      1  C   UNL     1       0.609   0.153  23.374  0.00  0.00    +0.090 C 
ATOM      2  N   UNL     1      -0.124   0.045  23.735  0.00  0.00    -0.269 NA
ATOM      3  C   UNL     1      -0.224  -0.556  24.291  0.00  0.00    +0.090 C 
ENDBRANCH   4   2
ENDBRANCH   5   4
ENDBRANCH   6   5
ENDBRANCH   8   6
BRANCH  11  12
ATOM     12  C   UNL     1      -2.031   3.795  25.754  0.00  0.00    +0.214 C 
ATOM     13  O   UNL     1      -2.658   4.137  26.165  0.00  0.00    -0.218 OA
ENDBRANCH  11  12
BRANCH  15  16
ATOM     16  C   UNL     1      -3.238   1.387  24.666  0.00  0.00    +0.146 C 
BRANCH  16  17
ATOM     17  N   UNL     1      -4.050   1.525  24.700  0.00  0.00    -0.199 NA
ATOM     18  C   UNL     1      -4.574   0.891  24.769  0.00  0.00    +0.265 C 
ATOM     19  O   UNL     1      -5.387   1.031  24.803  0.00  0.00    -0.268 OA
BRANCH  18  20
ATOM     20  C   UNL     1      -4.286   0.120  24.804  0.00  0.00    +0.055 A 
ATOM     21  C   UNL     1      -4.286  -0.351  24.126  0.00  0.00    +0.005 A 
ATOM     22  C   UNL     1      -3.998  -1.124  24.161  0.00  0.00    +0.004 A 
ATOM     23  C   UNL     1      -3.709  -1.424  24.874  0.00  0.00    +0.071 A 
ATOM     24  C   UNL     1      -3.709  -0.953  25.551  0.00  0.00    +0.004 A 
ATOM     25  C   UNL     1      -3.997  -0.181  25.515  0.00  0.00    +0.005 A 
BRANCH  23  26
ATOM     26  C   UNL     1      -3.421  -2.197  24.909  0.00  0.00    +0.419 C 
ATOM     27  F   UNL     1      -3.133  -2.969  24.943  0.00  0.00    -0.166 F 
ATOM     28  F   UNL     1      -3.123  -2.120  24.143  0.00  0.00    -0.166 F 
ATOM     29  F   UNL     1      -3.718  -2.274  25.674  0.00  0.00    -0.166 F 
ENDBRANCH  23  26
ENDBRANCH  18  20
ENDBRANCH  16  17
ENDBRANCH  15  16
TORSDOF 9
ENDMDL
MODEL 2
REMARK VINA RESULT:     -10.2      1.694      2.907
REMARK  Name = 
REMARK  9 active torsions:
REMARK  status: ('A' for Active; 'I' for Inactive)
REMARK    1  A    between atoms: N_2  and  C_4
REMARK    2  A    between atoms: C_4  and  C_5
REMARK    3  A    between atoms: C_5  and  N_6
REMARK    4  A    between atoms: N_6  and  C_8
REMARK    5  A    between atoms: C_11  and  C_12
REMARK    6  A    between atoms: C_15  and  C_16
REMARK    7  A    between atoms: C_16  and  N_17
REMARK    8  A    between atoms: C_18  and  C_20
REMARK    9  A    between atoms: C_23  and  C_26
REMARK                            x       y       z     vdW  Elec       q    Type
REMARK                         _______ _______ _______ _____ _____    ______ ____
ROOT
ATOM      8  C   UNL     1      -1.970   1.700  24.331  0.00  0.00    +0.120 C 
ATOM      9  C   UNL     1      -1.394   2.256  24.130  0.00  0.00    +0.198 C 
ATOM     10  O   UNL     1      -1.523   2.961  23.721  0.00  0.00    -0.219 OA
ATOM     11  C   UNL     1      -0.668   1.983  24.411  0.00  0.00    +0.180 C 
ATOM     14  O   UNL     1      -0.794   1.259  24.785  0.00  0.00    -0.350 OA
ATOM     15  C   UNL     1      -1.599   1.083  24.736  0.00  0.00    +0.154 C 
ENDROOT
BRANCH   8   6
ATOM      6  N   UNL     1      -2.775   1.751  24.158  0.00  0.00    -0.267 NA
ATOM      7  C   UNL     1      -3.054   1.508  23.419  0.00  0.00    +0.090 C 
BRANCH   6   5
ATOM      5  C   UNL     1      -3.301   2.045  24.721  0.00  0.00    +0.090 C 
BRANCH   5   4
ATOM      4  C   UNL     1      -4.073   2.237  24.504  0.00  0.00    +0.090 C 
BRANCH   4   2
ATOM      1  C   UNL     1      -5.198   1.973  25.343  0.00  0.00    +0.090 C 
ATOM      2  N   UNL     1      -4.612   2.487  25.076  0.00  0.00    -0.269 NA
ATOM      3  C   UNL     1      -4.565   3.253  25.380  0.00  0.00    +0.090 C 
ENDBRANCH   4   2
ENDBRANCH   5   4
ENDBRANCH   6   5
ENDBRANCH   8   6
BRANCH  11  12
ATOM     12  C   UNL     1       0.058   2.368  24.331  0.00  0.00    +0.214 C 
ATOM     13  O   UNL     1       0.760   1.939  24.383  0.00  0.00    -0.218 OA
ENDBRANCH  11  12
BRANCH  15  16
ATOM     16  C   UNL     1      -1.968   0.410  25.039  0.00  0.00    +0.146 C 
BRANCH  16  17
ATOM     17  N   UNL     1      -1.658   0.032  25.703  0.00  0.00    -0.199 NA
ATOM     18  C   UNL     1      -1.898  -0.735  25.890  0.00  0.00    +0.265 C 
ATOM     19  O   UNL     1      -1.587  -1.113  26.555  0.00  0.00    -0.268 OA
BRANCH  18  20
ATOM     20  C   UNL     1      -2.448  -1.123  25.414  0.00  0.00    +0.055 A 
ATOM     21  C   UNL     1      -3.249  -1.109  25.615  0.00  0.00    +0.005 A 
ATOM     22  C   UNL     1      -3.799  -1.498  25.138  0.00  0.00    +0.004 A 
ATOM     23  C   UNL     1      -3.549  -1.900  24.463  0.00  0.00    +0.071 A 
ATOM     24  C   UNL     1      -2.749  -1.913  24.263  0.00  0.00    +0.004 A 
ATOM     25  C   UNL     1      -2.199  -1.525  24.739  0.00  0.00    +0.005 A 
BRANCH  23  26
ATOM     26  C   UNL     1      -4.100  -2.288  23.986  0.00  0.00    +0.419 C 
ATOM     27  F   UNL     1      -4.651  -2.677  23.510  0.00  0.00    -0.166 F 
ATOM     28  F   UNL     1      -4.302  -1.570  23.634  0.00  0.00    -0.166 F 
ATOM     29  F   UNL     1      -3.898  -3.006  24.338  0.00  0.00    -0.166 F 
ENDBRANCH  23  26
ENDBRANCH  18  20
ENDBRANCH  16  17
ENDBRANCH  15  16
TORSDOF 9
ENDMDL
MODEL 3
REMARK VINA RESULT:      -9.7      1.648      2.343
REMARK  Name = 
REMARK  9 active torsions:
REMARK  status: ('A' for Active; 'I' for Inactive)
REMARK    1  A    between atoms: N_2  and  C_4
REMARK    2  A    between atoms: C_4  and  C_5
REMARK    3  A    between atoms: C_5  and  N_6
REMARK    4  A    between atoms: N_6  and  C_8
REMARK    5  A    between atoms: C_11  and  C_12
REMARK    6  A    between atoms: C_15  and  C_16
REMARK    7  A    between atoms: C_16  and  N_17
REMARK    8  A    between atoms: C_18  and  C_20
REMARK    9  A    between atoms: C_23  and  C_26
REMARK                            x       y       z     vdW  Elec       q    Type
REMARK                         _______ _______ _______ _____ _____    ______ ____
ROOT
ATOM      8  C   UNL     1      -3.732   2.303  24.677  0.00  0.00    +0.120 C 
ATOM      9  C   UNL     1      -4.196   2.919  24.969  0.00  0.00    +0.198 C 
ATOM     10  O   UNL     1      -4.028   3.724  24.908  0.00  0.00    -0.219 OA
ATOM     11  C   UNL     1      -4.859   2.588  25.333  0.00  0.00    +0.180 C 
ATOM     14  O   UNL     1      -4.804   1.767  25.266  0.00  0.00    -0.350 OA
ATOM     15  C   UNL     1      -4.108   1.591  24.860  0.00  0.00    +0.154 C 
ENDROOT
BRANCH   8   6
ATOM      6  N   UNL     1      -3.018   2.384  24.272  0.00  0.00    -0.267 NA
ATOM      7  C   UNL     1      -3.012   2.407  23.446  0.00  0.00    +0.090 C 
BRANCH   6   5
ATOM      5  C   UNL     1      -2.310   2.443  24.691  0.00  0.00    +0.090 C 
BRANCH   5   4
ATOM      4  C   UNL     1      -1.606   2.603  24.292  0.00  0.00    +0.090 C 
BRANCH   4   2
ATOM      1  C   UNL     1      -0.770   2.969  25.391  0.00  0.00    +0.090 C 
ATOM      2  N   UNL     1      -0.885   2.551  24.689  0.00  0.00    -0.269 NA
ATOM      3  C   UNL     1      -0.279   2.081  24.385  0.00  0.00    +0.090 C 
ENDBRANCH   4   2
ENDBRANCH   5   4
ENDBRANCH   6   5
ENDBRANCH   8   6
BRANCH  11  12
ATOM     12  C   UNL     1      -5.469   3.005  25.700  0.00  0.00    +0.214 C 
ATOM     13  O   UNL     1      -5.869   2.672  26.340  0.00  0.00    -0.218 OA
ENDBRANCH  11  12
BRANCH  15  16
ATOM     16  C   UNL     1      -3.834   0.836  24.671  0.00  0.00    +0.146 C 
BRANCH  16  17
ATOM     17  N   UNL     1      -4.366   0.251  24.435  0.00  0.00    -0.199 NA
ATOM     18  C   UNL     1      -4.146  -0.544  24.468  0.00  0.00    +0.265 C 
ATOM     19  O   UNL     1      -4.679  -1.129  24.232  0.00  0.00    -0.268 OA
BRANCH  18  20
ATOM     20  C   UNL     1      -3.395  -0.753  24.735  0.00  0.00    +0.055 A 
ATOM     21  C   UNL     1      -2.789  -0.895  24.192  0.00  0.00    +0.005 A 
ATOM     22  C   UNL     1      -2.037  -1.105  24.460  0.00  0.00    +0.004 A 
ATOM     23  C   UNL     1      -1.892  -1.173  25.269  0.00  0.00    +0.071 A 
ATOM     24  C   UNL     1      -2.498  -1.032  25.811  0.00  0.00    +0.004 A 
ATOM     25  C   UNL     1      -3.249  -0.822  25.543  0.00  0.00    +0.005 A 
BRANCH  23  26
ATOM     26  C   UNL     1      -1.140  -1.383  25.536  0.00  0.00    +0.419 C 
ATOM     27  F   UNL     1      -0.388  -1.593  25.804  0.00  0.00    -0.166 F 
ATOM     28  F   UNL     1      -1.083  -0.666  25.941  0.00  0.00    -0.166 F 
ATOM     29  F   UNL     1      -1.196  -2.100  25.132  0.00  0.00    -0.166 F 
ENDBRANCH  23  26
ENDBRANCH  18  20
ENDBRANCH  16  17
ENDBRANCH  15  16
TORSDOF 9
ENDMDL
MODEL 4
REMARK VINA RESULT:      -9.6      2.936      5.054
REMARK  Name = 
REMARK  9 active torsions:
REMARK  status: ('A' for Active; 'I' for Inactive)
REMARK    1  A    between atoms: N_2  and  C_4
REMARK    2  A    between atoms: C_4  and  C_5
REMARK    3  A    between atoms: C_5  and  N_6
REMARK    4  A    between atoms: N_6  and  C_8
REMARK    5  A    between atoms: C_11  and  C_12
REMARK    6  A    between atoms: C_15  and  C_16
REMARK    7  A    between atoms: C_16  and  N_17
REMARK    8  A    between atoms: C_18  and  C_20
REMARK    9  A    between atoms: C_23  and  C_26
REMARK                            x       y       z     vdW  Elec       q    Type
REMARK                         _______ _______ _______ _____ _____    ______ ____
ROOT
ATOM      8  C   UNL     1      -2.681   0.625  24.541  0.00  0.00    +0.120 C 
ATOM      9  C   UNL     1      -2.921  -0.130  24.771  0.00  0.00    +0.198 C 
ATOM     10  O   UNL     1      -3.686  -0.435  24.712  0.00  0.00    -0.219 OA
ATOM     11  C   UNL     1      -2.263  -0.527  25.069  0.00  0.00    +0.180 C 
ATOM     14  O   UNL     1      -1.615  -0.017  25.023  0.00  0.00    -0.350 OA
ATOM     15  C   UNL     1      -1.873   0.695  24.697  0.00  0.00    +0.154 C 
ENDROOT
BRANCH   8   6
ATOM      6  N   UNL     1      -3.164   1.208  24.212  0.00  0.00    -0.267 NA
ATOM      7  C   UNL     1      -3.148   1.346  23.398  0.00  0.00    +0.090 C 
BRANCH   6   5
ATOM      5  C   UNL     1      -3.662   1.653  24.696  0.00  0.00    +0.090 C 
BRANCH   5   4
ATOM      4  C   UNL     1      -4.186   2.196  24.362  0.00  0.00    +0.090 C 
BRANCH   4   2
ATOM      1  C   UNL     1      -4.540   3.249  25.259  0.00  0.00    +0.090 C 
ATOM      2  N   UNL     1      -4.746   2.573  24.835  0.00  0.00    -0.269 NA
ATOM      3  C   UNL     1      -5.514   2.275  24.882  0.00  0.00    +0.090 C 
ENDBRANCH   4   2
ENDBRANCH   5   4
ENDBRANCH   6   5
ENDBRANCH   8   6
BRANCH  11  12
ATOM     12  C   UNL     1      -2.253  -1.299  25.361  0.00  0.00    +0.214 C 
ATOM     13  O   UNL     1      -1.588  -1.774  25.250  0.00  0.00    -0.218 OA
ENDBRANCH  11  12
BRANCH  15  16
ATOM     16  C   UNL     1      -1.407   1.360  24.552  0.00  0.00    +0.146 C 
BRANCH  16  17
ATOM     17  N   UNL     1      -0.605   1.273  24.383  0.00  0.00    -0.199 NA
ATOM     18  C   UNL     1      -0.101   1.925  24.428  0.00  0.00    +0.265 C 
ATOM     19  O   UNL     1       0.702   1.837  24.259  0.00  0.00    -0.268 OA
BRANCH  18  20
ATOM     20  C   UNL     1      -0.399   2.663  24.642  0.00  0.00    +0.055 A 
ATOM     21  C   UNL     1      -0.596   3.212  24.058  0.00  0.00    +0.005 A 
ATOM     22  C   UNL     1      -0.895   3.952  24.271  0.00  0.00    +0.004 A 
ATOM     23  C   UNL     1      -0.996   4.141  25.067  0.00  0.00    +0.071 A 
ATOM     24  C   UNL     1      -0.799   3.591  25.651  0.00  0.00    +0.004 A 
ATOM     25  C   UNL     1      -0.501   2.853  25.437  0.00  0.00    +0.005 A 
BRANCH  23  26
ATOM     26  C   UNL     1      -1.295   4.880  25.281  0.00  0.00    +0.419 C 
ATOM     27  F   UNL     1      -1.594   5.619  25.494  0.00  0.00    -0.166 F 
ATOM     28  F   UNL     1      -0.672   5.247  24.883  0.00  0.00    -0.166 F 
ATOM     29  F   UNL     1      -1.918   4.514  25.678  0.00  0.00    -0.166 F 
ENDBRANCH  23  26
ENDBRANCH  18  20
ENDBRANCH  16  17
ENDBRANCH  15  16
TORSDOF 9
ENDMDL
MODEL 5
REMARK VINA RESULT:      -9.3      2.415      3.736
REMARK  Name = 
REMARK  9 active torsions:
REMARK  status: ('A' for Active; 'I' for Inactive)
REMARK    1  A    between atoms: N_2  and  C_4
REMARK    2  A    between atoms: C_4  and  C_5
REMARK    3  A    between atoms: C_5  and  N_6
REMARK    4  A    between atoms: N_6  and  C_8
REMARK    5  A    between atoms: C_11  and  C_12
REMARK    6  A    between atoms: C_15  and  C_16
REMARK    7  A    between atoms: C_16  and  N_17
REMARK    8  A    between atoms: C_18  and  C_20
REMARK    9  A    between atoms: C_23  and  C_26
REMARK                            x       y       z     vdW  Elec       q    Type
REMARK                         _______ _______ _______ _____ _____    ______ ____
ROOT
ATOM      8  C   UNL     1      -1.815   0.211  24.653  0.00  0.00    +0.120 C 
ATOM      9  C   UNL     1      -1.007   0.042  24.674  0.00  0.00    +0.198 C 
ATOM     10  O   UNL     1      -0.659  -0.622  25.018  0.00  0.00    -0.219 OA
ATOM     11  C   UNL     1      -0.609   0.654  24.290  0.00  0.00    +0.180 C 
ATOM     14  O   UNL     1      -1.170   1.202  24.032  0.00  0.00    -0.350 OA
ATOM     15  C   UNL     1      -1.915   0.928  24.257  0.00  0.00    +0.154 C 
ENDROOT
BRANCH   8   6
ATOM      6  N   UNL     1      -2.415  -0.255  24.973  0.00  0.00    -0.267 NA
ATOM      7  C   UNL     1      -2.626  -0.168  25.767  0.00  0.00    +0.090 C 
BRANCH   6   5
ATOM      5  C   UNL     1      -2.806  -0.807  24.501  0.00  0.00    +0.090 C 
BRANCH   5   4
ATOM      4  C   UNL     1      -3.349  -1.328  24.839  0.00  0.00    +0.090 C 
BRANCH   4   2
ATOM      1  C   UNL     1      -4.279  -1.739  23.836  0.00  0.00    +0.090 C 
ATOM      2  N   UNL     1      -3.689  -1.924  24.380  0.00  0.00    -0.269 NA
ATOM      3  C   UNL     1      -3.438  -2.705  24.467  0.00  0.00    +0.090 C 
ENDBRANCH   4   2
ENDBRANCH   5   4
ENDBRANCH   6   5
ENDBRANCH   8   6
BRANCH  11  12
ATOM     12  C   UNL     1       0.208   0.710  24.183  0.00  0.00    +0.214 C 
ATOM     13  O   UNL     1       0.546   1.426  23.955  0.00  0.00    -0.218 OA
ENDBRANCH  11  12
BRANCH  15  16
ATOM     16  C   UNL     1      -2.635   1.305  24.110  0.00  0.00    +0.146 C 
BRANCH  16  17
ATOM     17  N   UNL     1      -2.735   1.753  23.425  0.00  0.00    -0.199 NA
ATOM     18  C   UNL     1      -3.350   2.300  23.377  0.00  0.00    +0.265 C 
ATOM     19  O   UNL     1      -3.450   2.748  22.690  0.00  0.00    -0.268 OA
BRANCH  18  20
ATOM     20  C   UNL     1      -3.866   2.399  24.012  0.00  0.00    +0.055 A 
ATOM     21  C   UNL     1      -3.665   2.909  24.630  0.00  0.00    +0.005 A 
ATOM     22  C   UNL     1      -4.181   3.008  25.266  0.00  0.00    +0.004 A 
ATOM     23  C   UNL     1      -4.896   2.598  25.285  0.00  0.00    +0.071 A 
ATOM     24  C   UNL     1      -5.096   2.088  24.668  0.00  0.00    +0.004 A 
ATOM     25  C   UNL     1      -4.581   1.989  24.032  0.00  0.00    +0.005 A 
BRANCH  23  26
ATOM     26  C   UNL     1      -5.412   2.697  25.922  0.00  0.00    +0.419 C 
ATOM     27  F   UNL     1      -5.928   2.797  26.558  0.00  0.00    -0.166 F 
ATOM     28  F   UNL     1      -5.416   1.881  26.046  0.00  0.00    -0.166 F 
ATOM     29  F   UNL     1      -5.408   3.512  25.798  0.00  0.00    -0.166 F 
ENDBRANCH  23  26
ENDBRANCH  18  20
ENDBRANCH  16  17
ENDBRANCH  15  16
TORSDOF 9
ENDMDL
MODEL 6
REMARK VINA RESULT:      -9.1      2.252      3.496
REMARK  Name = 
REMARK  9 active torsions:
REMARK  status: ('A' for Active; 'I' for Inactive)
REMARK    1  A    between atoms: N_2  and  C_4
REMARK    2  A    between atoms: C_4  and  C_5
REMARK    3  A    between atoms: C_5  and  N_6
REMARK    4  A    between atoms: N_6  and  C_8
REMARK    5  A    between atoms: C_11  and  C_12
REMARK    6  A    between atoms: C_15  and  C_16
REMARK    7  A    between atoms: C_16  and  N_17
REMARK    8  A    between atoms: C_18  and  C_20
REMARK    9  A    between atoms: C_23  and  C_26
REMARK                            x       y       z     vdW  Elec       q    Type
REMARK                         _______ _______ _______ _____ _____    ______ ____
ROOT
ATOM      8  C   UNL     1      -0.543   1.316  24.685  0.00  0.00    +0.120 C 
ATOM      9  C   UNL     1       0.170   1.342  24.271  0.00  0.00    +0.198 C 
ATOM     10  O   UNL     1       0.782   1.882  24.391  0.00  0.00    -0.219 OA
ATOM     11  C   UNL     1       0.164   0.732  23.715  0.00  0.00    +0.180 C 
ATOM     14  O   UNL     1      -0.554   0.329  23.786  0.00  0.00    -0.350 OA
ATOM     15  C   UNL     1      -0.991   0.690  24.385  0.00  0.00    +0.154 C 
ENDROOT
BRANCH   8   6
ATOM      6  N   UNL     1      -0.769   1.827  25.293  0.00  0.00    -0.267 NA
ATOM      7  C   UNL     1      -0.646   1.610  26.080  0.00  0.00    +0.090 C 
BRANCH   6   5
ATOM      5  C   UNL     1      -1.116   2.553  25.114  0.00  0.00    +0.090 C 
BRANCH   5   4
ATOM      4  C   UNL     1      -1.278   3.093  25.717  0.00  0.00    +0.090 C 
BRANCH   4   2
ATOM      1  C   UNL     1      -1.249   4.385  25.108  0.00  0.00    +0.090 C 
ATOM      2  N   UNL     1      -1.649   3.808  25.542  0.00  0.00    -0.269 NA
ATOM      3  C   UNL     1      -2.420   3.947  25.800  0.00  0.00    +0.090 C 
ENDBRANCH   4   2
ENDBRANCH   5   4
ENDBRANCH   6   5
ENDBRANCH   8   6
BRANCH  11  12
ATOM     12  C   UNL     1       0.768   0.555  23.182  0.00  0.00    +0.214 C 
ATOM     13  O   UNL     1       0.850  -0.212  22.890  0.00  0.00    -0.218 OA
ENDBRANCH  11  12
BRANCH  15  16
ATOM     16  C   UNL     1      -1.742   0.466  24.641  0.00  0.00    +0.146 C 
BRANCH  16  17
ATOM     17  N   UNL     1      -1.947  -0.332  24.671  0.00  0.00    -0.199 NA
ATOM     18  C   UNL     1      -2.741  -0.554  24.682  0.00  0.00    +0.265 C 
ATOM     19  O   UNL     1      -2.945  -1.354  24.713  0.00  0.00    -0.268 OA
BRANCH  18  20
ATOM     20  C   UNL     1      -3.331   0.022  24.663  0.00  0.00    +0.055 A 
ATOM     21  C   UNL     1      -3.712   0.245  25.361  0.00  0.00    +0.005 A 
ATOM     22  C   UNL     1      -4.302   0.822  25.342  0.00  0.00    +0.004 A 
ATOM     23  C   UNL     1      -4.511   1.174  24.626  0.00  0.00    +0.071 A 
ATOM     24  C   UNL     1      -4.130   0.950  23.929  0.00  0.00    +0.004 A 
ATOM     25  C   UNL     1      -3.541   0.374  23.948  0.00  0.00    +0.005 A 
BRANCH  23  26
ATOM     26  C   UNL     1      -5.101   1.750  24.607  0.00  0.00    +0.419 C 
ATOM     27  F   UNL     1      -5.692   2.327  24.588  0.00  0.00    -0.166 F 
ATOM     28  F   UNL     1      -4.589   2.262  24.211  0.00  0.00    -0.166 F 
ATOM     29  F   UNL     1      -5.614   1.239  25.002  0.00  0.00    -0.166 F 
ENDBRANCH  23  26
ENDBRANCH  18  20
ENDBRANCH  16  17
ENDBRANCH  15  16
TORSDOF 9
ENDMDL
MODEL 7
REMARK VINA RESULT:      -9.1      2.789      4.095
REMARK  Name = 
REMARK  9 active torsions:
REMARK  status: ('A' for Active; 'I' for Inactive)
REMARK    1  A    between atoms: N_2  and  C_4
REMARK    2  A    between atoms: C_4  and  C_5
REMARK    3  A    between atoms: C_5  and  N_6
REMARK    4  A    between atoms: N_6  and  C_8
REMARK    5  A    between atoms: C_11  and  C_12
REMARK    6  A    between atoms: C_15  and  C_16
REMARK    7  A    between atoms: C_16  and  N_17
REMARK    8  A    between atoms: C_18  and  C_20
REMARK    9  A    between atoms: C_23  and  C_26
REMARK                            x       y       z     vdW  Elec       q    Type
REMARK                         _______ _______ _______ _____ _____    ______ ____
ROOT
ATOM      8  C   UNL     1      -2.551   0.428  24.507  0.00  0.00    +0.120 C 
ATOM      9  C   UNL     1      -2.575  -0.373  24.704  0.00  0.00    +0.198 C 
ATOM     10  O   UNL     1      -2.026  -0.946  24.477  0.00  0.00    -0.219 OA
ATOM     11  C   UNL     1      -3.246  -0.501  25.167  0.00  0.00    +0.180 C 
ATOM     14  O   UNL     1      -3.636   0.222  25.256  0.00  0.00    -0.350 OA
ATOM     15  C   UNL     1      -3.206   0.795  24.848  0.00  0.00    +0.154 C 
ENDROOT
BRANCH   8   6
ATOM      6  N   UNL     1      -1.972   0.796  24.048  0.00  0.00    -0.267 NA
ATOM      7  C   UNL     1      -2.129   0.987  23.260  0.00  0.00    +0.090 C 
BRANCH   6   5
ATOM      5  C   UNL     1      -1.237   0.974  24.376  0.00  0.00    +0.090 C 
BRANCH   5   4
ATOM      4  C   UNL     1      -0.664   1.358  23.923  0.00  0.00    +0.090 C 
BRANCH   4   2
ATOM      1  C   UNL     1       0.739   1.098  23.852  0.00  0.00    +0.090 C 
ATOM      2  N   UNL     1       0.098   1.462  24.222  0.00  0.00    -0.269 NA
ATOM      3  C   UNL     1       0.218   1.930  24.890  0.00  0.00    +0.090 C 
ENDBRANCH   4   2
ENDBRANCH   5   4
ENDBRANCH   6   5
ENDBRANCH   8   6
BRANCH  11  12
ATOM     12  C   UNL     1      -3.485  -1.223  25.485  0.00  0.00    +0.214 C 
ATOM     13  O   UNL     1      -3.688  -1.276  26.283  0.00  0.00    -0.218 OA
ENDBRANCH  11  12
BRANCH  15  16
ATOM     16  C   UNL     1      -3.397   1.596  24.791  0.00  0.00    +0.146 C 
BRANCH  16  17
ATOM     17  N   UNL     1      -4.185   1.836  24.835  0.00  0.00    -0.199 NA
ATOM     18  C   UNL     1      -4.367   2.629  24.973  0.00  0.00    +0.265 C 
ATOM     19  O   UNL     1      -5.156   2.869  25.017  0.00  0.00    -0.268 OA
BRANCH  18  20
ATOM     20  C   UNL     1      -3.762   3.181  25.068  0.00  0.00    +0.055 A 
ATOM     21  C   UNL     1      -3.501   3.621  24.420  0.00  0.00    +0.005 A 
ATOM     22  C   UNL     1      -2.895   4.173  24.514  0.00  0.00    +0.004 A 
ATOM     23  C   UNL     1      -2.551   4.286  25.255  0.00  0.00    +0.071 A 
ATOM     24  C   UNL     1      -2.813   3.846  25.903  0.00  0.00    +0.004 A 
ATOM     25  C   UNL     1      -3.418   3.294  25.808  0.00  0.00    +0.005 A 
BRANCH  23  26
ATOM     26  C   UNL     1      -1.946   4.838  25.349  0.00  0.00    +0.419 C 
ATOM     27  F   UNL     1      -1.340   5.391  25.444  0.00  0.00    -0.166 F 
ATOM     28  F   UNL     1      -1.610   4.593  24.636  0.00  0.00    -0.166 F 
ATOM     29  F   UNL     1      -2.280   5.084  26.062  0.00  0.00    -0.166 F 
ENDBRANCH  23  26
ENDBRANCH  18  20
ENDBRANCH  16  17
ENDBRANCH  15  16
TORSDOF 9
ENDMDL
