MODEL 1
REMARK VINA RESULT:      -8.3      0.000      0.000
REMARK  Name = 
REMARK  4 active torsions:
REMARK  status: ('A' for Active; 'I' for Inactive)
REMARK    1  A    between atoms: C_5  and  N_8
REMARK    2  A    between atoms: N_8  and  C_9
REMARK    3  A    between atoms: C_12  and  C_13
REMARK    4  A    between atoms: C_13  and  N_14
REMARK                            x       y       z     vdW  Elec       q    Type
REMARK                         _______ _______ _______ _____ _____    ______ ____
ROOT
ATOM      9  C   UNL     1      -3.730   1.167  24.648  0.00  0.00    +0.135 C 
ATOM     10  C   UNL     1      -2.989   1.094  24.293  0.00  0.00    +0.162 C 
ATOM     11  O   UNL     1      -2.584   1.805  24.398  0.00  0.00    -0.350 OA
ATOM     12  C   UNL     1      -3.076   2.318  24.819  0.00  0.00    +0.169 C 
ATOM     18  C   UNL     1      -3.784   1.923  24.972  0.00  0.00    +0.199 C 
ATOM     19  O   UNL     1      -4.432   2.231  25.380  0.00  0.00    -0.219 OA
ENDROOT
BRANCH   9   8
ATOM      8  N   UNL     1      -4.315   0.585  24.673  0.00  0.00    -0.216 NA
BRANCH   8   5
ATOM      1  C   UNL     1      -3.466  -2.602  24.788  0.00  0.00    +0.090 C 
ATOM      2  N   UNL     1      -3.678  -1.805  24.760  0.00  0.00    -0.271 NA
ATOM      3  C   UNL     1      -3.641  -1.343  25.443  0.00  0.00    +0.074 C 
ATOM      4  C   UNL     1      -3.854  -0.546  25.413  0.00  0.00    +0.035 C 
ATOM      5  C   UNL     1      -4.103  -0.211  24.702  0.00  0.00    +0.076 C 
ATOM      6  C   UNL     1      -4.139  -0.673  24.019  0.00  0.00    +0.035 C 
ATOM      7  C   UNL     1      -3.927  -1.470  24.048  0.00  0.00    +0.074 C 
ENDBRANCH   8   5
ENDBRANCH   9   8
BRANCH  12  13
ATOM     13  C   UNL     1      -2.892   3.089  25.045  0.00  0.00    +0.147 C 
BRANCH  13  14
ATOM     14  N   UNL     1      -2.132   3.386  24.920  0.00  0.00    -0.203 NA
ATOM     15  C   UNL     1      -1.921   4.121  25.229  0.00  0.00    +0.242 C 
ATOM     16  C   UNL     1      -1.161   4.418  25.103  0.00  0.00    +0.096 C 
ATOM     17  O   UNL     1      -2.468   4.560  25.663  0.00  0.00    -0.273 OA
ENDBRANCH  13  14
ENDBRANCH  12  13
TORSDOF 4
ENDMDL
MODEL 2
REMARK VINA RESULT:      -7.7      1.297      4.596
REMARK  Name = 
REMARK  4 active torsions:
REMARK  status: ('A' for Active; 'I' for Inactive)
REMARK    1  A    between atoms: C_5  and  N_8
REMARK    2  A    between atoms: N_8  and  C_9
REMARK    3  A    between atoms: C_12  and  C_13
REMARK    4  A    between atoms: C_13  and  N_14
REMARK                            x       y       z     vdW  Elec       q    Type
REMARK                         _______ _______ _______ _____ _____    ______ ____
ROOT
ATOM      9  C   UNL     1      -3.770   1.748  24.873  0.00  0.00    +0.135 C 
ATOM     10  C   UNL     1      -2.997   1.471  24.788  0.00  0.00    +0.162 C 
ATOM     11  O   UNL     1      -3.034   0.666  24.608  0.00  0.00    -0.350 OA
ATOM     12  C   UNL     1      -3.828   0.446  24.583  0.00  0.00    +0.169 C 
ATOM     18  C   UNL     1      -4.283   1.115  24.747  0.00  0.00    +0.199 C 
ATOM     19  O   UNL     1      -5.107   1.146  24.779  0.00  0.00    -0.219 OA
ENDROOT
BRANCH   9   8
ATOM      8  N   UNL     1      -3.989   2.523  25.054  0.00  0.00    -0.216 NA
BRANCH   8   5
ATOM      1  C   UNL     1      -1.690   4.880  25.272  0.00  0.00    +0.090 C 
ATOM      2  N   UNL     1      -2.265   4.291  25.217  0.00  0.00    -0.271 NA
ATOM      3  C   UNL     1      -2.596   4.104  24.484  0.00  0.00    +0.074 C 
ATOM      4  C   UNL     1      -3.171   3.514  24.430  0.00  0.00    +0.035 C 
ATOM      5  C   UNL     1      -3.415   3.112  25.107  0.00  0.00    +0.076 C 
ATOM      6  C   UNL     1      -3.084   3.299  25.840  0.00  0.00    +0.035 C 
ATOM      7  C   UNL     1      -2.509   3.888  25.895  0.00  0.00    +0.074 C 
ENDBRANCH   8   5
ENDBRANCH   9   8
BRANCH  12  13
ATOM     13  C   UNL     1      -4.118  -0.309  24.422  0.00  0.00    +0.147 C 
BRANCH  13  14
ATOM     14  N   UNL     1      -3.681  -0.974  24.641  0.00  0.00    -0.203 NA
ATOM     15  C   UNL     1      -3.899  -1.720  24.366  0.00  0.00    +0.242 C 
ATOM     16  C   UNL     1      -3.462  -2.384  24.586  0.00  0.00    +0.096 C 
ATOM     17  O   UNL     1      -4.554  -1.802  23.872  0.00  0.00    -0.273 OA
ENDBRANCH  13  14
ENDBRANCH  12  13
TORSDOF 4
ENDMDL
MODEL 3
REMARK VINA RESULT:      -7.5      1.868      4.865
REMARK  Name = 
REMARK  4 active torsions:
REMARK  status: ('A' for Active; 'I' for Inactive)
REMARK    1  A    between atoms: C_5  and  N_8
REMARK    2  A    between atoms: N_8  and  C_9
REMARK    3  A    between atoms: C_12  and  C_13
REMARK    4  A    between atoms: C_13  and  N_14
REMARK                            x       y       z     vdW  Elec       q    Type
REMARK                         _______ _______ _______ _____ _____    ______ ____
ROOT
ATOM      9  C   UNL     1      -1.402   0.855  25.051  0.00  0.00    +0.135 C 
ATOM     10  C   UNL     1      -1.908   1.033  24.423  0.00  0.00    +0.162 C 
ATOM     11  O   UNL     1      -2.426   0.399  24.325  0.00  0.00    -0.350 OA
ATOM     12  C   UNL     1      -2.241  -0.172  24.891  0.00  0.00    +0.169 C 
ATOM     18  C   UNL     1      -1.608   0.110  25.340  0.00  0.00    +0.199 C 
ATOM     19  O   UNL     1      -1.245  -0.284  25.968  0.00  0.00    -0.219 OA
ENDROOT
BRANCH   9   8
ATOM      8  N   UNL     1      -0.797   1.336  25.338  0.00  0.00    -0.216 NA
BRANCH   8   5
ATOM      1  C   UNL     1      -1.003   4.613  25.009  0.00  0.00    +0.090 C 
ATOM      2  N   UNL     1      -0.952   3.794  25.092  0.00  0.00    -0.271 NA
ATOM      3  C   UNL     1      -1.297   3.423  25.743  0.00  0.00    +0.074 C 
ATOM      4  C   UNL     1      -1.245   2.603  25.824  0.00  0.00    +0.035 C 
ATOM      5  C   UNL     1      -0.849   2.156  25.257  0.00  0.00    +0.076 C 
ATOM      6  C   UNL     1      -0.504   2.527  24.606  0.00  0.00    +0.035 C 
ATOM      7  C   UNL     1      -0.555   3.347  24.523  0.00  0.00    +0.074 C 
ENDBRANCH   8   5
ENDBRANCH   9   8
BRANCH  12  13
ATOM     13  C   UNL     1      -2.621  -0.897  24.992  0.00  0.00    +0.147 C 
BRANCH  13  14
ATOM     14  N   UNL     1      -3.175  -1.153  24.436  0.00  0.00    -0.203 NA
ATOM     15  C   UNL     1      -3.574  -1.866  24.550  0.00  0.00    +0.242 C 
ATOM     16  C   UNL     1      -4.128  -2.121  23.994  0.00  0.00    +0.096 C 
ATOM     17  O   UNL     1      -3.421  -2.322  25.219  0.00  0.00    -0.273 OA
ENDBRANCH  13  14
ENDBRANCH  12  13
TORSDOF 4
ENDMDL
MODEL 4
REMARK VINA RESULT:      -7.4      2.070      4.114
REMARK  Name = 
REMARK  4 active torsions:
REMARK  status: ('A' for Active; 'I' for Inactive)
REMARK    1  A    between atoms: C_5  and  N_8
REMARK    2  A    between atoms: N_8  and  C_9
REMARK    3  A    between atoms: C_12  and  C_13
REMARK    4  A    between atoms: C_13  and  N_14
REMARK                            x       y       z     vdW  Elec       q    Type
REMARK                         _______ _______ _______ _____ _____    ______ ____
ROOT
ATOM      9  C   UNL     1      -3.793   0.635  24.514  0.00  0.00    +0.135 C 
ATOM     10  C   UNL     1      -3.145   1.021  24.850  0.00  0.00    +0.162 C 
ATOM     11  O   UNL     1      -2.549   0.462  24.969  0.00  0.00    -0.350 OA
ATOM     12  C   UNL     1      -2.829  -0.269  24.706  0.00  0.00    +0.169 C 
ATOM     18  C   UNL     1      -3.597  -0.162  24.425  0.00  0.00    +0.199 C 
ATOM     19  O   UNL     1      -4.085  -0.749  24.111  0.00  0.00    -0.219 OA
ENDROOT
BRANCH   9   8
ATOM      8  N   UNL     1      -4.510   0.984  24.304  0.00  0.00    -0.216 NA
BRANCH   8   5
ATOM      1  C   UNL     1      -5.429   3.829  25.701  0.00  0.00    +0.090 C 
ATOM      2  N   UNL     1      -5.199   3.118  25.352  0.00  0.00    -0.271 NA
ATOM      3  C   UNL     1      -4.700   3.124  24.694  0.00  0.00    +0.074 C 
ATOM      4  C   UNL     1      -4.471   2.412  24.345  0.00  0.00    +0.035 C 
ATOM      5  C   UNL     1      -4.739   1.696  24.653  0.00  0.00    +0.076 C 
ATOM      6  C   UNL     1      -5.238   1.690  25.310  0.00  0.00    +0.035 C 
ATOM      7  C   UNL     1      -5.468   2.401  25.660  0.00  0.00    +0.074 C 
ENDBRANCH   8   5
ENDBRANCH   9   8
BRANCH  12  13
ATOM     13  C   UNL     1      -2.413  -0.981  24.722  0.00  0.00    +0.147 C 
BRANCH  13  14
ATOM     14  N   UNL     1      -1.627  -0.995  24.973  0.00  0.00    -0.203 NA
ATOM     15  C   UNL     1      -1.206  -1.704  24.973  0.00  0.00    +0.242 C 
ATOM     16  C   UNL     1      -0.420  -1.717  25.223  0.00  0.00    +0.096 C 
ATOM     17  O   UNL     1      -1.571  -2.400  24.723  0.00  0.00    -0.273 OA
ENDBRANCH  13  14
ENDBRANCH  12  13
TORSDOF 4
ENDMDL
