REMARK  Name = 
REMARK  4 active torsions:
REMARK  status: ('A' for Active; 'I' for Inactive)
REMARK    1  A    between atoms: S_2  and  N_5
REMARK    2  A    between atoms: C_14  and  N_15
REMARK    3  A    between atoms: C_16  and  C_18
REMARK    4  A    between atoms: C_18  and  C_19
REMARK                            x       y       z     vdW  Elec       q    Type
REMARK                         _______ _______ _______ _____ _____    ______ ____
ROOT
ATOM      5  N   UNL     1       0.813  -2.091   0.000  0.00  0.00    -0.159 NA
ATOM      6  C   UNL     1       1.629  -1.912   0.000  0.00  0.00    +0.097 C 
ATOM      7  C   UNL     1       1.582  -0.925   0.000  0.00  0.00    +0.041 C 
ATOM      8  C   UNL     1       1.713  -0.121   0.000  0.00  0.00    +0.011 C 
ATOM      9  C   UNL     1       1.163  -0.557   0.000  0.00  0.00    +0.056 C 
ATOM     10  C   UNL     1       1.225  -1.510   0.000  0.00  0.00    +0.101 C 
ATOM     11  C   UNL     1       0.244  -0.558   0.000  0.00  0.00    +0.041 A 
ATOM     12  C   UNL     1      -0.397  -0.039   0.000  0.00  0.00    +0.014 A 
ATOM     13  C   UNL     1      -1.167  -0.335   0.000  0.00  0.00    +0.023 A 
ATOM     14  C   UNL     1      -1.296  -1.150   0.000  0.00  0.00    +0.129 A 
ATOM     25  C   UNL     1      -0.655  -1.669   0.000  0.00  0.00    +0.276 A 
ATOM     26  O   UNL     1      -0.784  -2.484   0.000  0.00  0.00    -0.266 OA
ATOM     27  N   UNL     1       0.115  -1.373   0.000  0.00  0.00    -0.298 N 
ATOM     28  C   UNL     1       0.622  -0.936   0.000  0.00  0.00    +0.110 C 
ENDROOT
BRANCH   5   2
ATOM      1  C   UNL     1      -0.563  -3.003   0.000  0.00  0.00    +0.196 C 
ATOM      2  S   UNL     1       0.125  -2.547   0.000  0.00  0.00    +0.046 S 
ATOM      3  O   UNL     1       0.581  -3.235   0.000  0.00  0.00    -0.157 OA
ATOM      4  O   UNL     1      -0.331  -1.859   0.000  0.00  0.00    -0.157 OA
ENDBRANCH   5   2
BRANCH  14  15
ATOM     15  N   UNL     1      -2.066  -1.445   0.000  0.00  0.00    -0.174 NA
ATOM     16  C   UNL     1      -2.707  -0.926   0.000  0.00  0.00    +0.250 C 
ATOM     17  O   UNL     1      -2.578  -0.111   0.000  0.00  0.00    -0.273 OA
BRANCH  16  18
ATOM     18  C   UNL     1      -3.478  -1.222   0.000  0.00  0.00    +0.113 C 
BRANCH  18  19
ATOM     19  C   UNL     1      -4.119  -0.703   0.000  0.00  0.00    -0.013 A 
ATOM     20  C   UNL     1      -4.889  -0.999   0.000  0.00  0.00    -0.004 A 
ATOM     21  C   UNL     1      -5.530  -0.480   0.000  0.00  0.00    -0.000 A 
ATOM     22  C   UNL     1      -5.401   0.335   0.000  0.00  0.00    -0.000 A 
ATOM     23  C   UNL     1      -4.631   0.631   0.000  0.00  0.00    -0.000 A 
ATOM     24  C   UNL     1      -3.990   0.112   0.000  0.00  0.00    -0.004 A 
ENDBRANCH  18  19
ENDBRANCH  16  18
ENDBRANCH  14  15
TORSDOF 4
