MODEL 1
REMARK VINA RESULT:      -8.3      0.000      0.000
REMARK  Name = 
REMARK  8 active torsions:
REMARK  status: ('A' for Active; 'I' for Inactive)
REMARK    1  A    between atoms: C_2  and  C_3
REMARK    2  A    between atoms: C_3  and  N_4
REMARK    3  A    between atoms: C_8  and  C_9
REMARK    4  A    between atoms: C_11  and  C_14
REMARK    5  A    between atoms: C_17  and  N_18
REMARK    6  A    between atoms: N_18  and  C_19
REMARK    7  A    between atoms: C_19  and  C_20
REMARK    8  A    between atoms: C_20  and  O_21
REMARK                            x       y       z     vdW  Elec       q    Type
REMARK                         _______ _______ _______ _____ _____    ______ ____
ROOT
ATOM      9  C   UNL     1      -0.747   3.071  25.434  0.00  0.00    +0.251 A 
ATOM     10  N   UNL     1      -1.062   2.393  25.086  0.00  0.00    -0.190 NA
ATOM     11  C   UNL     1      -0.695   1.737  25.427  0.00  0.00    +0.205 A 
ATOM     12  N   UNL     1      -0.152   2.011  25.985  0.00  0.00    -0.056 NA
ATOM     13  O   UNL     1      -0.184   2.836  25.989  0.00  0.00    -0.336 OA
ENDROOT
BRANCH  11  14
ATOM     14  C   UNL     1      -0.844   0.948  25.242  0.00  0.00    +0.058 A 
ATOM     15  C   UNL     1      -1.175   0.447  25.808  0.00  0.00    +0.008 A 
ATOM     16  C   UNL     1      -1.325  -0.343  25.624  0.00  0.00    +0.036 A 
ATOM     17  C   UNL     1      -1.142  -0.633  24.873  0.00  0.00    +0.148 A 
ATOM     23  N   UNL     1      -0.810  -0.132  24.307  0.00  0.00    -0.228 NA
ATOM     24  C   UNL     1      -0.662   0.658  24.492  0.00  0.00    +0.103 A 
BRANCH  17  18
ATOM     18  N   UNL     1      -1.291  -1.424  24.688  0.00  0.00    -0.218 NA
BRANCH  18  19
ATOM     19  C   UNL     1      -2.059  -1.720  24.738  0.00  0.00    +0.146 C 
BRANCH  19  20
ATOM     20  C   UNL     1      -2.238  -2.455  24.410  0.00  0.00    +0.166 C 
BRANCH  20  21
ATOM     21  O   UNL     1      -2.903  -2.871  24.668  0.00  0.00    -0.349 OA
ATOM     22  C   UNL     1      -3.597  -2.857  24.223  0.00  0.00    +0.174 C 
ENDBRANCH  20  21
ENDBRANCH  19  20
ENDBRANCH  18  19
ENDBRANCH  17  18
ENDBRANCH  11  14
BRANCH   9   8
ATOM      4  N   UNL     1      -1.670   4.216  25.452  0.00  0.00    -0.266 NA
ATOM      5  C   UNL     1      -1.643   4.990  25.170  0.00  0.00    +0.073 C 
ATOM      6  C   UNL     1      -0.915   5.103  24.801  0.00  0.00    +0.019 C 
ATOM      7  C   UNL     1      -0.490   4.398  24.855  0.00  0.00    +0.027 C 
ATOM      8  C   UNL     1      -0.957   3.850  25.257  0.00  0.00    +0.138 C 
BRANCH   4   3
ATOM      3  C   UNL     1      -2.298   3.868  25.858  0.00  0.00    +0.072 C 
BRANCH   3   2
ATOM      1  C   UNL     1      -3.653   3.933  26.310  0.00  0.00    +0.001 C 
ATOM      2  C   UNL     1      -2.975   4.309  26.025  0.00  0.00    +0.017 C 
ENDBRANCH   3   2
ENDBRANCH   4   3
ENDBRANCH   9   8
TORSDOF 8
ENDMDL
MODEL 2
REMARK VINA RESULT:      -8.2      1.944      5.879
REMARK  Name = 
REMARK  8 active torsions:
REMARK  status: ('A' for Active; 'I' for Inactive)
REMARK    1  A    between atoms: C_2  and  C_3
REMARK    2  A    between atoms: C_3  and  N_4
REMARK    3  A    between atoms: C_8  and  C_9
REMARK    4  A    between atoms: C_11  and  C_14
REMARK    5  A    between atoms: C_17  and  N_18
REMARK    6  A    between atoms: N_18  and  C_19
REMARK    7  A    between atoms: C_19  and  C_20
REMARK    8  A    between atoms: C_20  and  O_21
REMARK                            x       y       z     vdW  Elec       q    Type
REMARK                         _______ _______ _______ _____ _____    ______ ____
ROOT
ATOM      9  C   UNL     1      -3.938  -0.785  24.680  0.00  0.00    +0.251 A 
ATOM     10  N   UNL     1      -3.638  -0.078  24.380  0.00  0.00    -0.190 NA
ATOM     11  C   UNL     1      -3.825   0.526  24.910  0.00  0.00    +0.205 A 
ATOM     12  N   UNL     1      -4.241   0.190  25.540  0.00  0.00    -0.056 NA
ATOM     13  O   UNL     1      -4.311  -0.620  25.398  0.00  0.00    -0.336 OA
ENDROOT
BRANCH  11  14
ATOM     14  C   UNL     1      -3.630   1.322  24.827  0.00  0.00    +0.058 A 
ATOM     15  C   UNL     1      -4.224   1.881  24.705  0.00  0.00    +0.008 A 
ATOM     16  C   UNL     1      -4.031   2.679  24.622  0.00  0.00    +0.036 A 
ATOM     17  C   UNL     1      -3.241   2.917  24.661  0.00  0.00    +0.148 A 
ATOM     23  N   UNL     1      -2.647   2.358  24.784  0.00  0.00    -0.228 NA
ATOM     24  C   UNL     1      -2.842   1.561  24.867  0.00  0.00    +0.103 A 
BRANCH  17  18
ATOM     18  N   UNL     1      -3.047   3.715  24.578  0.00  0.00    -0.218 NA
BRANCH  18  19
ATOM     19  C   UNL     1      -2.428   4.036  25.019  0.00  0.00    +0.146 C 
BRANCH  19  20
ATOM     20  C   UNL     1      -2.151   4.794  24.848  0.00  0.00    +0.166 C 
BRANCH  20  21
ATOM     21  O   UNL     1      -1.536   5.119  25.294  0.00  0.00    -0.349 OA
ATOM     22  C   UNL     1      -0.870   5.424  24.915  0.00  0.00    +0.174 C 
ENDBRANCH  20  21
ENDBRANCH  19  20
ENDBRANCH  18  19
ENDBRANCH  17  18
ENDBRANCH  11  14
BRANCH   9   8
ATOM      4  N   UNL     1      -3.226  -2.033  24.367  0.00  0.00    -0.266 NA
ATOM      5  C   UNL     1      -3.404  -2.712  23.935  0.00  0.00    +0.073 C 
ATOM      6  C   UNL     1      -4.164  -2.628  23.627  0.00  0.00    +0.019 C 
ATOM      7  C   UNL     1      -4.457  -1.896  23.868  0.00  0.00    +0.027 C 
ATOM      8  C   UNL     1      -3.877  -1.528  24.326  0.00  0.00    +0.138 C 
BRANCH   4   3
ATOM      3  C   UNL     1      -2.522  -1.883  24.770  0.00  0.00    +0.072 C 
BRANCH   3   2
ATOM      1  C   UNL     1      -1.149  -2.198  25.015  0.00  0.00    +0.001 C 
ATOM      2  C   UNL     1      -1.874  -2.384  24.668  0.00  0.00    +0.017 C 
ENDBRANCH   3   2
ENDBRANCH   4   3
ENDBRANCH   9   8
TORSDOF 8
ENDMDL
MODEL 3
REMARK VINA RESULT:      -8.1      2.026      2.500
REMARK  Name = 
REMARK  8 active torsions:
REMARK  status: ('A' for Active; 'I' for Inactive)
REMARK    1  A    between atoms: C_2  and  C_3
REMARK    2  A    between atoms: C_3  and  N_4
REMARK    3  A    between atoms: C_8  and  C_9
REMARK    4  A    between atoms: C_11  and  C_14
REMARK    5  A    between atoms: C_17  and  N_18
REMARK    6  A    between atoms: N_18  and  C_19
REMARK    7  A    between atoms: C_19  and  C_20
REMARK    8  A    between atoms: C_20  and  O_21
REMARK                            x       y       z     vdW  Elec       q    Type
REMARK                         _______ _______ _______ _____ _____    ______ ____
ROOT
ATOM      9  C   UNL     1      -2.719   3.437  25.133  0.00  0.00    +0.251 A 
ATOM     10  N   UNL     1      -2.711   2.686  24.794  0.00  0.00    -0.190 NA
ATOM     11  C   UNL     1      -3.443   2.333  24.936  0.00  0.00    +0.205 A 
ATOM     12  N   UNL     1      -3.903   2.867  25.364  0.00  0.00    -0.056 NA
ATOM     13  O   UNL     1      -3.456   3.550  25.486  0.00  0.00    -0.336 OA
ENDROOT
BRANCH  11  14
ATOM     14  C   UNL     1      -3.674   1.579  24.694  0.00  0.00    +0.058 A 
ATOM     15  C   UNL     1      -4.173   1.128  25.171  0.00  0.00    +0.008 A 
ATOM     16  C   UNL     1      -4.404   0.374  24.929  0.00  0.00    +0.036 A 
ATOM     17  C   UNL     1      -4.136   0.071  24.209  0.00  0.00    +0.148 A 
ATOM     23  N   UNL     1      -3.637   0.523  23.732  0.00  0.00    -0.228 NA
ATOM     24  C   UNL     1      -3.406   1.277  23.975  0.00  0.00    +0.103 A 
BRANCH  17  18
ATOM     18  N   UNL     1      -4.368  -0.683  23.966  0.00  0.00    -0.218 NA
BRANCH  18  19
ATOM     19  C   UNL     1      -4.013  -1.349  24.299  0.00  0.00    +0.146 C 
BRANCH  19  20
ATOM     20  C   UNL     1      -4.103  -2.086  23.939  0.00  0.00    +0.166 C 
BRANCH  20  21
ATOM     21  O   UNL     1      -4.023  -2.776  24.386  0.00  0.00    -0.349 OA
ATOM     22  C   UNL     1      -3.320  -3.206  24.357  0.00  0.00    +0.174 C 
ENDBRANCH  20  21
ENDBRANCH  19  20
ENDBRANCH  18  19
ENDBRANCH  17  18
ENDBRANCH  11  14
BRANCH   9   8
ATOM      4  N   UNL     1      -1.333   3.850  25.400  0.00  0.00    -0.266 NA
ATOM      5  C   UNL     1      -0.898   4.540  25.281  0.00  0.00    +0.073 C 
ATOM      6  C   UNL     1      -1.393   5.098  24.930  0.00  0.00    +0.019 C 
ATOM      7  C   UNL     1      -2.136   4.753  24.832  0.00  0.00    +0.027 C 
ATOM      8  C   UNL     1      -2.099   3.982  25.122  0.00  0.00    +0.138 C 
BRANCH   4   3
ATOM      3  C   UNL     1      -1.053   3.151  25.737  0.00  0.00    +0.072 C 
BRANCH   3   2
ATOM      1  C   UNL     1       0.011   2.416  26.344  0.00  0.00    +0.001 C 
ATOM      2  C   UNL     1      -0.255   3.078  25.931  0.00  0.00    +0.017 C 
ENDBRANCH   3   2
ENDBRANCH   4   3
ENDBRANCH   9   8
TORSDOF 8
ENDMDL
MODEL 4
REMARK VINA RESULT:      -8.0      2.724      4.764
REMARK  Name = 
REMARK  8 active torsions:
REMARK  status: ('A' for Active; 'I' for Inactive)
REMARK    1  A    between atoms: C_2  and  C_3
REMARK    2  A    between atoms: C_3  and  N_4
REMARK    3  A    between atoms: C_8  and  C_9
REMARK    4  A    between atoms: C_11  and  C_14
REMARK    5  A    between atoms: C_17  and  N_18
REMARK    6  A    between atoms: N_18  and  C_19
REMARK    7  A    between atoms: C_19  and  C_20
REMARK    8  A    between atoms: C_20  and  O_21
REMARK                            x       y       z     vdW  Elec       q    Type
REMARK                         _______ _______ _______ _____ _____    ______ ____
ROOT
ATOM      9  C   UNL     1      -2.290   0.148  24.822  0.00  0.00    +0.251 A 
ATOM     10  N   UNL     1      -1.770   0.200  24.183  0.00  0.00    -0.190 NA
ATOM     11  C   UNL     1      -1.002   0.122  24.472  0.00  0.00    +0.205 A 
ATOM     12  N   UNL     1      -1.047   0.021  25.291  0.00  0.00    -0.056 NA
ATOM     13  O   UNL     1      -1.843   0.038  25.507  0.00  0.00    -0.336 OA
ENDROOT
BRANCH  11  14
ATOM     14  C   UNL     1      -0.310   0.141  24.024  0.00  0.00    +0.058 A 
ATOM     15  C   UNL     1       0.007  -0.560  23.725  0.00  0.00    +0.008 A 
ATOM     16  C   UNL     1       0.699  -0.542  23.276  0.00  0.00    +0.036 A 
ATOM     17  C   UNL     1       1.074   0.178  23.126  0.00  0.00    +0.148 A 
ATOM     23  N   UNL     1       0.757   0.879  23.424  0.00  0.00    -0.228 NA
ATOM     24  C   UNL     1       0.064   0.860  23.873  0.00  0.00    +0.103 A 
BRANCH  17  18
ATOM     18  N   UNL     1       1.766   0.197  22.677  0.00  0.00    -0.218 NA
BRANCH  18  19
ATOM     19  C   UNL     1       2.463   0.491  23.006  0.00  0.00    +0.146 C 
BRANCH  19  20
ATOM     20  C   UNL     1       3.171   0.434  22.588  0.00  0.00    +0.166 C 
BRANCH  20  21
ATOM     21  O   UNL     1       3.826   0.879  22.823  0.00  0.00    -0.349 OA
ATOM     22  C   UNL     1       4.551   0.507  22.954  0.00  0.00    +0.174 C 
ENDBRANCH  20  21
ENDBRANCH  19  20
ENDBRANCH  18  19
ENDBRANCH  17  18
ENDBRANCH  11  14
BRANCH   9   8
ATOM      4  N   UNL     1      -3.633  -0.434  24.678  0.00  0.00    -0.266 NA
ATOM      5  C   UNL     1      -4.401  -0.133  24.673  0.00  0.00    +0.073 C 
ATOM      6  C   UNL     1      -4.356   0.684  24.775  0.00  0.00    +0.019 C 
ATOM      7  C   UNL     1      -3.560   0.889  24.843  0.00  0.00    +0.027 C 
ATOM      8  C   UNL     1      -3.113   0.198  24.783  0.00  0.00    +0.138 C 
BRANCH   4   3
ATOM      3  C   UNL     1      -3.421  -1.227  24.593  0.00  0.00    +0.072 C 
BRANCH   3   2
ATOM      1  C   UNL     1      -3.786  -2.583  24.330  0.00  0.00    +0.001 C 
ATOM      2  C   UNL     1      -3.996  -1.790  24.412  0.00  0.00    +0.017 C 
ENDBRANCH   3   2
ENDBRANCH   4   3
ENDBRANCH   9   8
TORSDOF 8
ENDMDL
MODEL 5
REMARK VINA RESULT:      -7.9      2.738      4.166
REMARK  Name = 
REMARK  8 active torsions:
REMARK  status: ('A' for Active; 'I' for Inactive)
REMARK    1  A    between atoms: C_2  and  C_3
REMARK    2  A    between atoms: C_3  and  N_4
REMARK    3  A    between atoms: C_8  and  C_9
REMARK    4  A    between atoms: C_11  and  C_14
REMARK    5  A    between atoms: C_17  and  N_18
REMARK    6  A    between atoms: N_18  and  C_19
REMARK    7  A    between atoms: C_19  and  C_20
REMARK    8  A    between atoms: C_20  and  O_21
REMARK                            x       y       z     vdW  Elec       q    Type
REMARK                         _______ _______ _______ _____ _____    ______ ____
ROOT
ATOM      9  C   UNL     1      -2.557   0.443  24.945  0.00  0.00    +0.251 A 
ATOM     10  N   UNL     1      -2.045   0.303  24.313  0.00  0.00    -0.190 NA
ATOM     11  C   UNL     1      -1.271   0.368  24.592  0.00  0.00    +0.205 A 
ATOM     12  N   UNL     1      -1.306   0.548  25.397  0.00  0.00    -0.056 NA
ATOM     13  O   UNL     1      -2.100   0.595  25.615  0.00  0.00    -0.336 OA
ENDROOT
BRANCH  11  14
ATOM     14  C   UNL     1      -0.585   0.270  24.146  0.00  0.00    +0.058 A 
ATOM     15  C   UNL     1      -0.275  -0.485  24.026  0.00  0.00    +0.008 A 
ATOM     16  C   UNL     1       0.412  -0.584  23.580  0.00  0.00    +0.036 A 
ATOM     17  C   UNL     1       0.789   0.074  23.253  0.00  0.00    +0.148 A 
ATOM     23  N   UNL     1       0.479   0.829  23.373  0.00  0.00    -0.228 NA
ATOM     24  C   UNL     1      -0.208   0.926  23.819  0.00  0.00    +0.103 A 
BRANCH  17  18
ATOM     18  N   UNL     1       1.477  -0.025  22.806  0.00  0.00    -0.218 NA
BRANCH  18  19
ATOM     19  C   UNL     1       2.154   0.408  22.992  0.00  0.00    +0.146 C 
BRANCH  19  20
ATOM     20  C   UNL     1       2.868   0.234  22.619  0.00  0.00    +0.166 C 
BRANCH  20  21
ATOM     21  O   UNL     1       3.494   0.772  22.656  0.00  0.00    -0.349 OA
ATOM     22  C   UNL     1       4.268   0.497  22.728  0.00  0.00    +0.174 C 
ENDBRANCH  20  21
ENDBRANCH  19  20
ENDBRANCH  18  19
ENDBRANCH  17  18
ENDBRANCH  11  14
BRANCH   9   8
ATOM      4  N   UNL     1      -3.869   1.083  24.770  0.00  0.00    -0.266 NA
ATOM      5  C   UNL     1      -4.651   0.823  24.787  0.00  0.00    +0.073 C 
ATOM      6  C   UNL     1      -4.648   0.013  24.939  0.00  0.00    +0.019 C 
ATOM      7  C   UNL     1      -3.862  -0.229  25.017  0.00  0.00    +0.027 C 
ATOM      8  C   UNL     1      -3.381   0.433  24.912  0.00  0.00    +0.138 C 
BRANCH   4   3
ATOM      3  C   UNL     1      -3.617   1.857  24.634  0.00  0.00    +0.072 C 
BRANCH   3   2
ATOM      1  C   UNL     1      -3.920   3.223  24.339  0.00  0.00    +0.001 C 
ATOM      2  C   UNL     1      -4.169   2.446  24.462  0.00  0.00    +0.017 C 
ENDBRANCH   3   2
ENDBRANCH   4   3
ENDBRANCH   9   8
TORSDOF 8
ENDMDL
MODEL 6
REMARK VINA RESULT:      -7.7      2.538      3.577
REMARK  Name = 
REMARK  8 active torsions:
REMARK  status: ('A' for Active; 'I' for Inactive)
REMARK    1  A    between atoms: C_2  and  C_3
REMARK    2  A    between atoms: C_3  and  N_4
REMARK    3  A    between atoms: C_8  and  C_9
REMARK    4  A    between atoms: C_11  and  C_14
REMARK    5  A    between atoms: C_17  and  N_18
REMARK    6  A    between atoms: N_18  and  C_19
REMARK    7  A    between atoms: C_19  and  C_20
REMARK    8  A    between atoms: C_20  and  O_21
REMARK                            x       y       z     vdW  Elec       q    Type
REMARK                         _______ _______ _______ _____ _____    ______ ____
ROOT
ATOM      9  C   UNL     1      -3.561   2.796  24.466  0.00  0.00    +0.251 A 
ATOM     10  N   UNL     1      -2.890   2.366  24.680  0.00  0.00    -0.190 NA
ATOM     11  C   UNL     1      -2.528   2.096  23.990  0.00  0.00    +0.205 A 
ATOM     12  N   UNL     1      -2.976   2.360  23.348  0.00  0.00    -0.056 NA
ATOM     13  O   UNL     1      -3.614   2.792  23.643  0.00  0.00    -0.336 OA
ENDROOT
BRANCH  11  14
ATOM     14  C   UNL     1      -1.841   1.643  23.948  0.00  0.00    +0.058 A 
ATOM     15  C   UNL     1      -1.891   0.822  23.887  0.00  0.00    +0.008 A 
ATOM     16  C   UNL     1      -1.204   0.368  23.845  0.00  0.00    +0.036 A 
ATOM     17  C   UNL     1      -0.465   0.736  23.863  0.00  0.00    +0.148 A 
ATOM     23  N   UNL     1      -0.415   1.557  23.923  0.00  0.00    -0.228 NA
ATOM     24  C   UNL     1      -1.103   2.010  23.965  0.00  0.00    +0.103 A 
BRANCH  17  18
ATOM     18  N   UNL     1       0.224   0.282  23.820  0.00  0.00    -0.218 NA
BRANCH  18  19
ATOM     19  C   UNL     1       0.659   0.258  23.120  0.00  0.00    +0.146 C 
BRANCH  19  20
ATOM     20  C   UNL     1       1.427  -0.042  23.123  0.00  0.00    +0.166 C 
BRANCH  20  21
ATOM     21  O   UNL     1       1.870  -0.046  22.427  0.00  0.00    -0.349 OA
ATOM     22  C   UNL     1       2.684   0.083  22.456  0.00  0.00    +0.174 C 
ENDBRANCH  20  21
ENDBRANCH  19  20
ENDBRANCH  18  19
ENDBRANCH  17  18
ENDBRANCH  11  14
BRANCH   9   8
ATOM      4  N   UNL     1      -4.840   2.895  25.185  0.00  0.00    -0.266 NA
ATOM      5  C   UNL     1      -5.169   3.432  25.717  0.00  0.00    +0.073 C 
ATOM      6  C   UNL     1      -4.621   4.034  25.845  0.00  0.00    +0.019 C 
ATOM      7  C   UNL     1      -3.951   3.869  25.392  0.00  0.00    +0.027 C 
ATOM      8  C   UNL     1      -4.087   3.165  24.984  0.00  0.00    +0.138 C 
BRANCH   4   3
ATOM      3  C   UNL     1      -5.199   2.207  24.903  0.00  0.00    +0.072 C 
BRANCH   3   2
ATOM      1  C   UNL     1      -6.324   1.326  24.868  0.00  0.00    +0.001 C 
ATOM      2  C   UNL     1      -5.946   1.990  25.180  0.00  0.00    +0.017 C 
ENDBRANCH   3   2
ENDBRANCH   4   3
ENDBRANCH   9   8
TORSDOF 8
ENDMDL
MODEL 7
REMARK VINA RESULT:      -7.1      1.337      5.333
REMARK  Name = 
REMARK  8 active torsions:
REMARK  status: ('A' for Active; 'I' for Inactive)
REMARK    1  A    between atoms: C_2  and  C_3
REMARK    2  A    between atoms: C_3  and  N_4
REMARK    3  A    between atoms: C_8  and  C_9
REMARK    4  A    between atoms: C_11  and  C_14
REMARK    5  A    between atoms: C_17  and  N_18
REMARK    6  A    between atoms: N_18  and  C_19
REMARK    7  A    between atoms: C_19  and  C_20
REMARK    8  A    between atoms: C_20  and  O_21
REMARK                            x       y       z     vdW  Elec       q    Type
REMARK                         _______ _______ _______ _____ _____    ______ ____
ROOT
ATOM      9  C   UNL     1      -1.572  -0.977  25.125  0.00  0.00    +0.251 A 
ATOM     10  N   UNL     1      -1.463  -0.249  24.753  0.00  0.00    -0.190 NA
ATOM     11  C   UNL     1      -1.188   0.287  25.316  0.00  0.00    +0.205 A 
ATOM     12  N   UNL     1      -1.127  -0.110  26.037  0.00  0.00    -0.056 NA
ATOM     13  O   UNL     1      -1.365  -0.892  25.919  0.00  0.00    -0.336 OA
ENDROOT
BRANCH  11  14
ATOM     14  C   UNL     1      -1.005   1.080  25.183  0.00  0.00    +0.058 A 
ATOM     15  C   UNL     1      -1.126   1.411  24.437  0.00  0.00    +0.008 A 
ATOM     16  C   UNL     1      -0.944   2.204  24.302  0.00  0.00    +0.036 A 
ATOM     17  C   UNL     1      -0.640   2.667  24.915  0.00  0.00    +0.148 A 
ATOM     23  N   UNL     1      -0.519   2.336  25.661  0.00  0.00    -0.228 NA
ATOM     24  C   UNL     1      -0.702   1.542  25.794  0.00  0.00    +0.103 A 
BRANCH  17  18
ATOM     18  N   UNL     1      -0.458   3.461  24.781  0.00  0.00    -0.218 NA
BRANCH  18  19
ATOM     19  C   UNL     1      -1.011   4.046  24.960  0.00  0.00    +0.146 C 
BRANCH  19  20
ATOM     20  C   UNL     1      -0.826   4.840  24.829  0.00  0.00    +0.166 C 
BRANCH  20  21
ATOM     21  O   UNL     1      -1.214   5.429  25.259  0.00  0.00    -0.349 OA
ATOM     22  C   UNL     1      -1.850   5.832  24.923  0.00  0.00    +0.174 C 
ENDBRANCH  20  21
ENDBRANCH  19  20
ENDBRANCH  18  19
ENDBRANCH  17  18
ENDBRANCH  11  14
BRANCH   9   8
ATOM      4  N   UNL     1      -2.622  -1.835  24.556  0.00  0.00    -0.266 NA
ATOM      5  C   UNL     1      -2.640  -2.586  24.215  0.00  0.00    +0.073 C 
ATOM      6  C   UNL     1      -1.872  -2.885  24.216  0.00  0.00    +0.019 C 
ATOM      7  C   UNL     1      -1.378  -2.319  24.557  0.00  0.00    +0.027 C 
ATOM      8  C   UNL     1      -1.842  -1.670  24.767  0.00  0.00    +0.138 C 
BRANCH   4   3
ATOM      3  C   UNL     1      -3.270  -1.336  24.666  0.00  0.00    +0.072 C 
BRANCH   3   2
ATOM      1  C   UNL     1      -4.603  -0.974  24.300  0.00  0.00    +0.001 C 
ATOM      2  C   UNL     1      -4.005  -1.540  24.352  0.00  0.00    +0.017 C 
ENDBRANCH   3   2
ENDBRANCH   4   3
ENDBRANCH   9   8
TORSDOF 8
ENDMDL
