MODEL 1
REMARK VINA RESULT:     -11.4      0.000      0.000
REMARK  Name = 
REMARK  5 active torsions:
REMARK  status: ('A' for Active; 'I' for Inactive)
REMARK    1  A    between atoms: C_6  and  N_7
REMARK    2  A    between atoms: C_8  and  O_10
REMARK    3  A    between atoms: O_10  and  C_11
REMARK    4  A    between atoms: C_11  and  C_12
REMARK    5  A    between atoms: C_19  and  C_20
REMARK                            x       y       z     vdW  Elec       q    Type
REMARK                         _______ _______ _______ _____ _____    ______ ____
ROOT
ATOM     10  O   UNL     1      -3.755   1.169  24.955  0.00  0.00    -0.432 OA
ENDROOT
BRANCH  10   8
ATOM      7  N   UNL     1      -3.890  -0.234  25.189  0.00  0.00    -0.140 NA
ATOM      8  C   UNL     1      -3.728   0.392  24.677  0.00  0.00    +0.426 C 
ATOM      9  O   UNL     1      -3.540   0.242  23.888  0.00  0.00    -0.224 OA
BRANCH   7   6
ATOM      1  F   UNL     1      -3.783  -3.341  24.081  0.00  0.00    -0.204 F 
ATOM      2  C   UNL     1      -3.810  -2.564  24.358  0.00  0.00    +0.142 A 
ATOM      3  C   UNL     1      -3.462  -2.372  25.080  0.00  0.00    +0.061 A 
ATOM      4  C   UNL     1      -3.488  -1.595  25.358  0.00  0.00    +0.158 A 
ATOM      5  F   UNL     1      -3.141  -1.403  26.080  0.00  0.00    -0.203 F 
ATOM      6  C   UNL     1      -3.863  -1.011  24.912  0.00  0.00    +0.104 A 
ATOM     22  C   UNL     1      -4.211  -1.203  24.189  0.00  0.00    +0.021 A 
ATOM     23  C   UNL     1      -4.184  -1.979  23.912  0.00  0.00    +0.031 A 
ENDBRANCH   7   6
ENDBRANCH  10   8
BRANCH  10  11
ATOM     11  C   UNL     1      -3.473   1.785  24.484  0.00  0.00    +0.226 C 
BRANCH  11  12
ATOM     12  C   UNL     1      -3.236   2.494  24.831  0.00  0.00    +0.102 C 
ATOM     13  C   UNL     1      -3.297   3.064  25.357  0.00  0.00    +0.021 C 
ATOM     14  C   UNL     1      -2.812   3.710  25.411  0.00  0.00    +0.016 C 
ATOM     15  C   UNL     1      -3.051   4.251  26.086  0.00  0.00    +0.018 C 
ATOM     16  C   UNL     1      -3.095   3.726  25.700  0.00  0.00    +0.072 C 
ATOM     17  N   UNL     1      -2.746   3.155  24.893  0.00  0.00    -0.270 NA
ATOM     18  C   UNL     1      -2.022   3.426  24.407  0.00  0.00    +0.085 C 
ATOM     19  C   UNL     1      -2.117   3.965  24.940  0.00  0.00    +0.081 C 
BRANCH  19  20
ATOM     20  C   UNL     1      -1.661   4.644  25.049  0.00  0.00    -0.078 C 
ATOM     21  C   UNL     1      -1.206   5.322  25.159  0.00  0.00    -0.014 C 
ENDBRANCH  19  20
ENDBRANCH  11  12
ENDBRANCH  10  11
TORSDOF 5
ENDMDL
MODEL 2
REMARK VINA RESULT:     -11.2      2.133      5.576
REMARK  Name = 
REMARK  5 active torsions:
REMARK  status: ('A' for Active; 'I' for Inactive)
REMARK    1  A    between atoms: C_6  and  N_7
REMARK    2  A    between atoms: C_8  and  O_10
REMARK    3  A    between atoms: O_10  and  C_11
REMARK    4  A    between atoms: C_11  and  C_12
REMARK    5  A    between atoms: C_19  and  C_20
REMARK                            x       y       z     vdW  Elec       q    Type
REMARK                         _______ _______ _______ _____ _____    ______ ____
ROOT
ATOM     10  O   UNL     1      -2.495   1.496  25.111  0.00  0.00    -0.432 OA
ENDROOT
BRANCH  10   8
ATOM      7  N   UNL     1      -1.728   2.669  25.386  0.00  0.00    -0.140 NA
ATOM      8  C   UNL     1      -2.378   2.308  25.028  0.00  0.00    +0.426 C 
ATOM      9  O   UNL     1      -2.909   2.760  24.588  0.00  0.00    -0.224 OA
BRANCH   7   6
ATOM      1  F   UNL     1      -1.255   5.918  25.056  0.00  0.00    -0.204 F 
ATOM      2  C   UNL     1      -1.374   5.106  25.139  0.00  0.00    +0.142 A 
ATOM      3  C   UNL     1      -0.777   4.579  24.923  0.00  0.00    +0.061 A 
ATOM      4  C   UNL     1      -0.895   3.766  25.005  0.00  0.00    +0.158 A 
ATOM      5  F   UNL     1      -0.299   3.239  24.789  0.00  0.00    -0.203 F 
ATOM      6  C   UNL     1      -1.609   3.481  25.303  0.00  0.00    +0.104 A 
ATOM     22  C   UNL     1      -2.206   4.009  25.520  0.00  0.00    +0.021 A 
ATOM     23  C   UNL     1      -2.088   4.821  25.437  0.00  0.00    +0.031 A 
ENDBRANCH   7   6
ENDBRANCH  10   8
BRANCH  10  11
ATOM     11  C   UNL     1      -3.151   1.137  24.763  0.00  0.00    +0.226 C 
BRANCH  11  12
ATOM     12  C   UNL     1      -3.281   0.329  24.863  0.00  0.00    +0.102 C 
ATOM     13  C   UNL     1      -3.267  -0.331  25.276  0.00  0.00    +0.021 C 
ATOM     14  C   UNL     1      -3.511  -1.057  25.014  0.00  0.00    +0.016 C 
ATOM     15  C   UNL     1      -3.414  -1.689  25.643  0.00  0.00    +0.018 C 
ATOM     16  C   UNL     1      -3.379  -1.085  25.395  0.00  0.00    +0.072 C 
ATOM     17  N   UNL     1      -3.527  -0.415  24.603  0.00  0.00    -0.270 NA
ATOM     18  C   UNL     1      -3.873  -0.700  23.808  0.00  0.00    +0.085 C 
ATOM     19  C   UNL     1      -3.843  -1.324  24.246  0.00  0.00    +0.081 C 
BRANCH  19  20
ATOM     20  C   UNL     1      -4.074  -2.089  24.042  0.00  0.00    -0.078 C 
ATOM     21  C   UNL     1      -4.304  -2.854  23.838  0.00  0.00    -0.014 C 
ENDBRANCH  19  20
ENDBRANCH  11  12
ENDBRANCH  10  11
TORSDOF 5
ENDMDL
