MODEL 1
REMARK VINA RESULT:     -12.1      0.000      0.000
REMARK  Name = 
REMARK  6 active torsions:
REMARK  status: ('A' for Active; 'I' for Inactive)
REMARK    1  A    between atoms: C_5  and  C_6
REMARK    2  A    between atoms: C_6  and  C_7
REMARK    3  A    between atoms: N_9  and  C_10
REMARK    4  A    between atoms: C_17  and  C_18
REMARK    5  A    between atoms: C_18  and  N_19
REMARK    6  A    between atoms: C_20  and  C_22
REMARK                            x       y       z     vdW  Elec       q    Type
REMARK                         _______ _______ _______ _____ _____    ______ ____
ROOT
ATOM      1  O   UNL     1      -5.719   3.396  25.919  0.00  0.00    -0.218 OA
ATOM      2  C   UNL     1      -5.248   2.856  25.511  0.00  0.00    +0.213 C 
ATOM      3  C   UNL     1      -5.517   2.204  25.083  0.00  0.00    +0.212 C 
ATOM      4  O   UNL     1      -6.305   1.977  24.989  0.00  0.00    -0.218 OA
ATOM      5  C   UNL     1      -4.861   1.818  24.767  0.00  0.00    +0.157 C 
ATOM     16  O   UNL     1      -4.186   2.231  24.999  0.00  0.00    -0.351 OA
ATOM     17  C   UNL     1      -4.425   2.872  25.458  0.00  0.00    +0.170 C 
ENDROOT
BRANCH   5   6
ATOM      6  C   UNL     1      -4.877   1.137  24.300  0.00  0.00    +0.119 C 
BRANCH   6   7
ATOM      7  C   UNL     1      -4.333   0.531  24.437  0.00  0.00    +0.248 C 
ATOM      8  O   UNL     1      -3.531   0.656  24.293  0.00  0.00    -0.273 OA
ATOM      9  N   UNL     1      -4.593  -0.200  24.717  0.00  0.00    -0.179 NA
BRANCH   9  10
ATOM     10  C   UNL     1      -4.051  -0.806  24.854  0.00  0.00    +0.073 A 
ATOM     11  C   UNL     1      -3.670  -0.861  25.584  0.00  0.00    +0.017 A 
ATOM     12  C   UNL     1      -3.127  -1.467  25.721  0.00  0.00    +0.001 A 
ATOM     13  C   UNL     1      -2.966  -2.018  25.129  0.00  0.00    +0.000 A 
ATOM     14  C   UNL     1      -3.347  -1.963  24.399  0.00  0.00    +0.001 A 
ATOM     15  C   UNL     1      -3.889  -1.357  24.262  0.00  0.00    +0.017 A 
ENDBRANCH   9  10
ENDBRANCH   6   7
ENDBRANCH   5   6
BRANCH  17  18
ATOM     18  C   UNL     1      -3.928   3.432  25.805  0.00  0.00    +0.147 C 
BRANCH  18  19
ATOM     19  N   UNL     1      -3.209   3.623  25.449  0.00  0.00    -0.203 NA
ATOM     20  C   UNL     1      -2.659   4.087  25.852  0.00  0.00    +0.241 C 
ATOM     21  O   UNL     1      -2.829   4.360  26.612  0.00  0.00    -0.273 OA
BRANCH  20  22
ATOM     22  C   UNL     1      -1.940   4.278  25.496  0.00  0.00    +0.078 C 
ATOM     23  C   UNL     1      -1.301   3.766  25.385  0.00  0.00    +0.009 C 
ATOM     24  C   UNL     1      -0.700   4.187  25.009  0.00  0.00    +0.001 C 
ATOM     25  C   UNL     1      -0.965   4.959  24.887  0.00  0.00    +0.001 C 
ATOM     26  C   UNL     1      -1.732   5.015  25.188  0.00  0.00    +0.009 C 
ENDBRANCH  20  22
ENDBRANCH  18  19
ENDBRANCH  17  18
TORSDOF 6
ENDMDL
MODEL 2
REMARK VINA RESULT:     -12.1      0.759      4.538
REMARK  Name = 
REMARK  6 active torsions:
REMARK  status: ('A' for Active; 'I' for Inactive)
REMARK    1  A    between atoms: C_5  and  C_6
REMARK    2  A    between atoms: C_6  and  C_7
REMARK    3  A    between atoms: N_9  and  C_10
REMARK    4  A    between atoms: C_17  and  C_18
REMARK    5  A    between atoms: C_18  and  N_19
REMARK    6  A    between atoms: C_20  and  C_22
REMARK                            x       y       z     vdW  Elec       q    Type
REMARK                         _______ _______ _______ _____ _____    ______ ____
ROOT
ATOM      1  O   UNL     1      -6.392   1.924  25.156  0.00  0.00    -0.218 OA
ATOM      2  C   UNL     1      -5.629   2.224  25.248  0.00  0.00    +0.213 C 
ATOM      3  C   UNL     1      -5.435   2.982  25.508  0.00  0.00    +0.212 C 
ATOM      4  O   UNL     1      -5.969   3.574  25.722  0.00  0.00    -0.218 OA
ATOM      5  C   UNL     1      -4.613   3.046  25.517  0.00  0.00    +0.157 C 
ATOM     16  O   UNL     1      -4.299   2.327  25.262  0.00  0.00    -0.351 OA
ATOM     17  C   UNL     1      -4.926   1.819  25.096  0.00  0.00    +0.170 C 
ENDROOT
BRANCH   5   6
ATOM      6  C   UNL     1      -4.180   3.712  25.741  0.00  0.00    +0.119 C 
BRANCH   6   7
ATOM      7  C   UNL     1      -3.436   3.851  25.411  0.00  0.00    +0.248 C 
ATOM      8  O   UNL     1      -3.349   3.886  24.592  0.00  0.00    -0.273 OA
ATOM      9  N   UNL     1      -2.780   3.954  25.901  0.00  0.00    -0.179 NA
BRANCH   9  10
ATOM     10  C   UNL     1      -2.037   4.093  25.571  0.00  0.00    +0.073 A 
ATOM     11  C   UNL     1      -1.839   4.848  25.303  0.00  0.00    +0.017 A 
ATOM     12  C   UNL     1      -1.096   4.986  24.974  0.00  0.00    +0.001 A 
ATOM     13  C   UNL     1      -0.551   4.371  24.912  0.00  0.00    +0.000 A 
ATOM     14  C   UNL     1      -0.749   3.616  25.180  0.00  0.00    +0.001 A 
ATOM     15  C   UNL     1      -1.492   3.477  25.509  0.00  0.00    +0.017 A 
ENDBRANCH   9  10
ENDBRANCH   6   7
ENDBRANCH   5   6
BRANCH  17  18
ATOM     18  C   UNL     1      -4.864   1.043  24.826  0.00  0.00    +0.147 C 
BRANCH  18  19
ATOM     19  N   UNL     1      -4.250   0.560  25.093  0.00  0.00    -0.203 NA
ATOM     20  C   UNL     1      -4.145  -0.191  24.771  0.00  0.00    +0.241 C 
ATOM     21  O   UNL     1      -4.654  -0.461  24.180  0.00  0.00    -0.273 OA
BRANCH  20  22
ATOM     22  C   UNL     1      -3.531  -0.674  25.038  0.00  0.00    +0.078 C 
ATOM     23  C   UNL     1      -3.527  -1.111  25.738  0.00  0.00    +0.009 C 
ATOM     24  C   UNL     1      -2.807  -1.511  25.784  0.00  0.00    +0.001 C 
ATOM     25  C   UNL     1      -2.366  -1.321  25.113  0.00  0.00    +0.001 C 
ATOM     26  C   UNL     1      -2.814  -0.803  24.652  0.00  0.00    +0.009 C 
ENDBRANCH  20  22
ENDBRANCH  18  19
ENDBRANCH  17  18
TORSDOF 6
ENDMDL
MODEL 3
REMARK VINA RESULT:     -11.4      1.770      3.419
REMARK  Name = 
REMARK  6 active torsions:
REMARK  status: ('A' for Active; 'I' for Inactive)
REMARK    1  A    between atoms: C_5  and  C_6
REMARK    2  A    between atoms: C_6  and  C_7
REMARK    3  A    between atoms: N_9  and  C_10
REMARK    4  A    between atoms: C_17  and  C_18
REMARK    5  A    between atoms: C_18  and  N_19
REMARK    6  A    between atoms: C_20  and  C_22
REMARK                            x       y       z     vdW  Elec       q    Type
REMARK                         _______ _______ _______ _____ _____    ______ ____
ROOT
ATOM      1  O   UNL     1      -0.759   3.380  25.186  0.00  0.00    -0.218 OA
ATOM      2  C   UNL     1      -1.051   2.609  25.182  0.00  0.00    +0.213 C 
ATOM      3  C   UNL     1      -0.605   1.921  25.269  0.00  0.00    +0.212 C 
ATOM      4  O   UNL     1       0.213   1.883  25.374  0.00  0.00    -0.218 OA
ATOM      5  C   UNL     1      -1.119   1.277  25.231  0.00  0.00    +0.157 C 
ATOM     16  O   UNL     1      -1.884   1.568  25.121  0.00  0.00    -0.351 OA
ATOM     17  C   UNL     1      -1.842   2.390  25.091  0.00  0.00    +0.170 C 
ENDROOT
BRANCH   5   6
ATOM      6  C   UNL     1      -0.906   0.482  25.292  0.00  0.00    +0.119 C 
BRANCH   6   7
ATOM      7  C   UNL     1      -1.417  -0.104  25.013  0.00  0.00    +0.248 C 
ATOM      8  O   UNL     1      -1.585  -0.155  24.208  0.00  0.00    -0.273 OA
ATOM      9  N   UNL     1      -1.759  -0.638  25.542  0.00  0.00    -0.179 NA
BRANCH   9  10
ATOM     10  C   UNL     1      -2.269  -1.223  25.264  0.00  0.00    +0.073 A 
ATOM     11  C   UNL     1      -3.085  -1.134  25.349  0.00  0.00    +0.017 A 
ATOM     12  C   UNL     1      -3.595  -1.719  25.071  0.00  0.00    +0.001 A 
ATOM     13  C   UNL     1      -3.290  -2.394  24.708  0.00  0.00    +0.000 A 
ATOM     14  C   UNL     1      -2.474  -2.483  24.623  0.00  0.00    +0.001 A 
ATOM     15  C   UNL     1      -1.964  -1.898  24.901  0.00  0.00    +0.017 A 
ENDBRANCH   9  10
ENDBRANCH   6   7
ENDBRANCH   5   6
BRANCH  17  18
ATOM     18  C   UNL     1      -2.478   2.905  24.988  0.00  0.00    +0.147 C 
BRANCH  18  19
ATOM     19  N   UNL     1      -3.247   2.648  25.146  0.00  0.00    -0.203 NA
ATOM     20  C   UNL     1      -3.890   3.120  24.938  0.00  0.00    +0.241 C 
ATOM     21  O   UNL     1      -3.766   3.849  24.573  0.00  0.00    -0.273 OA
BRANCH  20  22
ATOM     22  C   UNL     1      -4.658   2.863  25.096  0.00  0.00    +0.078 C 
ATOM     23  C   UNL     1      -5.125   3.093  25.736  0.00  0.00    +0.009 C 
ATOM     24  C   UNL     1      -5.850   2.704  25.676  0.00  0.00    +0.001 C 
ATOM     25  C   UNL     1      -5.831   2.232  24.999  0.00  0.00    +0.001 C 
ATOM     26  C   UNL     1      -5.094   2.331  24.641  0.00  0.00    +0.009 C 
ENDBRANCH  20  22
ENDBRANCH  18  19
ENDBRANCH  17  18
TORSDOF 6
ENDMDL
MODEL 4
REMARK VINA RESULT:     -11.3      1.992      5.023
REMARK  Name = 
REMARK  6 active torsions:
REMARK  status: ('A' for Active; 'I' for Inactive)
REMARK    1  A    between atoms: C_5  and  C_6
REMARK    2  A    between atoms: C_6  and  C_7
REMARK    3  A    between atoms: N_9  and  C_10
REMARK    4  A    between atoms: C_17  and  C_18
REMARK    5  A    between atoms: C_18  and  N_19
REMARK    6  A    between atoms: C_20  and  C_22
REMARK                            x       y       z     vdW  Elec       q    Type
REMARK                         _______ _______ _______ _____ _____    ______ ____
ROOT
ATOM      1  O   UNL     1       0.258   1.203  24.208  0.00  0.00    -0.218 OA
ATOM      2  C   UNL     1      -0.543   1.395  24.267  0.00  0.00    +0.213 C 
ATOM      3  C   UNL     1      -0.870   2.146  24.169  0.00  0.00    +0.212 C 
ATOM      4  O   UNL     1      -0.454   2.837  23.994  0.00  0.00    -0.218 OA
ATOM      5  C   UNL     1      -1.685   2.085  24.275  0.00  0.00    +0.157 C 
ATOM     16  O   UNL     1      -1.862   1.296  24.439  0.00  0.00    -0.351 OA
ATOM     17  C   UNL     1      -1.157   0.869  24.434  0.00  0.00    +0.170 C 
ENDROOT
BRANCH   5   6
ATOM      6  C   UNL     1      -2.229   2.704  24.226  0.00  0.00    +0.119 C 
BRANCH   6   7
ATOM      7  C   UNL     1      -2.937   2.664  24.648  0.00  0.00    +0.248 C 
ATOM      8  O   UNL     1      -2.927   2.668  25.472  0.00  0.00    -0.273 OA
ATOM      9  N   UNL     1      -3.656   2.621  24.244  0.00  0.00    -0.179 NA
BRANCH   9  10
ATOM     10  C   UNL     1      -4.363   2.582  24.665  0.00  0.00    +0.073 A 
ATOM     11  C   UNL     1      -4.773   1.867  24.719  0.00  0.00    +0.017 A 
ATOM     12  C   UNL     1      -5.481   1.828  25.140  0.00  0.00    +0.001 A 
ATOM     13  C   UNL     1      -5.780   2.502  25.508  0.00  0.00    +0.000 A 
ATOM     14  C   UNL     1      -5.371   3.217  25.454  0.00  0.00    +0.001 A 
ATOM     15  C   UNL     1      -4.663   3.256  25.033  0.00  0.00    +0.017 A 
ENDBRANCH   9  10
ENDBRANCH   6   7
ENDBRANCH   5   6
BRANCH  17  18
ATOM     18  C   UNL     1      -1.078   0.060  24.572  0.00  0.00    +0.147 C 
BRANCH  18  19
ATOM     19  N   UNL     1      -1.746  -0.423  24.588  0.00  0.00    -0.203 NA
ATOM     20  C   UNL     1      -1.680  -1.211  24.821  0.00  0.00    +0.241 C 
ATOM     21  O   UNL     1      -0.945  -1.517  25.038  0.00  0.00    -0.273 OA
BRANCH  20  22
ATOM     22  C   UNL     1      -2.348  -1.695  24.837  0.00  0.00    +0.078 C 
ATOM     23  C   UNL     1      -2.464  -2.379  24.391  0.00  0.00    +0.009 C 
ATOM     24  C   UNL     1      -3.205  -2.685  24.581  0.00  0.00    +0.001 C 
ATOM     25  C   UNL     1      -3.550  -2.191  25.145  0.00  0.00    +0.001 C 
ATOM     26  C   UNL     1      -3.019  -1.578  25.303  0.00  0.00    +0.009 C 
ENDBRANCH  20  22
ENDBRANCH  18  19
ENDBRANCH  17  18
TORSDOF 6
ENDMDL
