MODEL 1
REMARK VINA RESULT:     -11.2      0.000      0.000
REMARK  Name = 
REMARK  6 active torsions:
REMARK  status: ('A' for Active; 'I' for Inactive)
REMARK    1  A    between atoms: C_4  and  C_13
REMARK    2  A    between atoms: N_5  and  C_6
REMARK    3  A    between atoms: C_6  and  C_7
REMARK    4  A    between atoms: C_15  and  C_18
REMARK    5  A    between atoms: C_21  and  O_22
REMARK    6  A    between atoms: O_22  and  C_23
REMARK                            x       y       z     vdW  Elec       q    Type
REMARK                         _______ _______ _______ _____ _____    ______ ____
ROOT
ATOM     13  C   UNL     1      -4.174   1.829  24.578  0.00  0.00    +0.251 A 
ATOM     14  N   UNL     1      -4.152   1.108  24.978  0.00  0.00    -0.190 NA
ATOM     15  C   UNL     1      -3.950   0.521  24.434  0.00  0.00    +0.203 A 
ATOM     16  N   UNL     1      -3.847   0.879  23.699  0.00  0.00    -0.056 NA
ATOM     17  O   UNL     1      -3.985   1.688  23.787  0.00  0.00    -0.336 OA
ENDROOT
BRANCH  13   4
ATOM      1  O   UNL     1      -5.634   4.039  25.766  0.00  0.00    -0.222 OA
ATOM      2  C   UNL     1      -5.024   3.579  25.456  0.00  0.00    +0.170 C 
ATOM      3  C   UNL     1      -5.099   2.811  25.163  0.00  0.00    +0.060 C 
ATOM      4  C   UNL     1      -4.353   2.562  24.910  0.00  0.00    +0.141 C 
ATOM      5  N   UNL     1      -3.819   3.176  25.048  0.00  0.00    -0.258 NA
ATOM     12  C   UNL     1      -4.235   3.804  25.386  0.00  0.00    +0.106 C 
BRANCH   5   6
ATOM      6  C   UNL     1      -3.012   3.164  24.878  0.00  0.00    +0.139 C 
BRANCH   6   7
ATOM      7  C   UNL     1      -2.527   3.777  25.139  0.00  0.00    +0.155 A 
ATOM      8  N   UNL     1      -2.132   3.810  25.862  0.00  0.00    -0.226 NA
ATOM      9  C   UNL     1      -1.711   4.519  25.892  0.00  0.00    +0.121 A 
ATOM     10  C   UNL     1      -1.847   4.925  25.187  0.00  0.00    +0.121 A 
ATOM     11  N   UNL     1      -2.350   4.467  24.722  0.00  0.00    -0.226 NA
ENDBRANCH   6   7
ENDBRANCH   5   6
ENDBRANCH  13   4
BRANCH  15  18
ATOM     18  C   UNL     1      -3.865  -0.284  24.598  0.00  0.00    +0.039 A 
ATOM     19  C   UNL     1      -4.181  -0.845  24.082  0.00  0.00    +0.006 A 
ATOM     20  C   UNL     1      -4.097  -1.649  24.246  0.00  0.00    +0.037 A 
ATOM     21  C   UNL     1      -3.696  -1.892  24.925  0.00  0.00    +0.147 A 
ATOM     27  C   UNL     1      -3.380  -1.331  25.441  0.00  0.00    +0.037 A 
ATOM     28  C   UNL     1      -3.465  -0.526  25.277  0.00  0.00    +0.006 A 
BRANCH  21  22
ATOM     22  O   UNL     1      -3.612  -2.696  25.089  0.00  0.00    -0.404 OA
BRANCH  22  23
ATOM     23  C   UNL     1      -3.213  -3.185  24.558  0.00  0.00    +0.575 C 
ATOM     24  F   UNL     1      -2.812  -3.674  24.027  0.00  0.00    -0.133 F 
ATOM     25  F   UNL     1      -2.491  -2.951  24.884  0.00  0.00    -0.133 F 
ATOM     26  F   UNL     1      -3.932  -3.419  24.232  0.00  0.00    -0.133 F 
ENDBRANCH  22  23
ENDBRANCH  21  22
ENDBRANCH  15  18
TORSDOF 6
ENDMDL
MODEL 2
REMARK VINA RESULT:     -10.4      2.056      2.749
REMARK  Name = 
REMARK  6 active torsions:
REMARK  status: ('A' for Active; 'I' for Inactive)
REMARK    1  A    between atoms: C_4  and  C_13
REMARK    2  A    between atoms: N_5  and  C_6
REMARK    3  A    between atoms: C_6  and  C_7
REMARK    4  A    between atoms: C_15  and  C_18
REMARK    5  A    between atoms: C_21  and  O_22
REMARK    6  A    between atoms: O_22  and  C_23
REMARK                            x       y       z     vdW  Elec       q    Type
REMARK                         _______ _______ _______ _____ _____    ______ ____
ROOT
ATOM     13  C   UNL     1      -1.018   1.322  25.008  0.00  0.00    +0.251 A 
ATOM     14  N   UNL     1      -1.588   0.789  25.276  0.00  0.00    -0.190 NA
ATOM     15  C   UNL     1      -1.818   0.319  24.638  0.00  0.00    +0.203 A 
ATOM     16  N   UNL     1      -1.391   0.561  23.975  0.00  0.00    -0.056 NA
ATOM     17  O   UNL     1      -0.897   1.181  24.203  0.00  0.00    -0.336 OA
ENDROOT
BRANCH  13   4
ATOM      1  O   UNL     1       0.749   2.599  26.925  0.00  0.00    -0.222 OA
ATOM      2  C   UNL     1       0.175   2.482  26.344  0.00  0.00    +0.170 C 
ATOM      3  C   UNL     1      -0.048   1.755  26.023  0.00  0.00    +0.060 C 
ATOM      4  C   UNL     1      -0.637   1.894  25.462  0.00  0.00    +0.141 C 
ATOM      5  N   UNL     1      -0.778   2.707  25.437  0.00  0.00    -0.258 NA
ATOM     12  C   UNL     1      -0.275   3.070  25.982  0.00  0.00    +0.106 C 
BRANCH   5   6
ATOM      6  C   UNL     1      -1.324   3.090  24.952  0.00  0.00    +0.139 C 
BRANCH   6   7
ATOM      7  C   UNL     1      -1.481   3.892  25.061  0.00  0.00    +0.155 A 
ATOM      8  N   UNL     1      -2.122   4.209  25.472  0.00  0.00    -0.226 NA
ATOM      9  C   UNL     1      -2.063   5.031  25.443  0.00  0.00    +0.121 A 
ATOM     10  C   UNL     1      -1.385   5.223  25.013  0.00  0.00    +0.121 A 
ATOM     11  N   UNL     1      -1.026   4.518  24.777  0.00  0.00    -0.226 NA
ENDBRANCH   6   7
ENDBRANCH   5   6
ENDBRANCH  13   4
BRANCH  15  18
ATOM     18  C   UNL     1      -2.378  -0.287  24.659  0.00  0.00    +0.039 A 
ATOM     19  C   UNL     1      -2.133  -1.074  24.702  0.00  0.00    +0.006 A 
ATOM     20  C   UNL     1      -2.692  -1.679  24.723  0.00  0.00    +0.037 A 
ATOM     21  C   UNL     1      -3.497  -1.499  24.702  0.00  0.00    +0.147 A 
ATOM     27  C   UNL     1      -3.742  -0.713  24.659  0.00  0.00    +0.037 A 
ATOM     28  C   UNL     1      -3.182  -0.106  24.638  0.00  0.00    +0.006 A 
BRANCH  21  22
ATOM     22  O   UNL     1      -4.056  -2.104  24.723  0.00  0.00    -0.404 OA
BRANCH  22  23
ATOM     23  C   UNL     1      -4.276  -2.487  24.026  0.00  0.00    +0.575 C 
ATOM     24  F   UNL     1      -4.496  -2.870  23.329  0.00  0.00    -0.133 F 
ATOM     25  F   UNL     1      -4.809  -1.880  23.859  0.00  0.00    -0.133 F 
ATOM     26  F   UNL     1      -3.744  -3.095  24.192  0.00  0.00    -0.133 F 
ENDBRANCH  22  23
ENDBRANCH  21  22
ENDBRANCH  15  18
TORSDOF 6
ENDMDL
MODEL 3
REMARK VINA RESULT:      -9.9      3.184      4.831
REMARK  Name = 
REMARK  6 active torsions:
REMARK  status: ('A' for Active; 'I' for Inactive)
REMARK    1  A    between atoms: C_4  and  C_13
REMARK    2  A    between atoms: N_5  and  C_6
REMARK    3  A    between atoms: C_6  and  C_7
REMARK    4  A    between atoms: C_15  and  C_18
REMARK    5  A    between atoms: C_21  and  O_22
REMARK    6  A    between atoms: O_22  and  C_23
REMARK                            x       y       z     vdW  Elec       q    Type
REMARK                         _______ _______ _______ _____ _____    ______ ____
ROOT
ATOM     13  C   UNL     1      -1.820   1.875  23.880  0.00  0.00    +0.251 A 
ATOM     14  N   UNL     1      -2.415   1.960  24.445  0.00  0.00    -0.190 NA
ATOM     15  C   UNL     1      -3.114   2.153  24.052  0.00  0.00    +0.203 A 
ATOM     16  N   UNL     1      -2.953   2.186  23.244  0.00  0.00    -0.056 NA
ATOM     17  O   UNL     1      -2.153   2.014  23.137  0.00  0.00    -0.336 OA
ENDROOT
BRANCH  13   4
ATOM      1  O   UNL     1       1.038   2.104  24.336  0.00  0.00    -0.222 OA
ATOM      2  C   UNL     1       0.282   1.788  24.239  0.00  0.00    +0.170 C 
ATOM      3  C   UNL     1      -0.405   2.218  24.084  0.00  0.00    +0.060 C 
ATOM      4  C   UNL     1      -1.032   1.684  24.029  0.00  0.00    +0.141 C 
ATOM      5  N   UNL     1      -0.731   0.925  24.151  0.00  0.00    -0.258 NA
ATOM     12  C   UNL     1       0.081   0.990  24.281  0.00  0.00    +0.106 C 
BRANCH   5   6
ATOM      6  C   UNL     1      -1.166   0.224  24.144  0.00  0.00    +0.139 C 
BRANCH   6   7
ATOM      7  C   UNL     1      -0.876  -0.445  24.528  0.00  0.00    +0.155 A 
ATOM      8  N   UNL     1      -0.385  -1.020  24.197  0.00  0.00    -0.226 NA
ATOM      9  C   UNL     1      -0.231  -1.588  24.775  0.00  0.00    +0.121 A 
ATOM     10  C   UNL     1      -0.628  -1.365  25.464  0.00  0.00    +0.121 A 
ATOM     11  N   UNL     1      -1.026  -0.659  25.311  0.00  0.00    -0.226 NA
ENDBRANCH   6   7
ENDBRANCH   5   6
ENDBRANCH  13   4
BRANCH  15  18
ATOM     18  C   UNL     1      -3.848   2.288  24.406  0.00  0.00    +0.039 A 
ATOM     19  C   UNL     1      -4.424   1.698  24.400  0.00  0.00    +0.006 A 
ATOM     20  C   UNL     1      -5.156   1.833  24.754  0.00  0.00    +0.037 A 
ATOM     21  C   UNL     1      -5.314   2.559  25.114  0.00  0.00    +0.147 A 
ATOM     27  C   UNL     1      -4.738   3.149  25.119  0.00  0.00    +0.037 A 
ATOM     28  C   UNL     1      -4.004   3.014  24.766  0.00  0.00    +0.006 A 
BRANCH  21  22
ATOM     22  O   UNL     1      -6.046   2.694  25.467  0.00  0.00    -0.404 OA
BRANCH  22  23
ATOM     23  C   UNL     1      -6.299   2.214  26.088  0.00  0.00    +0.575 C 
ATOM     24  F   UNL     1      -6.552   1.733  26.710  0.00  0.00    -0.133 F 
ATOM     25  F   UNL     1      -6.706   1.735  25.553  0.00  0.00    -0.133 F 
ATOM     26  F   UNL     1      -5.893   2.691  26.624  0.00  0.00    -0.133 F 
ENDBRANCH  22  23
ENDBRANCH  21  22
ENDBRANCH  15  18
TORSDOF 6
ENDMDL
MODEL 4
REMARK VINA RESULT:      -9.8      1.381      2.149
REMARK  Name = 
REMARK  6 active torsions:
REMARK  status: ('A' for Active; 'I' for Inactive)
REMARK    1  A    between atoms: C_4  and  C_13
REMARK    2  A    between atoms: N_5  and  C_6
REMARK    3  A    between atoms: C_6  and  C_7
REMARK    4  A    between atoms: C_15  and  C_18
REMARK    5  A    between atoms: C_21  and  O_22
REMARK    6  A    between atoms: O_22  and  C_23
REMARK                            x       y       z     vdW  Elec       q    Type
REMARK                         _______ _______ _______ _____ _____    ______ ____
ROOT
ATOM     13  C   UNL     1      -2.257   2.007  24.501  0.00  0.00    +0.251 A 
ATOM     14  N   UNL     1      -2.416   1.298  24.892  0.00  0.00    -0.190 NA
ATOM     15  C   UNL     1      -2.267   0.678  24.367  0.00  0.00    +0.203 A 
ATOM     16  N   UNL     1      -2.016   1.004  23.652  0.00  0.00    -0.056 NA
ATOM     17  O   UNL     1      -2.010   1.826  23.735  0.00  0.00    -0.336 OA
ENDROOT
BRANCH  13   4
ATOM      1  O   UNL     1      -1.625   4.558  25.735  0.00  0.00    -0.222 OA
ATOM      2  C   UNL     1      -2.042   3.936  25.387  0.00  0.00    +0.170 C 
ATOM      3  C   UNL     1      -1.719   3.221  25.131  0.00  0.00    +0.060 C 
ATOM      4  C   UNL     1      -2.332   2.763  24.820  0.00  0.00    +0.141 C 
ATOM      5  N   UNL     1      -3.031   3.196  24.885  0.00  0.00    -0.258 NA
ATOM     12  C   UNL     1      -2.852   3.921  25.236  0.00  0.00    +0.106 C 
BRANCH   5   6
ATOM      6  C   UNL     1      -3.779   2.947  24.642  0.00  0.00    +0.139 C 
BRANCH   6   7
ATOM      7  C   UNL     1      -4.450   3.197  25.051  0.00  0.00    +0.155 A 
ATOM      8  N   UNL     1      -4.844   2.776  25.640  0.00  0.00    -0.226 NA
ATOM      9  C   UNL     1      -5.483   3.231  25.896  0.00  0.00    +0.121 A 
ATOM     10  C   UNL     1      -5.484   3.934  25.464  0.00  0.00    +0.121 A 
ATOM     11  N   UNL     1      -4.846   3.913  24.942  0.00  0.00    -0.226 NA
ENDBRANCH   6   7
ENDBRANCH   5   6
ENDBRANCH  13   4
BRANCH  15  18
ATOM     18  C   UNL     1      -2.354  -0.126  24.529  0.00  0.00    +0.039 A 
ATOM     19  C   UNL     1      -3.105  -0.442  24.659  0.00  0.00    +0.006 A 
ATOM     20  C   UNL     1      -3.191  -1.246  24.821  0.00  0.00    +0.037 A 
ATOM     21  C   UNL     1      -2.527  -1.735  24.852  0.00  0.00    +0.147 A 
ATOM     27  C   UNL     1      -1.776  -1.419  24.721  0.00  0.00    +0.037 A 
ATOM     28  C   UNL     1      -1.690  -0.614  24.560  0.00  0.00    +0.006 A 
BRANCH  21  22
ATOM     22  O   UNL     1      -2.614  -2.539  25.014  0.00  0.00    -0.404 OA
BRANCH  22  23
ATOM     23  C   UNL     1      -3.257  -2.954  24.707  0.00  0.00    +0.575 C 
ATOM     24  F   UNL     1      -3.901  -3.370  24.399  0.00  0.00    -0.133 F 
ATOM     25  F   UNL     1      -2.860  -3.039  23.988  0.00  0.00    -0.133 F 
ATOM     26  F   UNL     1      -3.655  -2.869  25.424  0.00  0.00    -0.133 F 
ENDBRANCH  22  23
ENDBRANCH  21  22
ENDBRANCH  15  18
TORSDOF 6
ENDMDL
MODEL 5
REMARK VINA RESULT:      -9.7      3.643      6.161
REMARK  Name = 
REMARK  6 active torsions:
REMARK  status: ('A' for Active; 'I' for Inactive)
REMARK    1  A    between atoms: C_4  and  C_13
REMARK    2  A    between atoms: N_5  and  C_6
REMARK    3  A    between atoms: C_6  and  C_7
REMARK    4  A    between atoms: C_15  and  C_18
REMARK    5  A    between atoms: C_21  and  O_22
REMARK    6  A    between atoms: O_22  and  C_23
REMARK                            x       y       z     vdW  Elec       q    Type
REMARK                         _______ _______ _______ _____ _____    ______ ____
ROOT
ATOM     13  C   UNL     1      -1.079   0.301  24.521  0.00  0.00    +0.251 A 
ATOM     14  N   UNL     1      -1.137   0.953  25.022  0.00  0.00    -0.190 NA
ATOM     15  C   UNL     1      -1.202   1.630  24.554  0.00  0.00    +0.203 A 
ATOM     16  N   UNL     1      -1.184   1.396  23.763  0.00  0.00    -0.056 NA
ATOM     17  O   UNL     1      -1.108   0.574  23.742  0.00  0.00    -0.336 OA
ENDROOT
BRANCH  13   4
ATOM      1  O   UNL     1       0.058  -2.227  25.386  0.00  0.00    -0.222 OA
ATOM      2  C   UNL     1      -0.482  -1.648  25.154  0.00  0.00    +0.170 C 
ATOM      3  C   UNL     1      -0.300  -0.869  24.953  0.00  0.00    +0.060 C 
ATOM      4  C   UNL     1      -1.004  -0.486  24.756  0.00  0.00    +0.141 C 
ATOM      5  N   UNL     1      -1.620  -1.029  24.835  0.00  0.00    -0.258 NA
ATOM     12  C   UNL     1      -1.297  -1.748  25.081  0.00  0.00    +0.106 C 
BRANCH   5   6
ATOM      6  C   UNL     1      -2.419  -0.881  24.693  0.00  0.00    +0.139 C 
BRANCH   6   7
ATOM      7  C   UNL     1      -2.960  -1.503  24.687  0.00  0.00    +0.155 A 
ATOM      8  N   UNL     1      -3.337  -1.825  25.347  0.00  0.00    -0.226 NA
ATOM      9  C   UNL     1      -3.829  -2.434  25.088  0.00  0.00    +0.121 A 
ATOM     10  C   UNL     1      -3.756  -2.489  24.267  0.00  0.00    +0.121 A 
ATOM     11  N   UNL     1      -3.219  -1.914  24.021  0.00  0.00    -0.226 NA
ENDBRANCH   6   7
ENDBRANCH   5   6
ENDBRANCH  13   4
BRANCH  15  18
ATOM     18  C   UNL     1      -1.273   2.405  24.828  0.00  0.00    +0.039 A 
ATOM     19  C   UNL     1      -0.599   2.831  25.039  0.00  0.00    +0.006 A 
ATOM     20  C   UNL     1      -0.669   3.605  25.314  0.00  0.00    +0.037 A 
ATOM     21  C   UNL     1      -1.414   3.954  25.377  0.00  0.00    +0.147 A 
ATOM     27  C   UNL     1      -2.089   3.528  25.167  0.00  0.00    +0.037 A 
ATOM     28  C   UNL     1      -2.018   2.753  24.892  0.00  0.00    +0.006 A 
BRANCH  21  22
ATOM     22  O   UNL     1      -1.485   4.729  25.652  0.00  0.00    -0.404 OA
BRANCH  22  23
ATOM     23  C   UNL     1      -1.511   5.355  25.116  0.00  0.00    +0.575 C 
ATOM     24  F   UNL     1      -1.537   5.982  24.579  0.00  0.00    -0.133 F 
ATOM     25  F   UNL     1      -0.686   5.379  25.103  0.00  0.00    -0.133 F 
ATOM     26  F   UNL     1      -2.335   5.332  25.128  0.00  0.00    -0.133 F 
ENDBRANCH  22  23
ENDBRANCH  21  22
ENDBRANCH  15  18
TORSDOF 6
ENDMDL
MODEL 6
REMARK VINA RESULT:      -9.7      3.144      5.330
REMARK  Name = 
REMARK  6 active torsions:
REMARK  status: ('A' for Active; 'I' for Inactive)
REMARK    1  A    between atoms: C_4  and  C_13
REMARK    2  A    between atoms: N_5  and  C_6
REMARK    3  A    between atoms: C_6  and  C_7
REMARK    4  A    between atoms: C_15  and  C_18
REMARK    5  A    between atoms: C_21  and  O_22
REMARK    6  A    between atoms: O_22  and  C_23
REMARK                            x       y       z     vdW  Elec       q    Type
REMARK                         _______ _______ _______ _____ _____    ______ ____
ROOT
ATOM     13  C   UNL     1      -3.747  -0.160  24.262  0.00  0.00    +0.251 A 
ATOM     14  N   UNL     1      -4.085   0.314  24.847  0.00  0.00    -0.190 NA
ATOM     15  C   UNL     1      -4.207   1.065  24.527  0.00  0.00    +0.203 A 
ATOM     16  N   UNL     1      -3.944   1.056  23.746  0.00  0.00    -0.056 NA
ATOM     17  O   UNL     1      -3.659   0.299  23.581  0.00  0.00    -0.336 OA
ENDROOT
BRANCH  13   4
ATOM      1  O   UNL     1      -3.837  -3.061  24.223  0.00  0.00    -0.222 OA
ATOM      2  C   UNL     1      -3.575  -2.286  24.326  0.00  0.00    +0.170 C 
ATOM      3  C   UNL     1      -4.007  -1.603  24.160  0.00  0.00    +0.060 C 
ATOM      4  C   UNL     1      -3.534  -0.952  24.343  0.00  0.00    +0.141 C 
ATOM      5  N   UNL     1      -2.810  -1.234  24.622  0.00  0.00    -0.258 NA
ATOM     12  C   UNL     1      -2.836  -2.059  24.611  0.00  0.00    +0.106 C 
BRANCH   5   6
ATOM      6  C   UNL     1      -2.173  -0.772  24.868  0.00  0.00    +0.139 C 
BRANCH   6   7
ATOM      7  C   UNL     1      -1.417  -1.100  24.907  0.00  0.00    +0.155 A 
ATOM      8  N   UNL     1      -1.086  -1.480  25.560  0.00  0.00    -0.226 NA
ATOM      9  C   UNL     1      -0.323  -1.720  25.357  0.00  0.00    +0.121 A 
ATOM     10  C   UNL     1      -0.182  -1.488  24.578  0.00  0.00    +0.121 A 
ATOM     11  N   UNL     1      -0.858  -1.105  24.300  0.00  0.00    -0.226 NA
ENDBRANCH   6   7
ENDBRANCH   5   6
ENDBRANCH  13   4
BRANCH  15  18
ATOM     18  C   UNL     1      -4.534   1.713  24.921  0.00  0.00    +0.039 A 
ATOM     19  C   UNL     1      -5.302   1.668  25.220  0.00  0.00    +0.006 A 
ATOM     20  C   UNL     1      -5.629   2.315  25.613  0.00  0.00    +0.037 A 
ATOM     21  C   UNL     1      -5.189   3.007  25.708  0.00  0.00    +0.147 A 
ATOM     27  C   UNL     1      -4.421   3.051  25.409  0.00  0.00    +0.037 A 
ATOM     28  C   UNL     1      -4.094   2.404  25.015  0.00  0.00    +0.006 A 
BRANCH  21  22
ATOM     22  O   UNL     1      -5.515   3.653  26.101  0.00  0.00    -0.404 OA
BRANCH  22  23
ATOM     23  C   UNL     1      -5.837   4.278  25.670  0.00  0.00    +0.575 C 
ATOM     24  F   UNL     1      -6.159   4.904  25.238  0.00  0.00    -0.133 F 
ATOM     25  F   UNL     1      -5.095   4.638  25.636  0.00  0.00    -0.133 F 
ATOM     26  F   UNL     1      -6.579   3.920  25.704  0.00  0.00    -0.133 F 
ENDBRANCH  22  23
ENDBRANCH  21  22
ENDBRANCH  15  18
TORSDOF 6
ENDMDL
MODEL 7
REMARK VINA RESULT:      -9.7      3.447      4.960
REMARK  Name = 
REMARK  6 active torsions:
REMARK  status: ('A' for Active; 'I' for Inactive)
REMARK    1  A    between atoms: C_4  and  C_13
REMARK    2  A    between atoms: N_5  and  C_6
REMARK    3  A    between atoms: C_6  and  C_7
REMARK    4  A    between atoms: C_15  and  C_18
REMARK    5  A    between atoms: C_21  and  O_22
REMARK    6  A    between atoms: O_22  and  C_23
REMARK                            x       y       z     vdW  Elec       q    Type
REMARK                         _______ _______ _______ _____ _____    ______ ____
ROOT
ATOM     13  C   UNL     1      -2.448  -0.397  24.521  0.00  0.00    +0.251 A 
ATOM     14  N   UNL     1      -2.803   0.274  24.845  0.00  0.00    -0.190 NA
ATOM     15  C   UNL     1      -3.533   0.380  24.476  0.00  0.00    +0.203 A 
ATOM     16  N   UNL     1      -3.630  -0.225  23.924  0.00  0.00    -0.056 NA
ATOM     17  O   UNL     1      -2.959  -0.705  23.952  0.00  0.00    -0.336 OA
ENDROOT
BRANCH  13   4
ATOM      1  O   UNL     1      -0.385  -2.024  25.757  0.00  0.00    -0.222 OA
ATOM      2  C   UNL     1      -0.764  -1.452  25.298  0.00  0.00    +0.170 C 
ATOM      3  C   UNL     1      -1.578  -1.329  25.252  0.00  0.00    +0.060 C 
ATOM      4  C   UNL     1      -1.712  -0.705  24.730  0.00  0.00    +0.141 C 
ATOM      5  N   UNL     1      -0.980  -0.443  24.453  0.00  0.00    -0.258 NA
ATOM     12  C   UNL     1      -0.394  -0.905  24.804  0.00  0.00    +0.106 C 
BRANCH   5   6
ATOM      6  C   UNL     1      -0.856   0.173  23.919  0.00  0.00    +0.139 C 
BRANCH   6   7
ATOM      7  C   UNL     1      -0.090   0.368  23.684  0.00  0.00    +0.155 A 
ATOM      8  N   UNL     1       0.364   0.990  23.978  0.00  0.00    -0.226 NA
ATOM      9  C   UNL     1       1.092   0.981  23.589  0.00  0.00    +0.121 A 
ATOM     10  C   UNL     1       1.087   0.353  23.054  0.00  0.00    +0.121 A 
ATOM     11  N   UNL     1       0.357  -0.026  23.113  0.00  0.00    -0.226 NA
ENDBRANCH   6   7
ENDBRANCH   5   6
ENDBRANCH  13   4
BRANCH  15  18
ATOM     18  C   UNL     1      -4.073   0.985  24.632  0.00  0.00    +0.039 A 
ATOM     19  C   UNL     1      -3.988   1.718  24.264  0.00  0.00    +0.006 A 
ATOM     20  C   UNL     1      -4.526   2.322  24.419  0.00  0.00    +0.037 A 
ATOM     21  C   UNL     1      -5.151   2.194  24.944  0.00  0.00    +0.147 A 
ATOM     27  C   UNL     1      -5.236   1.461  25.312  0.00  0.00    +0.037 A 
ATOM     28  C   UNL     1      -4.696   0.856  25.156  0.00  0.00    +0.006 A 
BRANCH  21  22
ATOM     22  O   UNL     1      -5.689   2.798  25.099  0.00  0.00    -0.404 OA
BRANCH  22  23
ATOM     23  C   UNL     1      -5.471   3.432  25.581  0.00  0.00    +0.575 C 
ATOM     24  F   UNL     1      -5.252   4.066  26.062  0.00  0.00    -0.133 F 
ATOM     25  F   UNL     1      -5.216   3.850  24.916  0.00  0.00    -0.133 F 
ATOM     26  F   UNL     1      -5.725   3.015  26.245  0.00  0.00    -0.133 F 
ENDBRANCH  22  23
ENDBRANCH  21  22
ENDBRANCH  15  18
TORSDOF 6
ENDMDL
