MODEL 1
REMARK VINA RESULT:     -11.7      0.000      0.000
REMARK  Name = 
REMARK  5 active torsions:
REMARK  status: ('A' for Active; 'I' for Inactive)
REMARK    1  A    between atoms: N_4  and  C_5
REMARK    2  A    between atoms: C_8  and  C_11
REMARK    3  A    between atoms: C_11  and  C_13
REMARK    4  A    between atoms: N_19  and  C_20
REMARK    5  A    between atoms: C_20  and  C_21
REMARK                            x       y       z     vdW  Elec       q    Type
REMARK                         _______ _______ _______ _____ _____    ______ ____
ROOT
ATOM     13  C   UNL     1      -4.306   1.818  24.771  0.00  0.00    +0.140 C 
ATOM     14  C   UNL     1      -4.981   1.552  25.163  0.00  0.00    +0.165 C 
ATOM     15  O   UNL     1      -5.420   2.073  25.629  0.00  0.00    -0.343 OA
ATOM     16  C   UNL     1      -5.184   2.859  25.702  0.00  0.00    +0.227 C 
ATOM     17  C   UNL     1      -4.509   3.126  25.310  0.00  0.00    +0.256 C 
ATOM     18  O   UNL     1      -4.273   3.913  25.383  0.00  0.00    -0.272 OA
ATOM     19  N   UNL     1      -4.070   2.606  24.844  0.00  0.00    -0.270 N 
ENDROOT
BRANCH  13  11
ATOM     11  C   UNL     1      -3.867   1.298  24.304  0.00  0.00    +0.195 C 
ATOM     12  O   UNL     1      -3.452   1.581  23.650  0.00  0.00    -0.216 OA
BRANCH  11   8
ATOM      5  C   UNL     1      -3.795  -1.110  24.870  0.00  0.00    +0.073 A 
ATOM      6  C   UNL     1      -4.298  -0.842  24.274  0.00  0.00    +0.016 A 
ATOM      7  C   UNL     1      -4.322  -0.039  24.085  0.00  0.00    -0.000 A 
ATOM      8  C   UNL     1      -3.843   0.496  24.493  0.00  0.00    +0.010 A 
ATOM      9  C   UNL     1      -3.340   0.226  25.089  0.00  0.00    -0.000 A 
ATOM     10  C   UNL     1      -3.316  -0.577  25.277  0.00  0.00    +0.016 A 
BRANCH   5   4
ATOM      1  C   UNL     1      -3.194  -3.208  24.885  0.00  0.00    +0.097 C 
ATOM      2  C   UNL     1      -3.218  -2.406  24.696  0.00  0.00    +0.246 C 
ATOM      3  O   UNL     1      -2.688  -2.096  24.146  0.00  0.00    -0.273 OA
ATOM      4  N   UNL     1      -3.771  -1.914  25.059  0.00  0.00    -0.179 NA
ENDBRANCH   5   4
ENDBRANCH  11   8
ENDBRANCH  13  11
BRANCH  19  20
ATOM     20  C   UNL     1      -3.396   2.872  24.452  0.00  0.00    +0.120 C 
BRANCH  20  21
ATOM     21  C   UNL     1      -2.812   3.282  24.866  0.00  0.00    -0.002 A 
ATOM     22  C   UNL     1      -2.353   2.890  25.429  0.00  0.00    -0.003 A 
ATOM     23  C   UNL     1      -1.770   3.299  25.843  0.00  0.00    -0.000 A 
ATOM     24  C   UNL     1      -1.643   4.101  25.695  0.00  0.00    -0.000 A 
ATOM     25  C   UNL     1      -2.102   4.493  25.132  0.00  0.00    -0.000 A 
ATOM     26  C   UNL     1      -2.686   4.083  24.717  0.00  0.00    -0.003 A 
ENDBRANCH  20  21
ENDBRANCH  19  20
TORSDOF 5
ENDMDL
MODEL 2
REMARK VINA RESULT:     -11.1      1.587      5.039
REMARK  Name = 
REMARK  5 active torsions:
REMARK  status: ('A' for Active; 'I' for Inactive)
REMARK    1  A    between atoms: N_4  and  C_5
REMARK    2  A    between atoms: C_8  and  C_11
REMARK    3  A    between atoms: C_11  and  C_13
REMARK    4  A    between atoms: N_19  and  C_20
REMARK    5  A    between atoms: C_20  and  C_21
REMARK                            x       y       z     vdW  Elec       q    Type
REMARK                         _______ _______ _______ _____ _____    ______ ____
ROOT
ATOM     13  C   UNL     1      -2.083   0.500  24.238  0.00  0.00    +0.140 C 
ATOM     14  C   UNL     1      -1.361   0.713  23.898  0.00  0.00    +0.165 C 
ATOM     15  O   UNL     1      -0.712   0.208  23.961  0.00  0.00    -0.343 OA
ATOM     16  C   UNL     1      -0.782  -0.508  24.364  0.00  0.00    +0.227 C 
ATOM     17  C   UNL     1      -1.503  -0.721  24.703  0.00  0.00    +0.256 C 
ATOM     18  O   UNL     1      -1.575  -1.437  25.106  0.00  0.00    -0.272 OA
ATOM     19  N   UNL     1      -2.154  -0.217  24.641  0.00  0.00    -0.270 N 
ENDROOT
BRANCH  13  11
ATOM     11  C   UNL     1      -2.733   1.004  24.175  0.00  0.00    +0.195 C 
ATOM     12  O   UNL     1      -3.460   0.709  23.919  0.00  0.00    -0.216 OA
BRANCH  11   8
ATOM      5  C   UNL     1      -2.504   3.398  24.756  0.00  0.00    +0.073 A 
ATOM      6  C   UNL     1      -2.524   3.166  23.964  0.00  0.00    +0.016 A 
ATOM      7  C   UNL     1      -2.600   2.368  23.771  0.00  0.00    -0.000 A 
ATOM      8  C   UNL     1      -2.657   1.802  24.369  0.00  0.00    +0.010 A 
ATOM      9  C   UNL     1      -2.637   2.035  25.160  0.00  0.00    -0.000 A 
ATOM     10  C   UNL     1      -2.560   2.833  25.353  0.00  0.00    +0.016 A 
BRANCH   5   4
ATOM      1  C   UNL     1      -1.602   5.324  25.250  0.00  0.00    +0.097 C 
ATOM      2  C   UNL     1      -1.678   4.526  25.056  0.00  0.00    +0.246 C 
ATOM      3  O   UNL     1      -1.006   4.056  24.970  0.00  0.00    -0.273 OA
ATOM      4  N   UNL     1      -2.427   4.198  24.949  0.00  0.00    -0.179 NA
ENDBRANCH   5   4
ENDBRANCH  11   8
ENDBRANCH  13  11
BRANCH  19  20
ATOM     20  C   UNL     1      -2.874  -0.430  24.980  0.00  0.00    +0.120 C 
BRANCH  20  21
ATOM     21  C   UNL     1      -3.200  -1.172  24.827  0.00  0.00    -0.002 A 
ATOM     22  C   UNL     1      -3.542  -1.329  24.092  0.00  0.00    -0.003 A 
ATOM     23  C   UNL     1      -3.867  -2.071  23.940  0.00  0.00    -0.000 A 
ATOM     24  C   UNL     1      -3.852  -2.656  24.521  0.00  0.00    -0.000 A 
ATOM     25  C   UNL     1      -3.510  -2.499  25.255  0.00  0.00    -0.000 A 
ATOM     26  C   UNL     1      -3.184  -1.756  25.408  0.00  0.00    -0.003 A 
ENDBRANCH  20  21
ENDBRANCH  19  20
TORSDOF 5
ENDMDL
