MODEL 1
REMARK VINA RESULT:      -9.7      0.000      0.000
REMARK  Name = 
REMARK  3 active torsions:
REMARK  status: ('A' for Active; 'I' for Inactive)
REMARK    1  A    between atoms: O_2  and  C_3
REMARK    2  A    between atoms: C_3  and  C_4
REMARK    3  A    between atoms: C_9  and  C_11
REMARK                            x       y       z     vdW  Elec       q    Type
REMARK                         _______ _______ _______ _____ _____    ______ ____
ROOT
ATOM      4  C   UNL     1      -5.369   2.504  25.572  0.00  0.00    +0.256 C 
ATOM      5  O   UNL     1      -5.914   2.260  26.142  0.00  0.00    -0.272 OA
ATOM      6  N   UNL     1      -4.889   1.949  25.195  0.00  0.00    -0.277 N 
ATOM      7  C   UNL     1      -4.323   2.110  24.617  0.00  0.00    +0.094 C 
ATOM      8  C   UNL     1      -3.976   1.395  24.394  0.00  0.00    +0.031 C 
ATOM      9  C   UNL     1      -4.327   0.793  24.835  0.00  0.00    +0.080 C 
ATOM     10  C   UNL     1      -4.892   1.135  25.329  0.00  0.00    +0.101 C 
ENDROOT
BRANCH   9  11
ATOM     11  C   UNL     1      -4.146  -0.011  24.789  0.00  0.00    +0.140 A 
ATOM     12  N   UNL     1      -4.358  -0.522  24.177  0.00  0.00    -0.229 NA
ATOM     13  C   UNL     1      -4.064  -1.270  24.356  0.00  0.00    +0.102 A 
ATOM     14  C   UNL     1      -3.670  -1.223  25.079  0.00  0.00    +0.100 A 
ATOM     15  N   UNL     1      -3.720  -0.445  25.347  0.00  0.00    -0.229 NA
ATOM     16  C   UNL     1      -3.316  -1.896  25.400  0.00  0.00    +0.023 A 
ATOM     17  C   UNL     1      -3.356  -2.615  24.999  0.00  0.00    +0.031 A 
ATOM     18  C   UNL     1      -3.750  -2.662  24.276  0.00  0.00    +0.142 A 
ATOM     19  F   UNL     1      -3.790  -3.381  23.874  0.00  0.00    -0.204 F 
ATOM     20  C   UNL     1      -4.104  -1.991  23.954  0.00  0.00    +0.050 A 
ENDBRANCH   9  11
BRANCH   4   3
ATOM      3  C   UNL     1      -5.305   3.304  25.379  0.00  0.00    +0.227 C 
BRANCH   3   2
ATOM      1  C   UNL     1      -5.780   4.645  25.509  0.00  0.00    +0.175 C 
ATOM      2  O   UNL     1      -5.778   3.860  25.763  0.00  0.00    -0.342 OA
ENDBRANCH   3   2
ENDBRANCH   4   3
TORSDOF 3
ENDMDL
MODEL 2
REMARK VINA RESULT:      -9.6      2.084      2.377
REMARK  Name = 
REMARK  3 active torsions:
REMARK  status: ('A' for Active; 'I' for Inactive)
REMARK    1  A    between atoms: O_2  and  C_3
REMARK    2  A    between atoms: C_3  and  C_4
REMARK    3  A    between atoms: C_9  and  C_11
REMARK                            x       y       z     vdW  Elec       q    Type
REMARK                         _______ _______ _______ _____ _____    ______ ____
ROOT
ATOM      4  C   UNL     1      -1.922   2.804  25.142  0.00  0.00    +0.256 C 
ATOM      5  O   UNL     1      -1.179   2.542  25.390  0.00  0.00    -0.272 OA
ATOM      6  N   UNL     1      -2.507   2.258  24.942  0.00  0.00    -0.277 N 
ATOM      7  C   UNL     1      -3.271   2.437  24.687  0.00  0.00    +0.094 C 
ATOM      8  C   UNL     1      -3.667   1.726  24.549  0.00  0.00    +0.031 C 
ATOM      9  C   UNL     1      -3.147   1.108  24.719  0.00  0.00    +0.080 C 
ATOM     10  C   UNL     1      -2.430   1.437  24.962  0.00  0.00    +0.101 C 
ENDROOT
BRANCH   9  11
ATOM     11  C   UNL     1      -3.315   0.303  24.657  0.00  0.00    +0.140 A 
ATOM     12  N   UNL     1      -3.067  -0.286  25.179  0.00  0.00    -0.229 NA
ATOM     13  C   UNL     1      -3.359  -1.007  24.907  0.00  0.00    +0.102 A 
ATOM     14  C   UNL     1      -3.788  -0.865  24.216  0.00  0.00    +0.100 A 
ATOM     15  N   UNL     1      -3.761  -0.055  24.062  0.00  0.00    -0.229 NA
ATOM     16  C   UNL     1      -4.148  -1.491  23.818  0.00  0.00    +0.023 A 
ATOM     17  C   UNL     1      -4.079  -2.260  24.109  0.00  0.00    +0.031 A 
ATOM     18  C   UNL     1      -3.650  -2.402  24.799  0.00  0.00    +0.142 A 
ATOM     19  F   UNL     1      -3.581  -3.171  25.091  0.00  0.00    -0.204 F 
ATOM     20  C   UNL     1      -3.290  -1.777  25.199  0.00  0.00    +0.050 A 
ENDBRANCH   9  11
BRANCH   4   3
ATOM      3  C   UNL     1      -2.078   3.613  25.095  0.00  0.00    +0.227 C 
BRANCH   3   2
ATOM      1  C   UNL     1      -1.632   4.966  25.194  0.00  0.00    +0.175 C 
ATOM      2  O   UNL     1      -1.493   4.159  25.294  0.00  0.00    -0.342 OA
ENDBRANCH   3   2
ENDBRANCH   4   3
TORSDOF 3
ENDMDL
MODEL 3
REMARK VINA RESULT:      -9.1      3.319      5.190
REMARK  Name = 
REMARK  3 active torsions:
REMARK  status: ('A' for Active; 'I' for Inactive)
REMARK    1  A    between atoms: O_2  and  C_3
REMARK    2  A    between atoms: C_3  and  C_4
REMARK    3  A    between atoms: C_9  and  C_11
REMARK                            x       y       z     vdW  Elec       q    Type
REMARK                         _______ _______ _______ _____ _____    ______ ____
ROOT
ATOM      4  C   UNL     1      -3.251  -0.551  24.841  0.00  0.00    +0.256 C 
ATOM      5  O   UNL     1      -2.936  -0.765  25.573  0.00  0.00    -0.272 OA
ATOM      6  N   UNL     1      -3.167   0.221  24.564  0.00  0.00    -0.277 N 
ATOM      7  C   UNL     1      -3.451   0.514  23.847  0.00  0.00    +0.094 C 
ATOM      8  C   UNL     1      -3.242   1.311  23.797  0.00  0.00    +0.031 C 
ATOM      9  C   UNL     1      -2.829   1.510  24.483  0.00  0.00    +0.080 C 
ATOM     10  C   UNL     1      -2.782   0.837  24.957  0.00  0.00    +0.101 C 
ENDROOT
BRANCH   9  11
ATOM     11  C   UNL     1      -2.517   2.253  24.662  0.00  0.00    +0.140 A 
ATOM     12  N   UNL     1      -1.767   2.527  24.456  0.00  0.00    -0.229 NA
ATOM     13  C   UNL     1      -1.688   3.295  24.746  0.00  0.00    +0.102 A 
ATOM     14  C   UNL     1      -2.389   3.495  25.131  0.00  0.00    +0.100 A 
ATOM     15  N   UNL     1      -2.902   2.852  25.080  0.00  0.00    -0.229 NA
ATOM     16  C   UNL     1      -2.470   4.239  25.479  0.00  0.00    +0.023 A 
ATOM     17  C   UNL     1      -1.850   4.782  25.442  0.00  0.00    +0.031 A 
ATOM     18  C   UNL     1      -1.149   4.581  25.057  0.00  0.00    +0.142 A 
ATOM     19  F   UNL     1      -0.528   5.123  25.019  0.00  0.00    -0.204 F 
ATOM     20  C   UNL     1      -1.067   3.838  24.708  0.00  0.00    +0.050 A 
ENDBRANCH   9  11
BRANCH   4   3
ATOM      3  C   UNL     1      -3.651  -1.111  24.386  0.00  0.00    +0.227 C 
BRANCH   3   2
ATOM      1  C   UNL     1      -3.975  -2.478  24.124  0.00  0.00    +0.175 C 
ATOM      2  O   UNL     1      -3.685  -1.897  24.633  0.00  0.00    -0.342 OA
ENDBRANCH   3   2
ENDBRANCH   4   3
TORSDOF 3
ENDMDL
MODEL 4
REMARK VINA RESULT:      -8.8      2.553      4.898
REMARK  Name = 
REMARK  3 active torsions:
REMARK  status: ('A' for Active; 'I' for Inactive)
REMARK    1  A    between atoms: O_2  and  C_3
REMARK    2  A    between atoms: C_3  and  C_4
REMARK    3  A    between atoms: C_9  and  C_11
REMARK                            x       y       z     vdW  Elec       q    Type
REMARK                         _______ _______ _______ _____ _____    ______ ____
ROOT
ATOM      4  C   UNL     1      -3.612  -1.428  25.219  0.00  0.00    +0.256 C 
ATOM      5  O   UNL     1      -3.570  -1.501  26.040  0.00  0.00    -0.272 OA
ATOM      6  N   UNL     1      -3.811  -0.703  24.879  0.00  0.00    -0.277 N 
ATOM      7  C   UNL     1      -3.874  -0.547  24.071  0.00  0.00    +0.094 C 
ATOM      8  C   UNL     1      -4.084   0.246  23.980  0.00  0.00    +0.031 C 
ATOM      9  C   UNL     1      -4.151   0.580  24.732  0.00  0.00    +0.080 C 
ATOM     10  C   UNL     1      -3.982  -0.006  25.287  0.00  0.00    +0.101 C 
ENDROOT
BRANCH   9  11
ATOM     11  C   UNL     1      -4.351   1.363  24.899  0.00  0.00    +0.140 A 
ATOM     12  N   UNL     1      -5.101   1.639  25.101  0.00  0.00    -0.229 NA
ATOM     13  C   UNL     1      -5.050   2.453  25.220  0.00  0.00    +0.102 A 
ATOM     14  C   UNL     1      -4.267   2.681  25.091  0.00  0.00    +0.100 A 
ATOM     15  N   UNL     1      -3.835   2.007  24.893  0.00  0.00    -0.229 NA
ATOM     16  C   UNL     1      -4.050   3.473  25.171  0.00  0.00    +0.023 A 
ATOM     17  C   UNL     1      -4.614   4.037  25.380  0.00  0.00    +0.031 A 
ATOM     18  C   UNL     1      -5.396   3.809  25.508  0.00  0.00    +0.142 A 
ATOM     19  F   UNL     1      -5.961   4.373  25.717  0.00  0.00    -0.204 F 
ATOM     20  C   UNL     1      -5.615   3.018  25.428  0.00  0.00    +0.050 A 
ENDBRANCH   9  11
BRANCH   4   3
ATOM      3  C   UNL     1      -3.455  -2.080  24.739  0.00  0.00    +0.227 C 
BRANCH   3   2
ATOM      1  C   UNL     1      -3.258  -3.487  24.590  0.00  0.00    +0.175 C 
ATOM      2  O   UNL     1      -3.367  -2.828  25.075  0.00  0.00    -0.342 OA
ENDBRANCH   3   2
ENDBRANCH   4   3
TORSDOF 3
ENDMDL
MODEL 5
REMARK VINA RESULT:      -8.7      3.378      4.959
REMARK  Name = 
REMARK  3 active torsions:
REMARK  status: ('A' for Active; 'I' for Inactive)
REMARK    1  A    between atoms: O_2  and  C_3
REMARK    2  A    between atoms: C_3  and  C_4
REMARK    3  A    between atoms: C_9  and  C_11
REMARK                            x       y       z     vdW  Elec       q    Type
REMARK                         _______ _______ _______ _____ _____    ______ ____
ROOT
ATOM      4  C   UNL     1      -0.815   0.518  24.157  0.00  0.00    +0.256 C 
ATOM      5  O   UNL     1      -0.777   0.069  24.849  0.00  0.00    -0.272 OA
ATOM      6  N   UNL     1      -1.465   1.007  24.018  0.00  0.00    -0.277 N 
ATOM      7  C   UNL     1      -1.579   1.485  23.355  0.00  0.00    +0.094 C 
ATOM      8  C   UNL     1      -2.300   1.877  23.445  0.00  0.00    +0.031 C 
ATOM      9  C   UNL     1      -2.631   1.640  24.163  0.00  0.00    +0.080 C 
ATOM     10  C   UNL     1      -2.115   1.103  24.517  0.00  0.00    +0.101 C 
ENDROOT
BRANCH   9  11
ATOM     11  C   UNL     1      -3.351   1.897  24.472  0.00  0.00    +0.140 A 
ATOM     12  N   UNL     1      -3.521   2.659  24.737  0.00  0.00    -0.229 NA
ATOM     13  C   UNL     1      -4.303   2.670  24.999  0.00  0.00    +0.102 A 
ATOM     14  C   UNL     1      -4.616   1.913  24.896  0.00  0.00    +0.100 A 
ATOM     15  N   UNL     1      -4.029   1.436  24.571  0.00  0.00    -0.229 NA
ATOM     16  C   UNL     1      -5.397   1.758  25.113  0.00  0.00    +0.023 A 
ATOM     17  C   UNL     1      -5.865   2.358  25.432  0.00  0.00    +0.031 A 
ATOM     18  C   UNL     1      -5.551   3.114  25.534  0.00  0.00    +0.142 A 
ATOM     19  F   UNL     1      -6.018   3.715  25.853  0.00  0.00    -0.204 F 
ATOM     20  C   UNL     1      -4.771   3.271  25.318  0.00  0.00    +0.050 A 
ENDBRANCH   9  11
BRANCH   4   3
ATOM      3  C   UNL     1      -0.203   0.478  23.606  0.00  0.00    +0.227 C 
BRANCH   3   2
ATOM      1  C   UNL     1       0.963  -0.175  23.099  0.00  0.00    +0.175 C 
ATOM      2  O   UNL     1       0.386  -0.094  23.684  0.00  0.00    -0.342 OA
ENDBRANCH   3   2
ENDBRANCH   4   3
TORSDOF 3
ENDMDL
MODEL 6
REMARK VINA RESULT:      -7.6      2.258      2.467
REMARK  Name = 
REMARK  3 active torsions:
REMARK  status: ('A' for Active; 'I' for Inactive)
REMARK    1  A    between atoms: O_2  and  C_3
REMARK    2  A    between atoms: C_3  and  C_4
REMARK    3  A    between atoms: C_9  and  C_11
REMARK                            x       y       z     vdW  Elec       q    Type
REMARK                         _______ _______ _______ _____ _____    ______ ____
ROOT
ATOM      4  C   UNL     1      -4.084   2.976  25.232  0.00  0.00    +0.256 C 
ATOM      5  O   UNL     1      -3.522   3.546  25.433  0.00  0.00    -0.272 OA
ATOM      6  N   UNL     1      -3.845   2.208  25.049  0.00  0.00    -0.277 N 
ATOM      7  C   UNL     1      -4.341   1.583  24.840  0.00  0.00    +0.094 C 
ATOM      8  C   UNL     1      -3.871   0.919  24.703  0.00  0.00    +0.031 C 
ATOM      9  C   UNL     1      -3.084   1.134  24.829  0.00  0.00    +0.080 C 
ATOM     10  C   UNL     1      -3.068   1.930  25.042  0.00  0.00    +0.101 C 
ENDROOT
BRANCH   9  11
ATOM     11  C   UNL     1      -2.428   0.639  24.754  0.00  0.00    +0.140 A 
ATOM     12  N   UNL     1      -1.793   0.750  24.240  0.00  0.00    -0.229 NA
ATOM     13  C   UNL     1      -1.265   0.126  24.348  0.00  0.00    +0.102 A 
ATOM     14  C   UNL     1      -1.574  -0.372  24.929  0.00  0.00    +0.100 A 
ATOM     15  N   UNL     1      -2.293  -0.055  25.180  0.00  0.00    -0.229 NA
ATOM     16  C   UNL     1      -1.160  -1.049  25.154  0.00  0.00    +0.023 A 
ATOM     17  C   UNL     1      -0.438  -1.229  24.799  0.00  0.00    +0.031 A 
ATOM     18  C   UNL     1      -0.129  -0.732  24.218  0.00  0.00    +0.142 A 
ATOM     19  F   UNL     1       0.593  -0.911  23.862  0.00  0.00    -0.204 F 
ATOM     20  C   UNL     1      -0.542  -0.054  23.992  0.00  0.00    +0.050 A 
ENDBRANCH   9  11
BRANCH   4   3
ATOM      3  C   UNL     1      -4.884   3.174  25.216  0.00  0.00    +0.227 C 
BRANCH   3   2
ATOM      1  C   UNL     1      -5.927   4.092  25.552  0.00  0.00    +0.175 C 
ATOM      2  O   UNL     1      -5.126   3.933  25.430  0.00  0.00    -0.342 OA
ENDBRANCH   3   2
ENDBRANCH   4   3
TORSDOF 3
ENDMDL
MODEL 7
REMARK VINA RESULT:      -6.5     15.598     17.474
REMARK  Name = 
REMARK  3 active torsions:
REMARK  status: ('A' for Active; 'I' for Inactive)
REMARK    1  A    between atoms: O_2  and  C_3
REMARK    2  A    between atoms: C_3  and  C_4
REMARK    3  A    between atoms: C_9  and  C_11
REMARK                            x       y       z     vdW  Elec       q    Type
REMARK                         _______ _______ _______ _____ _____    ______ ____
ROOT
ATOM      4  C   UNL     1      -2.528 -10.513  13.894  0.00  0.00    +0.256 C 
ATOM      5  O   UNL     1      -3.282 -10.509  14.229  0.00  0.00    -0.272 OA
ATOM      6  N   UNL     1      -2.438 -10.430  13.078  0.00  0.00    -0.277 N 
ATOM      7  C   UNL     1      -1.722 -10.424  12.667  0.00  0.00    +0.094 C 
ATOM      8  C   UNL     1      -1.890 -10.328  11.865  0.00  0.00    +0.031 C 
ATOM      9  C   UNL     1      -2.710 -10.275  11.780  0.00  0.00    +0.080 C 
ATOM     10  C   UNL     1      -3.048 -10.338  12.530  0.00  0.00    +0.101 C 
ENDROOT
BRANCH   9  11
ATOM     11  C   UNL     1      -3.119 -10.176  11.071  0.00  0.00    +0.140 A 
ATOM     12  N   UNL     1      -3.257  -9.460  10.686  0.00  0.00    -0.229 NA
ATOM     13  C   UNL     1      -3.684  -9.617   9.999  0.00  0.00    +0.102 A 
ATOM     14  C   UNL     1      -3.810 -10.432   9.958  0.00  0.00    +0.100 A 
ATOM     15  N   UNL     1      -3.461 -10.777  10.620  0.00  0.00    -0.229 NA
ATOM     16  C   UNL     1      -4.228 -10.753   9.323  0.00  0.00    +0.023 A 
ATOM     17  C   UNL     1      -4.518 -10.261   8.729  0.00  0.00    +0.031 A 
ATOM     18  C   UNL     1      -4.392  -9.446   8.770  0.00  0.00    +0.142 A 
ATOM     19  F   UNL     1      -4.683  -8.953   8.176  0.00  0.00    -0.204 F 
ATOM     20  C   UNL     1      -3.975  -9.124   9.404  0.00  0.00    +0.050 A 
ENDBRANCH   9  11
BRANCH   4   3
ATOM      3  C   UNL     1      -1.864 -10.601  14.376  0.00  0.00    +0.227 C 
BRANCH   3   2
ATOM      1  C   UNL     1      -1.286 -10.721  15.677  0.00  0.00    +0.175 C 
ATOM      2  O   UNL     1      -1.953 -10.664  15.193  0.00  0.00    -0.342 OA
ENDBRANCH   3   2
ENDBRANCH   4   3
TORSDOF 3
ENDMDL
MODEL 8
REMARK VINA RESULT:      -6.3      3.107      3.904
REMARK  Name = 
REMARK  3 active torsions:
REMARK  status: ('A' for Active; 'I' for Inactive)
REMARK    1  A    between atoms: O_2  and  C_3
REMARK    2  A    between atoms: C_3  and  C_4
REMARK    3  A    between atoms: C_9  and  C_11
REMARK                            x       y       z     vdW  Elec       q    Type
REMARK                         _______ _______ _______ _____ _____    ______ ____
ROOT
ATOM      4  C   UNL     1      -4.955   1.651  24.962  0.00  0.00    +0.256 C 
ATOM      5  O   UNL     1      -4.933   0.827  25.009  0.00  0.00    -0.272 OA
ATOM      6  N   UNL     1      -4.253   2.082  24.923  0.00  0.00    -0.277 N 
ATOM      7  C   UNL     1      -4.190   2.903  24.874  0.00  0.00    +0.094 C 
ATOM      8  C   UNL     1      -3.388   3.096  24.846  0.00  0.00    +0.031 C 
ATOM      9  C   UNL     1      -2.956   2.393  24.878  0.00  0.00    +0.080 C 
ATOM     10  C   UNL     1      -3.490   1.767  24.925  0.00  0.00    +0.101 C 
ENDROOT
BRANCH   9  11
ATOM     11  C   UNL     1      -2.133   2.329  24.865  0.00  0.00    +0.140 A 
ATOM     12  N   UNL     1      -1.675   2.103  24.218  0.00  0.00    -0.229 NA
ATOM     13  C   UNL     1      -0.884   2.114  24.450  0.00  0.00    +0.102 A 
ATOM     14  C   UNL     1      -0.853   2.347  25.241  0.00  0.00    +0.100 A 
ATOM     15  N   UNL     1      -1.625   2.480  25.498  0.00  0.00    -0.229 NA
ATOM     16  C   UNL     1      -0.125   2.407  25.624  0.00  0.00    +0.023 A 
ATOM     17  C   UNL     1       0.572   2.236  25.218  0.00  0.00    +0.031 A 
ATOM     18  C   UNL     1       0.541   2.003  24.427  0.00  0.00    +0.142 A 
ATOM     19  F   UNL     1       1.237   1.831  24.020  0.00  0.00    -0.204 F 
ATOM     20  C   UNL     1      -0.186   1.942  24.042  0.00  0.00    +0.050 A 
ENDBRANCH   9  11
BRANCH   4   3
ATOM      3  C   UNL     1      -5.681   2.043  24.954  0.00  0.00    +0.227 C 
BRANCH   3   2
ATOM      1  C   UNL     1      -7.083   1.983  24.683  0.00  0.00    +0.175 C 
ATOM      2  O   UNL     1      -6.383   1.611  24.914  0.00  0.00    -0.342 OA
ENDBRANCH   3   2
ENDBRANCH   4   3
TORSDOF 3
ENDMDL
MODEL 9
REMARK VINA RESULT:      -6.2     13.460     14.119
REMARK  Name = 
REMARK  3 active torsions:
REMARK  status: ('A' for Active; 'I' for Inactive)
REMARK    1  A    between atoms: O_2  and  C_3
REMARK    2  A    between atoms: C_3  and  C_4
REMARK    3  A    between atoms: C_9  and  C_11
REMARK                            x       y       z     vdW  Elec       q    Type
REMARK                         _______ _______ _______ _____ _____    ______ ____
ROOT
ATOM      4  C   UNL     1      -6.591 -10.125  16.810  0.00  0.00    +0.256 C 
ATOM      5  O   UNL     1      -6.842  -9.843  16.076  0.00  0.00    -0.272 OA
ATOM      6  N   UNL     1      -5.800 -10.330  16.924  0.00  0.00    -0.277 N 
ATOM      7  C   UNL     1      -5.470 -10.617  17.624  0.00  0.00    +0.094 C 
ATOM      8  C   UNL     1      -4.666 -10.749  17.491  0.00  0.00    +0.031 C 
ATOM      9  C   UNL     1      -4.500 -10.542  16.709  0.00  0.00    +0.080 C 
ATOM     10  C   UNL     1      -5.200 -10.283  16.360  0.00  0.00    +0.101 C 
ENDROOT
BRANCH   9  11
ATOM     11  C   UNL     1      -3.762 -10.586  16.343  0.00  0.00    +0.140 A 
ATOM     12  N   UNL     1      -3.030 -10.541  16.719  0.00  0.00    -0.229 NA
ATOM     13  C   UNL     1      -2.443 -10.610  16.145  0.00  0.00    +0.102 A 
ATOM     14  C   UNL     1      -2.812 -10.699  15.412  0.00  0.00    +0.100 A 
ATOM     15  N   UNL     1      -3.627 -10.684  15.534  0.00  0.00    -0.229 NA
ATOM     16  C   UNL     1      -2.357 -10.781  14.729  0.00  0.00    +0.023 A 
ATOM     17  C   UNL     1      -1.534 -10.776  14.777  0.00  0.00    +0.031 A 
ATOM     18  C   UNL     1      -1.165 -10.687  15.510  0.00  0.00    +0.142 A 
ATOM     19  F   UNL     1      -0.342 -10.681  15.559  0.00  0.00    -0.204 F 
ATOM     20  C   UNL     1      -1.619 -10.604  16.194  0.00  0.00    +0.050 A 
ENDBRANCH   9  11
BRANCH   4   3
ATOM      3  C   UNL     1      -7.131 -10.201  17.429  0.00  0.00    +0.227 C 
BRANCH   3   2
ATOM      1  C   UNL     1      -8.439  -9.989  17.964  0.00  0.00    +0.175 C 
ATOM      2  O   UNL     1      -7.903  -9.925  17.339  0.00  0.00    -0.342 OA
ENDBRANCH   3   2
ENDBRANCH   4   3
TORSDOF 3
ENDMDL
