MODEL 1
REMARK VINA RESULT:     -11.3      0.000      0.000
REMARK  Name = 
REMARK  8 active torsions:
REMARK  status: ('A' for Active; 'I' for Inactive)
REMARK    1  A    between atoms: C_3  and  C_7
REMARK    2  A    between atoms: N_9  and  C_10
REMARK    3  A    between atoms: C_14  and  C_16
REMARK    4  A    between atoms: N_18  and  C_19
REMARK    5  A    between atoms: C_19  and  C_20
REMARK    6  A    between atoms: C_19  and  C_27
REMARK    7  A    between atoms: C_20  and  C_21
REMARK    8  A    between atoms: C_30  and  C_32
REMARK                            x       y       z     vdW  Elec       q    Type
REMARK                         _______ _______ _______ _____ _____    ______ ____
ROOT
ATOM     10  C   UNL     1      -4.040   0.840  25.266  0.00  0.00    +0.100 C 
ATOM     11  C   UNL     1      -4.473   0.160  25.092  0.00  0.00    +0.043 C 
ATOM     12  C   UNL     1      -4.086  -0.524  24.843  0.00  0.00    +0.096 C 
ATOM     13  N   UNL     1      -3.263  -0.529  24.767  0.00  0.00    -0.267 N 
ATOM     14  C   UNL     1      -2.830   0.152  24.941  0.00  0.00    +0.155 C 
ATOM     15  C   UNL     1      -3.218   0.836  25.191  0.00  0.00    +0.051 C 
ATOM     30  C   UNL     1      -2.876  -1.212  24.517  0.00  0.00    +0.284 C 
ATOM     31  O   UNL     1      -2.055  -1.216  24.442  0.00  0.00    -0.267 OA
ENDROOT
BRANCH  30  32
ATOM     32  C   UNL     1      -3.309  -1.893  24.343  0.00  0.00    +0.199 A 
ATOM     33  C   UNL     1      -3.334  -2.581  24.798  0.00  0.00    +0.045 A 
ATOM     34  C   UNL     1      -3.834  -3.117  24.420  0.00  0.00    +0.044 A 
ATOM     35  C   UNL     1      -4.117  -2.762  23.732  0.00  0.00    +0.180 A 
ATOM     36  O   UNL     1      -3.793  -2.004  23.685  0.00  0.00    -0.446 OA
ENDBRANCH  30  32
BRANCH  10   9
ATOM      7  C   UNL     1      -4.681   2.079  24.961  0.00  0.00    +0.273 C 
ATOM      8  O   UNL     1      -4.548   1.951  24.157  0.00  0.00    -0.268 OA
ATOM      9  N   UNL     1      -4.427   1.524  25.516  0.00  0.00    -0.203 NA
BRANCH   7   3
ATOM      1  C   UNL     1      -4.096   3.762  24.745  0.00  0.00    +0.055 C 
ATOM      2  C   UNL     1      -4.800   3.537  25.111  0.00  0.00    +0.093 A 
ATOM      3  C   UNL     1      -5.069   2.763  25.211  0.00  0.00    +0.119 A 
ATOM      4  S   UNL     1      -5.794   2.794  25.603  0.00  0.00    +0.042 S 
ATOM      5  N   UNL     1      -5.973   3.587  25.746  0.00  0.00    -0.110 NA
ATOM      6  N   UNL     1      -5.359   4.046  25.442  0.00  0.00    -0.145 NA
ENDBRANCH   7   3
ENDBRANCH  10   9
BRANCH  14  16
ATOM     16  C   UNL     1      -2.009   0.148  24.865  0.00  0.00    +0.260 C 
ATOM     17  O   UNL     1      -1.568  -0.477  25.177  0.00  0.00    -0.272 OA
ATOM     18  N   UNL     1      -1.627   0.768  24.478  0.00  0.00    -0.196 NA
BRANCH  18  19
ATOM     19  C   UNL     1      -0.805   0.764  24.402  0.00  0.00    +0.179 C 
BRANCH  19  27
ATOM     27  C   UNL     1      -0.457   0.502  23.702  0.00  0.00    +0.281 C 
ATOM     28  N   UNL     1       0.178  -0.024  23.729  0.00  0.00    -0.086 NA
ATOM     29  O   UNL     1      -0.743   0.766  22.975  0.00  0.00    -0.270 OA
ENDBRANCH  19  27
BRANCH  19  20
ATOM     20  C   UNL     1      -0.332   1.022  25.027  0.00  0.00    +0.057 C 
BRANCH  20  21
ATOM     21  C   UNL     1      -0.288   1.825  25.209  0.00  0.00    -0.020 A 
ATOM     22  C   UNL     1      -0.233   2.382  24.603  0.00  0.00    -0.004 A 
ATOM     23  C   UNL     1      -0.189   3.186  24.785  0.00  0.00    -0.000 A 
ATOM     24  C   UNL     1      -0.201   3.432  25.572  0.00  0.00    -0.000 A 
ATOM     25  C   UNL     1      -0.257   2.874  26.178  0.00  0.00    -0.000 A 
ATOM     26  C   UNL     1      -0.300   2.071  25.996  0.00  0.00    -0.004 A 
ENDBRANCH  20  21
ENDBRANCH  19  20
ENDBRANCH  18  19
ENDBRANCH  14  16
TORSDOF 8
ENDMDL
MODEL 2
REMARK VINA RESULT:     -11.0      1.841      4.900
REMARK  Name = 
REMARK  8 active torsions:
REMARK  status: ('A' for Active; 'I' for Inactive)
REMARK    1  A    between atoms: C_3  and  C_7
REMARK    2  A    between atoms: N_9  and  C_10
REMARK    3  A    between atoms: C_14  and  C_16
REMARK    4  A    between atoms: N_18  and  C_19
REMARK    5  A    between atoms: C_19  and  C_20
REMARK    6  A    between atoms: C_19  and  C_27
REMARK    7  A    between atoms: C_20  and  C_21
REMARK    8  A    between atoms: C_30  and  C_32
REMARK                            x       y       z     vdW  Elec       q    Type
REMARK                         _______ _______ _______ _____ _____    ______ ____
ROOT
ATOM     10  C   UNL     1      -1.948   0.101  24.685  0.00  0.00    +0.100 C 
ATOM     11  C   UNL     1      -1.285   0.187  25.168  0.00  0.00    +0.043 C 
ATOM     12  C   UNL     1      -1.055   0.936  25.425  0.00  0.00    +0.096 C 
ATOM     13  N   UNL     1      -1.488   1.601  25.198  0.00  0.00    -0.267 N 
ATOM     14  C   UNL     1      -2.152   1.515  24.715  0.00  0.00    +0.155 C 
ATOM     15  C   UNL     1      -2.381   0.765  24.458  0.00  0.00    +0.051 C 
ATOM     30  C   UNL     1      -1.258   2.350  25.454  0.00  0.00    +0.284 C 
ATOM     31  O   UNL     1      -1.692   3.015  25.227  0.00  0.00    -0.267 OA
ENDROOT
BRANCH  30  32
ATOM     32  C   UNL     1      -0.595   2.436  25.937  0.00  0.00    +0.199 A 
ATOM     33  C   UNL     1       0.163   2.645  25.687  0.00  0.00    +0.045 A 
ATOM     34  C   UNL     1       0.653   2.666  26.350  0.00  0.00    +0.044 A 
ATOM     35  C   UNL     1       0.199   2.471  27.010  0.00  0.00    +0.180 A 
ATOM     36  O   UNL     1      -0.573   2.328  26.754  0.00  0.00    -0.446 OA
ENDBRANCH  30  32
BRANCH  10   9
ATOM      7  C   UNL     1      -2.712  -1.090  24.875  0.00  0.00    +0.273 C 
ATOM      8  O   UNL     1      -3.017  -0.784  25.578  0.00  0.00    -0.268 OA
ATOM      9  N   UNL     1      -2.178  -0.648  24.429  0.00  0.00    -0.203 NA
BRANCH   7   3
ATOM      1  C   UNL     1      -4.309  -1.523  24.178  0.00  0.00    +0.055 C 
ATOM      2  C   UNL     1      -3.676  -2.039  24.299  0.00  0.00    +0.093 A 
ATOM      3  C   UNL     1      -2.943  -1.840  24.619  0.00  0.00    +0.119 A 
ATOM      4  S   UNL     1      -2.479  -2.523  24.638  0.00  0.00    +0.042 S 
ATOM      5  N   UNL     1      -2.927  -3.144  24.330  0.00  0.00    -0.110 NA
ATOM      6  N   UNL     1      -3.667  -2.845  24.120  0.00  0.00    -0.145 NA
ENDBRANCH   7   3
ENDBRANCH  10   9
BRANCH  14  16
ATOM     16  C   UNL     1      -2.585   2.180  24.488  0.00  0.00    +0.260 C 
ATOM     17  O   UNL     1      -2.198   2.890  24.328  0.00  0.00    -0.272 OA
ATOM     18  N   UNL     1      -3.406   2.133  24.421  0.00  0.00    -0.196 NA
BRANCH  18  19
ATOM     19  C   UNL     1      -3.840   2.798  24.194  0.00  0.00    +0.179 C 
BRANCH  19  27
ATOM     27  C   UNL     1      -3.800   3.070  23.416  0.00  0.00    +0.281 C 
ATOM     28  N   UNL     1      -3.785   3.881  23.264  0.00  0.00    -0.086 NA
ATOM     29  O   UNL     1      -3.776   2.532  22.792  0.00  0.00    -0.270 OA
ENDBRANCH  19  27
BRANCH  19  20
ATOM     20  C   UNL     1      -4.313   3.190  24.745  0.00  0.00    +0.057 C 
BRANCH  20  21
ATOM     21  C   UNL     1      -4.954   2.803  25.090  0.00  0.00    -0.020 A 
ATOM     22  C   UNL     1      -5.428   2.305  24.635  0.00  0.00    -0.004 A 
ATOM     23  C   UNL     1      -6.069   1.918  24.980  0.00  0.00    -0.000 A 
ATOM     24  C   UNL     1      -6.236   2.028  25.780  0.00  0.00    -0.000 A 
ATOM     25  C   UNL     1      -5.761   2.526  26.236  0.00  0.00    -0.000 A 
ATOM     26  C   UNL     1      -5.120   2.914  25.890  0.00  0.00    -0.004 A 
ENDBRANCH  20  21
ENDBRANCH  19  20
ENDBRANCH  18  19
ENDBRANCH  14  16
TORSDOF 8
ENDMDL
MODEL 3
REMARK VINA RESULT:     -11.0      1.462      2.032
REMARK  Name = 
REMARK  8 active torsions:
REMARK  status: ('A' for Active; 'I' for Inactive)
REMARK    1  A    between atoms: C_3  and  C_7
REMARK    2  A    between atoms: N_9  and  C_10
REMARK    3  A    between atoms: C_14  and  C_16
REMARK    4  A    between atoms: N_18  and  C_19
REMARK    5  A    between atoms: C_19  and  C_20
REMARK    6  A    between atoms: C_19  and  C_27
REMARK    7  A    between atoms: C_20  and  C_21
REMARK    8  A    between atoms: C_30  and  C_32
REMARK                            x       y       z     vdW  Elec       q    Type
REMARK                         _______ _______ _______ _____ _____    ______ ____
ROOT
ATOM     10  C   UNL     1      -3.500   0.676  25.240  0.00  0.00    +0.100 C 
ATOM     11  C   UNL     1      -3.419  -0.142  25.173  0.00  0.00    +0.043 C 
ATOM     12  C   UNL     1      -2.680  -0.473  25.019  0.00  0.00    +0.096 C 
ATOM     13  N   UNL     1      -2.019   0.014  24.932  0.00  0.00    -0.267 N 
ATOM     14  C   UNL     1      -2.100   0.833  24.999  0.00  0.00    +0.155 C 
ATOM     15  C   UNL     1      -2.840   1.164  25.153  0.00  0.00    +0.051 C 
ATOM     30  C   UNL     1      -1.280  -0.317  24.778  0.00  0.00    +0.284 C 
ATOM     31  O   UNL     1      -0.620   0.171  24.691  0.00  0.00    -0.267 OA
ENDROOT
BRANCH  30  32
ATOM     32  C   UNL     1      -1.200  -1.135  24.710  0.00  0.00    +0.199 A 
ATOM     33  C   UNL     1      -0.851  -1.635  25.266  0.00  0.00    +0.045 A 
ATOM     34  C   UNL     1      -0.889  -2.405  24.976  0.00  0.00    +0.044 A 
ATOM     35  C   UNL     1      -1.262  -2.382  24.240  0.00  0.00    +0.180 A 
ATOM     36  O   UNL     1      -1.454  -1.596  24.076  0.00  0.00    -0.446 OA
ENDBRANCH  30  32
BRANCH  10   9
ATOM      7  C   UNL     1      -4.626   1.442  24.810  0.00  0.00    +0.273 C 
ATOM      8  O   UNL     1      -4.273   1.547  24.071  0.00  0.00    -0.268 OA
ATOM      9  N   UNL     1      -4.239   1.007  25.394  0.00  0.00    -0.203 NA
BRANCH   7   3
ATOM      1  C   UNL     1      -4.956   3.173  25.153  0.00  0.00    +0.055 C 
ATOM      2  C   UNL     1      -5.517   2.569  25.122  0.00  0.00    +0.093 A 
ATOM      3  C   UNL     1      -5.366   1.774  24.964  0.00  0.00    +0.119 A 
ATOM      4  S   UNL     1      -6.084   1.367  24.986  0.00  0.00    +0.042 S 
ATOM      5  N   UNL     1      -6.679   1.912  25.159  0.00  0.00    -0.110 NA
ATOM      6  N   UNL     1      -6.330   2.655  25.242  0.00  0.00    -0.145 NA
ENDBRANCH   7   3
ENDBRANCH  10   9
BRANCH  14  16
ATOM     16  C   UNL     1      -1.440   1.320  24.912  0.00  0.00    +0.260 C 
ATOM     17  O   UNL     1      -0.902   1.182  24.303  0.00  0.00    -0.272 OA
ATOM     18  N   UNL     1      -1.318   1.947  25.435  0.00  0.00    -0.196 NA
BRANCH  18  19
ATOM     19  C   UNL     1      -0.658   2.434  25.349  0.00  0.00    +0.179 C 
BRANCH  19  27
ATOM     27  C   UNL     1      -0.025   2.369  25.874  0.00  0.00    +0.281 C 
ATOM     28  N   UNL     1      -0.165   2.351  26.687  0.00  0.00    -0.086 NA
ATOM     29  O   UNL     1       0.746   2.320  25.587  0.00  0.00    -0.270 OA
ENDBRANCH  19  27
BRANCH  19  20
ATOM     20  C   UNL     1      -0.631   2.988  24.737  0.00  0.00    +0.057 C 
BRANCH  20  21
ATOM     21  C   UNL     1      -0.886   3.761  24.868  0.00  0.00    -0.020 A 
ATOM     22  C   UNL     1      -1.596   3.899  25.265  0.00  0.00    -0.004 A 
ATOM     23  C   UNL     1      -1.851   4.672  25.396  0.00  0.00    -0.000 A 
ATOM     24  C   UNL     1      -1.398   5.308  25.129  0.00  0.00    -0.000 A 
ATOM     25  C   UNL     1      -0.688   5.169  24.731  0.00  0.00    -0.000 A 
ATOM     26  C   UNL     1      -0.432   4.396  24.601  0.00  0.00    -0.004 A 
ENDBRANCH  20  21
ENDBRANCH  19  20
ENDBRANCH  18  19
ENDBRANCH  14  16
TORSDOF 8
ENDMDL
MODEL 4
REMARK VINA RESULT:     -10.9      2.075      4.332
REMARK  Name = 
REMARK  8 active torsions:
REMARK  status: ('A' for Active; 'I' for Inactive)
REMARK    1  A    between atoms: C_3  and  C_7
REMARK    2  A    between atoms: N_9  and  C_10
REMARK    3  A    between atoms: C_14  and  C_16
REMARK    4  A    between atoms: N_18  and  C_19
REMARK    5  A    between atoms: C_19  and  C_20
REMARK    6  A    between atoms: C_19  and  C_27
REMARK    7  A    between atoms: C_20  and  C_21
REMARK    8  A    between atoms: C_30  and  C_32
REMARK                            x       y       z     vdW  Elec       q    Type
REMARK                         _______ _______ _______ _____ _____    ______ ____
ROOT
ATOM     10  C   UNL     1      -1.082   2.035  24.336  0.00  0.00    +0.100 C 
ATOM     11  C   UNL     1      -0.447   2.043  23.811  0.00  0.00    +0.043 C 
ATOM     12  C   UNL     1      -0.048   1.343  23.633  0.00  0.00    +0.096 C 
ATOM     13  N   UNL     1      -0.286   0.633  23.982  0.00  0.00    -0.267 N 
ATOM     14  C   UNL     1      -0.922   0.625  24.508  0.00  0.00    +0.155 C 
ATOM     15  C   UNL     1      -1.320   1.326  24.685  0.00  0.00    +0.051 C 
ATOM     30  C   UNL     1       0.112  -0.067  23.805  0.00  0.00    +0.284 C 
ATOM     31  O   UNL     1      -0.125  -0.776  24.154  0.00  0.00    -0.267 OA
ENDROOT
BRANCH  30  32
ATOM     32  C   UNL     1       0.748  -0.059  23.279  0.00  0.00    +0.199 A 
ATOM     33  C   UNL     1       0.732  -0.316  22.495  0.00  0.00    +0.045 A 
ATOM     34  C   UNL     1       1.485  -0.209  22.177  0.00  0.00    +0.044 A 
ATOM     35  C   UNL     1       1.967   0.115  22.763  0.00  0.00    +0.180 A 
ATOM     36  O   UNL     1       1.510   0.207  23.445  0.00  0.00    -0.446 OA
ENDBRANCH  30  32
BRANCH  10   9
ATOM      7  C   UNL     1      -1.184   3.242  25.092  0.00  0.00    +0.273 C 
ATOM      8  O   UNL     1      -0.489   3.050  25.494  0.00  0.00    -0.268 OA
ATOM      9  N   UNL     1      -1.480   2.735  24.513  0.00  0.00    -0.203 NA
BRANCH   7   3
ATOM      1  C   UNL     1      -0.589   4.905  24.771  0.00  0.00    +0.055 C 
ATOM      2  C   UNL     1      -1.309   4.707  25.122  0.00  0.00    +0.093 A 
ATOM      3  C   UNL     1      -1.582   3.943  25.270  0.00  0.00    +0.119 A 
ATOM      4  S   UNL     1      -2.324   4.002  25.626  0.00  0.00    +0.042 S 
ATOM      5  N   UNL     1      -2.509   4.803  25.699  0.00  0.00    -0.110 NA
ATOM      6  N   UNL     1      -1.881   5.239  25.387  0.00  0.00    -0.145 NA
ENDBRANCH   7   3
ENDBRANCH  10   9
BRANCH  14  16
ATOM     16  C   UNL     1      -1.159  -0.084  24.856  0.00  0.00    +0.260 C 
ATOM     17  O   UNL     1      -0.601  -0.579  25.208  0.00  0.00    -0.272 OA
ATOM     18  N   UNL     1      -1.956  -0.299  24.854  0.00  0.00    -0.196 NA
BRANCH  18  19
ATOM     19  C   UNL     1      -2.194  -1.007  25.202  0.00  0.00    +0.179 C 
BRANCH  19  27
ATOM     27  C   UNL     1      -2.372  -1.031  26.007  0.00  0.00    +0.281 C 
ATOM     28  N   UNL     1      -1.921  -1.500  26.516  0.00  0.00    -0.086 NA
ATOM     29  O   UNL     1      -3.000  -0.587  26.304  0.00  0.00    -0.270 OA
ENDBRANCH  19  27
BRANCH  19  20
ATOM     20  C   UNL     1      -2.253  -1.693  24.747  0.00  0.00    +0.057 C 
BRANCH  20  21
ATOM     21  C   UNL     1      -2.981  -1.916  24.429  0.00  0.00    -0.020 A 
ATOM     22  C   UNL     1      -3.231  -2.700  24.485  0.00  0.00    -0.004 A 
ATOM     23  C   UNL     1      -3.959  -2.923  24.168  0.00  0.00    -0.000 A 
ATOM     24  C   UNL     1      -4.436  -2.364  23.795  0.00  0.00    -0.000 A 
ATOM     25  C   UNL     1      -4.185  -1.579  23.738  0.00  0.00    -0.000 A 
ATOM     26  C   UNL     1      -3.457  -1.356  24.056  0.00  0.00    -0.004 A 
ENDBRANCH  20  21
ENDBRANCH  19  20
ENDBRANCH  18  19
ENDBRANCH  14  16
TORSDOF 8
ENDMDL
MODEL 5
REMARK VINA RESULT:     -10.9      2.096      4.321
REMARK  Name = 
REMARK  8 active torsions:
REMARK  status: ('A' for Active; 'I' for Inactive)
REMARK    1  A    between atoms: C_3  and  C_7
REMARK    2  A    between atoms: N_9  and  C_10
REMARK    3  A    between atoms: C_14  and  C_16
REMARK    4  A    between atoms: N_18  and  C_19
REMARK    5  A    between atoms: C_19  and  C_20
REMARK    6  A    between atoms: C_19  and  C_27
REMARK    7  A    between atoms: C_20  and  C_21
REMARK    8  A    between atoms: C_30  and  C_32
REMARK                            x       y       z     vdW  Elec       q    Type
REMARK                         _______ _______ _______ _____ _____    ______ ____
ROOT
ATOM     10  C   UNL     1      -0.395  -0.093  24.196  0.00  0.00    +0.100 C 
ATOM     11  C   UNL     1      -0.717  -0.852  24.180  0.00  0.00    +0.043 C 
ATOM     12  C   UNL     1      -1.507  -0.970  24.387  0.00  0.00    +0.096 C 
ATOM     13  N   UNL     1      -1.975  -0.328  24.611  0.00  0.00    -0.267 N 
ATOM     14  C   UNL     1      -1.652   0.431  24.628  0.00  0.00    +0.155 C 
ATOM     15  C   UNL     1      -0.862   0.549  24.420  0.00  0.00    +0.051 C 
ATOM     30  C   UNL     1      -2.764  -0.445  24.819  0.00  0.00    +0.284 C 
ATOM     31  O   UNL     1      -3.232   0.197  25.042  0.00  0.00    -0.267 OA
ENDROOT
BRANCH  30  32
ATOM     32  C   UNL     1      -3.087  -1.204  24.802  0.00  0.00    +0.199 A 
ATOM     33  C   UNL     1      -3.574  -1.511  24.211  0.00  0.00    +0.045 A 
ATOM     34  C   UNL     1      -3.767  -2.286  24.417  0.00  0.00    +0.044 A 
ATOM     35  C   UNL     1      -3.401  -2.458  25.136  0.00  0.00    +0.180 A 
ATOM     36  O   UNL     1      -2.980  -1.789  25.374  0.00  0.00    -0.446 OA
ENDBRANCH  30  32
BRANCH  10   9
ATOM      7  C   UNL     1       0.606   0.097  23.195  0.00  0.00    +0.273 C 
ATOM      8  O   UNL     1       0.028   0.052  22.608  0.00  0.00    -0.268 OA
ATOM      9  N   UNL     1       0.395   0.025  23.989  0.00  0.00    -0.203 NA
BRANCH   7   3
ATOM      1  C   UNL     1       1.432  -0.589  21.757  0.00  0.00    +0.055 C 
ATOM      2  C   UNL     1       1.776  -0.101  22.327  0.00  0.00    +0.093 A 
ATOM      3  C   UNL     1       1.396   0.215  22.987  0.00  0.00    +0.119 A 
ATOM      4  S   UNL     1       1.945   0.669  23.405  0.00  0.00    +0.042 S 
ATOM      5  N   UNL     1       2.664   0.634  23.001  0.00  0.00    -0.110 NA
ATOM      6  N   UNL     1       2.559   0.158  22.335  0.00  0.00    -0.145 NA
ENDBRANCH   7   3
ENDBRANCH  10   9
BRANCH  14  16
ATOM     16  C   UNL     1      -2.120   1.073  24.851  0.00  0.00    +0.260 C 
ATOM     17  O   UNL     1      -2.619   1.013  25.505  0.00  0.00    -0.272 OA
ATOM     18  N   UNL     1      -2.088   1.777  24.421  0.00  0.00    -0.196 NA
BRANCH  18  19
ATOM     19  C   UNL     1      -2.556   2.419  24.645  0.00  0.00    +0.179 C 
BRANCH  19  27
ATOM     27  C   UNL     1      -3.227   2.612  24.206  0.00  0.00    +0.281 C 
ATOM     28  N   UNL     1      -3.943   2.756  24.591  0.00  0.00    -0.086 NA
ATOM     29  O   UNL     1      -3.183   2.662  23.384  0.00  0.00    -0.270 OA
ENDBRANCH  19  27
BRANCH  19  20
ATOM     20  C   UNL     1      -2.352   2.867  25.306  0.00  0.00    +0.057 C 
BRANCH  20  21
ATOM     21  C   UNL     1      -1.913   3.560  25.217  0.00  0.00    -0.020 A 
ATOM     22  C   UNL     1      -2.256   4.290  25.389  0.00  0.00    -0.004 A 
ATOM     23  C   UNL     1      -1.817   4.983  25.300  0.00  0.00    -0.000 A 
ATOM     24  C   UNL     1      -1.036   4.946  25.039  0.00  0.00    -0.000 A 
ATOM     25  C   UNL     1      -0.693   4.215  24.866  0.00  0.00    -0.000 A 
ATOM     26  C   UNL     1      -1.132   3.522  24.956  0.00  0.00    -0.004 A 
ENDBRANCH  20  21
ENDBRANCH  19  20
ENDBRANCH  18  19
ENDBRANCH  14  16
TORSDOF 8
ENDMDL
MODEL 6
REMARK VINA RESULT:     -10.5      1.549      3.909
REMARK  Name = 
REMARK  8 active torsions:
REMARK  status: ('A' for Active; 'I' for Inactive)
REMARK    1  A    between atoms: C_3  and  C_7
REMARK    2  A    between atoms: N_9  and  C_10
REMARK    3  A    between atoms: C_14  and  C_16
REMARK    4  A    between atoms: N_18  and  C_19
REMARK    5  A    between atoms: C_19  and  C_20
REMARK    6  A    between atoms: C_19  and  C_27
REMARK    7  A    between atoms: C_20  and  C_21
REMARK    8  A    between atoms: C_30  and  C_32
REMARK                            x       y       z     vdW  Elec       q    Type
REMARK                         _______ _______ _______ _____ _____    ______ ____
ROOT
ATOM     10  C   UNL     1      -1.955   0.400  25.371  0.00  0.00    +0.100 C 
ATOM     11  C   UNL     1      -1.882  -0.420  25.317  0.00  0.00    +0.043 C 
ATOM     12  C   UNL     1      -2.521  -0.877  25.067  0.00  0.00    +0.096 C 
ATOM     13  N   UNL     1      -3.236  -0.514  24.870  0.00  0.00    -0.267 N 
ATOM     14  C   UNL     1      -3.310   0.307  24.924  0.00  0.00    +0.155 C 
ATOM     15  C   UNL     1      -2.669   0.763  25.174  0.00  0.00    +0.051 C 
ATOM     30  C   UNL     1      -3.876  -0.970  24.620  0.00  0.00    +0.284 C 
ATOM     31  O   UNL     1      -4.590  -0.606  24.424  0.00  0.00    -0.267 OA
ENDROOT
BRANCH  30  32
ATOM     32  C   UNL     1      -3.802  -1.790  24.567  0.00  0.00    +0.199 A 
ATOM     33  C   UNL     1      -3.853  -2.237  23.875  0.00  0.00    +0.045 A 
ATOM     34  C   UNL     1      -3.747  -3.029  24.075  0.00  0.00    +0.044 A 
ATOM     35  C   UNL     1      -3.631  -3.073  24.891  0.00  0.00    +0.180 A 
ATOM     36  O   UNL     1      -3.665  -2.306  25.194  0.00  0.00    -0.446 OA
ENDBRANCH  30  32
BRANCH  10   9
ATOM      7  C   UNL     1      -0.933   1.356  25.088  0.00  0.00    +0.273 C 
ATOM      8  O   UNL     1      -1.189   1.399  24.305  0.00  0.00    -0.268 OA
ATOM      9  N   UNL     1      -1.316   0.856  25.621  0.00  0.00    -0.203 NA
BRANCH   7   3
ATOM      1  C   UNL     1       0.558   1.687  24.146  0.00  0.00    +0.055 C 
ATOM      2  C   UNL     1       0.393   1.965  24.905  0.00  0.00    +0.093 A 
ATOM      3  C   UNL     1      -0.292   1.813  25.338  0.00  0.00    +0.119 A 
ATOM      4  S   UNL     1      -0.226   2.197  26.065  0.00  0.00    +0.042 S 
ATOM      5  N   UNL     1       0.501   2.587  26.081  0.00  0.00    -0.110 NA
ATOM      6  N   UNL     1       0.884   2.444  25.364  0.00  0.00    -0.145 NA
ENDBRANCH   7   3
ENDBRANCH  10   9
BRANCH  14  16
ATOM     16  C   UNL     1      -4.024   0.670  24.728  0.00  0.00    +0.260 C 
ATOM     17  O   UNL     1      -4.464   0.396  24.086  0.00  0.00    -0.272 OA
ATOM     18  N   UNL     1      -4.298   1.309  25.173  0.00  0.00    -0.196 NA
BRANCH  18  19
ATOM     19  C   UNL     1      -5.012   1.672  24.976  0.00  0.00    +0.179 C 
BRANCH  19  27
ATOM     27  C   UNL     1      -5.705   1.459  25.370  0.00  0.00    +0.281 C 
ATOM     28  N   UNL     1      -6.411   1.381  24.948  0.00  0.00    -0.086 NA
ATOM     29  O   UNL     1      -5.693   1.324  26.183  0.00  0.00    -0.270 OA
ENDBRANCH  19  27
BRANCH  19  20
ATOM     20  C   UNL     1      -5.034   2.249  24.386  0.00  0.00    +0.057 C 
BRANCH  20  21
ATOM     21  C   UNL     1      -4.675   2.981  24.511  0.00  0.00    -0.020 A 
ATOM     22  C   UNL     1      -4.145   3.280  23.955  0.00  0.00    -0.004 A 
ATOM     23  C   UNL     1      -3.787   4.013  24.080  0.00  0.00    -0.000 A 
ATOM     24  C   UNL     1      -3.959   4.446  24.761  0.00  0.00    -0.000 A 
ATOM     25  C   UNL     1      -4.490   4.146  25.317  0.00  0.00    -0.000 A 
ATOM     26  C   UNL     1      -4.848   3.414  25.192  0.00  0.00    -0.004 A 
ENDBRANCH  20  21
ENDBRANCH  19  20
ENDBRANCH  18  19
ENDBRANCH  14  16
TORSDOF 8
ENDMDL
MODEL 7
REMARK VINA RESULT:     -10.4      1.707      4.125
REMARK  Name = 
REMARK  8 active torsions:
REMARK  status: ('A' for Active; 'I' for Inactive)
REMARK    1  A    between atoms: C_3  and  C_7
REMARK    2  A    between atoms: N_9  and  C_10
REMARK    3  A    between atoms: C_14  and  C_16
REMARK    4  A    between atoms: N_18  and  C_19
REMARK    5  A    between atoms: C_19  and  C_20
REMARK    6  A    between atoms: C_19  and  C_27
REMARK    7  A    between atoms: C_20  and  C_21
REMARK    8  A    between atoms: C_30  and  C_32
REMARK                            x       y       z     vdW  Elec       q    Type
REMARK                         _______ _______ _______ _____ _____    ______ ____
ROOT
ATOM     10  C   UNL     1      -3.784   0.358  24.354  0.00  0.00    +0.100 C 
ATOM     11  C   UNL     1      -4.469   0.750  24.594  0.00  0.00    +0.043 C 
ATOM     12  C   UNL     1      -4.431   1.536  24.838  0.00  0.00    +0.096 C 
ATOM     13  N   UNL     1      -3.707   1.933  24.844  0.00  0.00    -0.267 N 
ATOM     14  C   UNL     1      -3.021   1.541  24.605  0.00  0.00    +0.155 C 
ATOM     15  C   UNL     1      -3.060   0.754  24.360  0.00  0.00    +0.051 C 
ATOM     30  C   UNL     1      -3.669   2.719  25.089  0.00  0.00    +0.284 C 
ATOM     31  O   UNL     1      -2.945   3.115  25.095  0.00  0.00    -0.267 OA
ENDROOT
BRANCH  30  32
ATOM     32  C   UNL     1      -4.355   3.111  25.328  0.00  0.00    +0.199 A 
ATOM     33  C   UNL     1      -4.782   3.657  24.881  0.00  0.00    +0.045 A 
ATOM     34  C   UNL     1      -5.424   3.909  25.332  0.00  0.00    +0.044 A 
ATOM     35  C   UNL     1      -5.395   3.519  26.058  0.00  0.00    +0.180 A 
ATOM     36  O   UNL     1      -4.733   3.025  26.055  0.00  0.00    -0.446 OA
ENDBRANCH  30  32
BRANCH  10   9
ATOM      7  C   UNL     1      -3.849  -1.033  24.670  0.00  0.00    +0.273 C 
ATOM      8  O   UNL     1      -3.839  -0.852  25.474  0.00  0.00    -0.268 OA
ATOM      9  N   UNL     1      -3.821  -0.428  24.110  0.00  0.00    -0.203 NA
BRANCH   7   3
ATOM      1  C   UNL     1      -2.863  -2.387  25.315  0.00  0.00    +0.055 C 
ATOM      2  C   UNL     1      -3.434  -2.443  24.722  0.00  0.00    +0.093 A 
ATOM      3  C   UNL     1      -3.887  -1.821  24.425  0.00  0.00    +0.119 A 
ATOM      4  S   UNL     1      -4.385  -2.123  23.840  0.00  0.00    +0.042 S 
ATOM      5  N   UNL     1      -4.239  -2.933  23.776  0.00  0.00    -0.110 NA
ATOM      6  N   UNL     1      -3.652  -3.131  24.321  0.00  0.00    -0.145 NA
ENDBRANCH   7   3
ENDBRANCH  10   9
BRANCH  14  16
ATOM     16  C   UNL     1      -2.298   1.936  24.611  0.00  0.00    +0.260 C 
ATOM     17  O   UNL     1      -2.247   2.709  24.327  0.00  0.00    -0.272 OA
ATOM     18  N   UNL     1      -1.623   1.559  24.900  0.00  0.00    -0.196 NA
BRANCH  18  19
ATOM     19  C   UNL     1      -0.899   1.954  24.906  0.00  0.00    +0.179 C 
BRANCH  19  27
ATOM     27  C   UNL     1      -0.592   2.242  25.616  0.00  0.00    +0.281 C 
ATOM     28  N   UNL     1      -0.324   3.021  25.663  0.00  0.00    -0.086 NA
ATOM     29  O   UNL     1      -0.552   1.751  26.277  0.00  0.00    -0.270 OA
ENDBRANCH  19  27
BRANCH  19  20
ATOM     20  C   UNL     1      -0.482   2.063  24.202  0.00  0.00    +0.057 C 
BRANCH  20  21
ATOM     21  C   UNL     1       0.058   1.493  23.950  0.00  0.00    -0.020 A 
ATOM     22  C   UNL     1       0.861   1.676  23.908  0.00  0.00    -0.004 A 
ATOM     23  C   UNL     1       1.401   1.106  23.656  0.00  0.00    -0.000 A 
ATOM     24  C   UNL     1       1.138   0.353  23.445  0.00  0.00    -0.000 A 
ATOM     25  C   UNL     1       0.335   0.170  23.487  0.00  0.00    -0.000 A 
ATOM     26  C   UNL     1      -0.206   0.740  23.739  0.00  0.00    -0.004 A 
ENDBRANCH  20  21
ENDBRANCH  19  20
ENDBRANCH  18  19
ENDBRANCH  14  16
TORSDOF 8
ENDMDL
MODEL 8
REMARK VINA RESULT:     -10.2      2.070      5.525
REMARK  Name = 
REMARK  8 active torsions:
REMARK  status: ('A' for Active; 'I' for Inactive)
REMARK    1  A    between atoms: C_3  and  C_7
REMARK    2  A    between atoms: N_9  and  C_10
REMARK    3  A    between atoms: C_14  and  C_16
REMARK    4  A    between atoms: N_18  and  C_19
REMARK    5  A    between atoms: C_19  and  C_20
REMARK    6  A    between atoms: C_19  and  C_27
REMARK    7  A    between atoms: C_20  and  C_21
REMARK    8  A    between atoms: C_30  and  C_32
REMARK                            x       y       z     vdW  Elec       q    Type
REMARK                         _______ _______ _______ _____ _____    ______ ____
ROOT
ATOM     10  C   UNL     1      -1.114   1.683  23.871  0.00  0.00    +0.100 C 
ATOM     11  C   UNL     1      -0.919   2.482  23.927  0.00  0.00    +0.043 C 
ATOM     12  C   UNL     1      -1.417   3.002  24.328  0.00  0.00    +0.096 C 
ATOM     13  N   UNL     1      -2.112   2.724  24.675  0.00  0.00    -0.267 N 
ATOM     14  C   UNL     1      -2.308   1.924  24.619  0.00  0.00    +0.155 C 
ATOM     15  C   UNL     1      -1.809   1.404  24.218  0.00  0.00    +0.051 C 
ATOM     30  C   UNL     1      -2.610   3.244  25.076  0.00  0.00    +0.284 C 
ATOM     31  O   UNL     1      -3.305   2.965  25.422  0.00  0.00    -0.267 OA
ENDROOT
BRANCH  30  32
ATOM     32  C   UNL     1      -2.414   4.044  25.131  0.00  0.00    +0.199 A 
ATOM     33  C   UNL     1      -1.974   4.394  25.734  0.00  0.00    +0.045 A 
ATOM     34  C   UNL     1      -1.911   5.199  25.570  0.00  0.00    +0.044 A 
ATOM     35  C   UNL     1      -2.313   5.348  24.865  0.00  0.00    +0.180 A 
ATOM     36  O   UNL     1      -2.624   4.632  24.594  0.00  0.00    -0.446 OA
ENDBRANCH  30  32
BRANCH  10   9
ATOM      7  C   UNL     1      -0.001   0.788  23.872  0.00  0.00    +0.273 C 
ATOM      8  O   UNL     1       0.117   0.935  24.675  0.00  0.00    -0.268 OA
ATOM      9  N   UNL     1      -0.616   1.162  23.470  0.00  0.00    -0.203 NA
BRANCH   7   3
ATOM      1  C   UNL     1      -0.011  -1.001  24.012  0.00  0.00    +0.055 C 
ATOM      2  C   UNL     1       0.493  -0.555  23.535  0.00  0.00    +0.093 A 
ATOM      3  C   UNL     1       0.498   0.267  23.471  0.00  0.00    +0.119 A 
ATOM      4  S   UNL     1       1.089   0.478  22.935  0.00  0.00    +0.042 S 
ATOM      5  N   UNL     1       1.450  -0.214  22.668  0.00  0.00    -0.110 NA
ATOM      6  N   UNL     1       1.081  -0.853  23.039  0.00  0.00    -0.145 NA
ENDBRANCH   7   3
ENDBRANCH  10   9
BRANCH  14  16
ATOM     16  C   UNL     1      -3.003   1.645  24.966  0.00  0.00    +0.260 C 
ATOM     17  O   UNL     1      -3.213   1.891  25.725  0.00  0.00    -0.272 OA
ATOM     18  N   UNL     1      -3.487   1.120  24.554  0.00  0.00    -0.196 NA
BRANCH  18  19
ATOM     19  C   UNL     1      -4.182   0.841  24.900  0.00  0.00    +0.179 C 
BRANCH  19  27
ATOM     27  C   UNL     1      -4.896   1.229  24.762  0.00  0.00    +0.281 C 
ATOM     28  N   UNL     1      -5.426   1.350  25.383  0.00  0.00    -0.086 NA
ATOM     29  O   UNL     1      -5.081   1.496  24.004  0.00  0.00    -0.270 OA
ENDBRANCH  19  27
BRANCH  19  20
ATOM     20  C   UNL     1      -4.163   0.173  25.385  0.00  0.00    +0.057 C 
BRANCH  20  21
ATOM     21  C   UNL     1      -4.044  -0.574  25.055  0.00  0.00    -0.020 A 
ATOM     22  C   UNL     1      -4.367  -0.755  24.319  0.00  0.00    -0.004 A 
ATOM     23  C   UNL     1      -4.247  -1.502  23.989  0.00  0.00    -0.000 A 
ATOM     24  C   UNL     1      -3.805  -2.067  24.396  0.00  0.00    -0.000 A 
ATOM     25  C   UNL     1      -3.482  -1.885  25.134  0.00  0.00    -0.000 A 
ATOM     26  C   UNL     1      -3.601  -1.138  25.463  0.00  0.00    -0.004 A 
ENDBRANCH  20  21
ENDBRANCH  19  20
ENDBRANCH  18  19
ENDBRANCH  14  16
TORSDOF 8
ENDMDL
