MODEL 1
REMARK VINA RESULT:     -10.7      0.000      0.000
REMARK  Name = 
REMARK  6 active torsions:
REMARK  status: ('A' for Active; 'I' for Inactive)
REMARK    1  A    between atoms: C_3  and  N_18
REMARK    2  A    between atoms: C_6  and  C_7
REMARK    3  A    between atoms: C_7  and  N_8
REMARK    4  A    between atoms: C_9  and  C_11
REMARK    5  A    between atoms: N_18  and  C_19
REMARK    6  A    between atoms: C_19  and  C_20
REMARK                            x       y       z     vdW  Elec       q    Type
REMARK                         _______ _______ _______ _____ _____    ______ ____
ROOT
ATOM      1  O   UNL     1      -1.727   0.201  26.034  0.00  0.00    -0.219 OA
ATOM      2  C   UNL     1      -1.543   0.320  25.239  0.00  0.00    +0.199 C 
ATOM      3  C   UNL     1      -1.743  -0.181  24.615  0.00  0.00    +0.135 C 
ATOM      4  C   UNL     1      -1.450   0.150  23.919  0.00  0.00    +0.162 C 
ATOM      5  O   UNL     1      -1.068   0.855  24.112  0.00  0.00    -0.350 OA
ATOM      6  C   UNL     1      -1.125   0.960  24.928  0.00  0.00    +0.169 C 
ENDROOT
BRANCH   6   7
ATOM      7  C   UNL     1      -0.819   1.594  25.358  0.00  0.00    +0.148 C 
BRANCH   7   8
ATOM      8  N   UNL     1      -1.061   2.363  25.187  0.00  0.00    -0.199 NA
ATOM      9  C   UNL     1      -0.714   3.002  25.579  0.00  0.00    +0.265 C 
ATOM     10  O   UNL     1      -0.126   2.869  26.142  0.00  0.00    -0.268 OA
BRANCH   9  11
ATOM     11  C   UNL     1      -0.956   3.772  25.407  0.00  0.00    +0.055 A 
ATOM     12  C   UNL     1      -1.696   4.037  25.658  0.00  0.00    +0.007 A 
ATOM     13  C   UNL     1      -1.938   4.807  25.487  0.00  0.00    +0.030 A 
ATOM     14  C   UNL     1      -1.439   5.311  25.065  0.00  0.00    +0.140 A 
ATOM     15  F   UNL     1      -1.681   6.081  24.893  0.00  0.00    -0.204 F 
ATOM     16  C   UNL     1      -0.700   5.046  24.813  0.00  0.00    +0.030 A 
ATOM     17  C   UNL     1      -0.458   4.276  24.985  0.00  0.00    +0.007 A 
ENDBRANCH   9  11
ENDBRANCH   7   8
ENDBRANCH   6   7
BRANCH   3  18
ATOM     18  N   UNL     1      -2.164  -0.888  24.676  0.00  0.00    -0.209 NA
BRANCH  18  19
ATOM     19  C   UNL     1      -2.876  -0.981  24.271  0.00  0.00    +0.117 C 
BRANCH  19  20
ATOM     20  C   UNL     1      -3.261  -1.711  24.274  0.00  0.00    +0.023 A 
ATOM     21  C   UNL     1      -2.908  -2.362  24.637  0.00  0.00    -0.001 A 
ATOM     22  C   UNL     1      -3.292  -3.091  24.641  0.00  0.00    -0.000 A 
ATOM     23  C   UNL     1      -4.031  -3.170  24.282  0.00  0.00    +0.002 A 
ATOM     24  C   UNL     1      -4.385  -2.519  23.919  0.00  0.00    +0.029 A 
ATOM     25  C   UNL     1      -3.999  -1.789  23.915  0.00  0.00    +0.137 A 
ATOM     26  F   UNL     1      -4.353  -1.138  23.552  0.00  0.00    -0.204 F 
ENDBRANCH  19  20
ENDBRANCH  18  19
ENDBRANCH   3  18
TORSDOF 6
ENDMDL
MODEL 2
REMARK VINA RESULT:     -10.6      1.645      1.871
REMARK  Name = 
REMARK  6 active torsions:
REMARK  status: ('A' for Active; 'I' for Inactive)
REMARK    1  A    between atoms: C_3  and  N_18
REMARK    2  A    between atoms: C_6  and  C_7
REMARK    3  A    between atoms: C_7  and  N_8
REMARK    4  A    between atoms: C_9  and  C_11
REMARK    5  A    between atoms: N_18  and  C_19
REMARK    6  A    between atoms: C_19  and  C_20
REMARK                            x       y       z     vdW  Elec       q    Type
REMARK                         _______ _______ _______ _____ _____    ______ ____
ROOT
ATOM      1  O   UNL     1      -4.228   1.041  25.432  0.00  0.00    -0.219 OA
ATOM      2  C   UNL     1      -3.838   1.136  24.711  0.00  0.00    +0.199 C 
ATOM      3  C   UNL     1      -3.699   0.545  24.153  0.00  0.00    +0.135 C 
ATOM      4  C   UNL     1      -3.294   0.882  23.520  0.00  0.00    +0.162 C 
ATOM      5  O   UNL     1      -3.182   1.683  23.686  0.00  0.00    -0.350 OA
ATOM      6  C   UNL     1      -3.519   1.840  24.422  0.00  0.00    +0.169 C 
ENDROOT
BRANCH   6   7
ATOM      7  C   UNL     1      -3.533   2.571  24.802  0.00  0.00    +0.148 C 
BRANCH   7   8
ATOM      8  N   UNL     1      -2.892   3.086  24.731  0.00  0.00    -0.199 NA
ATOM      9  C   UNL     1      -2.827   3.735  25.236  0.00  0.00    +0.265 C 
ATOM     10  O   UNL     1      -3.402   3.869  25.812  0.00  0.00    -0.268 OA
BRANCH   9  11
ATOM     11  C   UNL     1      -2.186   4.250  25.165  0.00  0.00    +0.055 A 
ATOM     12  C   UNL     1      -2.311   5.065  25.156  0.00  0.00    +0.007 A 
ATOM     13  C   UNL     1      -1.670   5.580  25.085  0.00  0.00    +0.030 A 
ATOM     14  C   UNL     1      -0.904   5.279  25.023  0.00  0.00    +0.140 A 
ATOM     15  F   UNL     1      -0.263   5.793  24.952  0.00  0.00    -0.204 F 
ATOM     16  C   UNL     1      -0.779   4.463  25.032  0.00  0.00    +0.030 A 
ATOM     17  C   UNL     1      -1.420   3.949  25.103  0.00  0.00    +0.007 A 
ENDBRANCH   9  11
ENDBRANCH   7   8
ENDBRANCH   6   7
BRANCH   3  18
ATOM     18  N   UNL     1      -3.925  -0.246  24.218  0.00  0.00    -0.209 NA
BRANCH  18  19
ATOM     19  C   UNL     1      -3.352  -0.840  24.242  0.00  0.00    +0.117 C 
BRANCH  19  20
ATOM     20  C   UNL     1      -3.578  -1.632  24.233  0.00  0.00    +0.023 A 
ATOM     21  C   UNL     1      -4.253  -1.865  23.818  0.00  0.00    -0.001 A 
ATOM     22  C   UNL     1      -4.478  -2.658  23.809  0.00  0.00    -0.000 A 
ATOM     23  C   UNL     1      -4.029  -3.219  24.213  0.00  0.00    +0.002 A 
ATOM     24  C   UNL     1      -3.355  -2.988  24.628  0.00  0.00    +0.029 A 
ATOM     25  C   UNL     1      -3.129  -2.194  24.637  0.00  0.00    +0.137 A 
ATOM     26  F   UNL     1      -2.454  -1.962  25.052  0.00  0.00    -0.204 F 
ENDBRANCH  19  20
ENDBRANCH  18  19
ENDBRANCH   3  18
TORSDOF 6
ENDMDL
MODEL 3
REMARK VINA RESULT:     -10.4      0.947      5.914
REMARK  Name = 
REMARK  6 active torsions:
REMARK  status: ('A' for Active; 'I' for Inactive)
REMARK    1  A    between atoms: C_3  and  N_18
REMARK    2  A    between atoms: C_6  and  C_7
REMARK    3  A    between atoms: C_7  and  N_8
REMARK    4  A    between atoms: C_9  and  C_11
REMARK    5  A    between atoms: N_18  and  C_19
REMARK    6  A    between atoms: C_19  and  C_20
REMARK                            x       y       z     vdW  Elec       q    Type
REMARK                         _______ _______ _______ _____ _____    ______ ____
ROOT
ATOM      1  O   UNL     1      -1.006   1.230  23.861  0.00  0.00    -0.219 OA
ATOM      2  C   UNL     1      -0.978   1.109  24.677  0.00  0.00    +0.199 C 
ATOM      3  C   UNL     1      -0.903   1.695  25.252  0.00  0.00    +0.135 C 
ATOM      4  C   UNL     1      -0.898   1.328  25.990  0.00  0.00    +0.162 C 
ATOM      5  O   UNL     1      -0.969   0.515  25.872  0.00  0.00    -0.350 OA
ATOM      6  C   UNL     1      -1.019   0.379  25.060  0.00  0.00    +0.169 C 
ENDROOT
BRANCH   6   7
ATOM      7  C   UNL     1      -1.096  -0.356  24.695  0.00  0.00    +0.148 C 
BRANCH   7   8
ATOM      8  N   UNL     1      -1.841  -0.702  24.619  0.00  0.00    -0.199 NA
ATOM      9  C   UNL     1      -1.908  -1.494  24.395  0.00  0.00    +0.265 C 
ATOM     10  O   UNL     1      -1.229  -1.938  24.246  0.00  0.00    -0.268 OA
BRANCH   9  11
ATOM     11  C   UNL     1      -2.652  -1.840  24.318  0.00  0.00    +0.055 A 
ATOM     12  C   UNL     1      -2.793  -2.590  24.632  0.00  0.00    +0.007 A 
ATOM     13  C   UNL     1      -3.537  -2.936  24.556  0.00  0.00    +0.030 A 
ATOM     14  C   UNL     1      -4.142  -2.532  24.166  0.00  0.00    +0.140 A 
ATOM     15  F   UNL     1      -4.887  -2.878  24.090  0.00  0.00    -0.204 F 
ATOM     16  C   UNL     1      -4.002  -1.782  23.852  0.00  0.00    +0.030 A 
ATOM     17  C   UNL     1      -3.257  -1.436  23.928  0.00  0.00    +0.007 A 
ENDBRANCH   9  11
ENDBRANCH   7   8
ENDBRANCH   6   7
BRANCH   3  18
ATOM     18  N   UNL     1      -0.843   2.507  25.113  0.00  0.00    -0.209 NA
BRANCH  18  19
ATOM     19  C   UNL     1      -1.254   3.039  25.591  0.00  0.00    +0.117 C 
BRANCH  19  20
ATOM     20  C   UNL     1      -1.284   3.837  25.388  0.00  0.00    +0.023 A 
ATOM     21  C   UNL     1      -0.648   4.189  24.998  0.00  0.00    -0.001 A 
ATOM     22  C   UNL     1      -0.678   4.988  24.795  0.00  0.00    -0.000 A 
ATOM     23  C   UNL     1      -1.345   5.436  24.983  0.00  0.00    +0.002 A 
ATOM     24  C   UNL     1      -1.981   5.085  25.373  0.00  0.00    +0.029 A 
ATOM     25  C   UNL     1      -1.951   4.285  25.576  0.00  0.00    +0.137 A 
ATOM     26  F   UNL     1      -2.587   3.935  25.966  0.00  0.00    -0.204 F 
ENDBRANCH  19  20
ENDBRANCH  18  19
ENDBRANCH   3  18
TORSDOF 6
ENDMDL
MODEL 4
REMARK VINA RESULT:     -10.3      1.678      6.320
REMARK  Name = 
REMARK  6 active torsions:
REMARK  status: ('A' for Active; 'I' for Inactive)
REMARK    1  A    between atoms: C_3  and  N_18
REMARK    2  A    between atoms: C_6  and  C_7
REMARK    3  A    between atoms: C_7  and  N_8
REMARK    4  A    between atoms: C_9  and  C_11
REMARK    5  A    between atoms: N_18  and  C_19
REMARK    6  A    between atoms: C_19  and  C_20
REMARK                            x       y       z     vdW  Elec       q    Type
REMARK                         _______ _______ _______ _____ _____    ______ ____
ROOT
ATOM      1  O   UNL     1      -3.946   2.463  24.419  0.00  0.00    -0.219 OA
ATOM      2  C   UNL     1      -3.282   2.056  24.691  0.00  0.00    +0.199 C 
ATOM      3  C   UNL     1      -2.569   2.395  24.930  0.00  0.00    +0.135 C 
ATOM      4  C   UNL     1      -2.062   1.787  25.159  0.00  0.00    +0.162 C 
ATOM      5  O   UNL     1      -2.461   1.071  25.062  0.00  0.00    -0.350 OA
ATOM      6  C   UNL     1      -3.215   1.237  24.773  0.00  0.00    +0.169 C 
ENDROOT
BRANCH   6   7
ATOM      7  C   UNL     1      -3.799   0.683  24.596  0.00  0.00    +0.148 C 
BRANCH   7   8
ATOM      8  N   UNL     1      -3.612  -0.120  24.571  0.00  0.00    -0.199 NA
ATOM      9  C   UNL     1      -4.208  -0.679  24.455  0.00  0.00    +0.265 C 
ATOM     10  O   UNL     1      -4.990  -0.435  24.365  0.00  0.00    -0.268 OA
BRANCH   9  11
ATOM     11  C   UNL     1      -4.020  -1.482  24.430  0.00  0.00    +0.055 A 
ATOM     12  C   UNL     1      -3.595  -1.826  25.048  0.00  0.00    +0.007 A 
ATOM     13  C   UNL     1      -3.407  -2.629  25.022  0.00  0.00    +0.030 A 
ATOM     14  C   UNL     1      -3.645  -3.088  24.379  0.00  0.00    +0.140 A 
ATOM     15  F   UNL     1      -3.458  -3.891  24.353  0.00  0.00    -0.204 F 
ATOM     16  C   UNL     1      -4.070  -2.744  23.761  0.00  0.00    +0.030 A 
ATOM     17  C   UNL     1      -4.258  -1.941  23.786  0.00  0.00    +0.007 A 
ENDBRANCH   9  11
ENDBRANCH   7   8
ENDBRANCH   6   7
BRANCH   3  18
ATOM     18  N   UNL     1      -2.395   3.202  24.938  0.00  0.00    -0.209 NA
BRANCH  18  19
ATOM     19  C   UNL     1      -1.630   3.457  25.114  0.00  0.00    +0.117 C 
BRANCH  19  20
ATOM     20  C   UNL     1      -1.434   4.254  25.041  0.00  0.00    +0.023 A 
ATOM     21  C   UNL     1      -1.969   4.835  25.280  0.00  0.00    -0.001 A 
ATOM     22  C   UNL     1      -1.773   5.633  25.207  0.00  0.00    -0.000 A 
ATOM     23  C   UNL     1      -1.041   5.850  24.894  0.00  0.00    +0.002 A 
ATOM     24  C   UNL     1      -0.505   5.270  24.654  0.00  0.00    +0.029 A 
ATOM     25  C   UNL     1      -0.702   4.472  24.728  0.00  0.00    +0.137 A 
ATOM     26  F   UNL     1      -0.167   3.892  24.488  0.00  0.00    -0.204 F 
ENDBRANCH  19  20
ENDBRANCH  18  19
ENDBRANCH   3  18
TORSDOF 6
ENDMDL
MODEL 5
REMARK VINA RESULT:      -7.5     15.540     17.871
REMARK  Name = 
REMARK  6 active torsions:
REMARK  status: ('A' for Active; 'I' for Inactive)
REMARK    1  A    between atoms: C_3  and  N_18
REMARK    2  A    between atoms: C_6  and  C_7
REMARK    3  A    between atoms: C_7  and  N_8
REMARK    4  A    between atoms: C_9  and  C_11
REMARK    5  A    between atoms: N_18  and  C_19
REMARK    6  A    between atoms: C_19  and  C_20
REMARK                            x       y       z     vdW  Elec       q    Type
REMARK                         _______ _______ _______ _____ _____    ______ ____
ROOT
ATOM      1  O   UNL     1      13.139   6.550  19.441  0.00  0.00    -0.219 OA
ATOM      2  C   UNL     1      13.355   7.283  19.132  0.00  0.00    +0.199 C 
ATOM      3  C   UNL     1      14.100   7.488  18.845  0.00  0.00    +0.135 C 
ATOM      4  C   UNL     1      14.069   8.272  18.591  0.00  0.00    +0.162 C 
ATOM      5  O   UNL     1      13.304   8.552  18.721  0.00  0.00    -0.350 OA
ATOM      6  C   UNL     1      12.862   7.942  19.055  0.00  0.00    +0.169 C 
ENDROOT
BRANCH   6   7
ATOM      7  C   UNL     1      12.069   7.981  19.274  0.00  0.00    +0.148 C 
BRANCH   7   8
ATOM      8  N   UNL     1      11.864   8.054  20.070  0.00  0.00    -0.199 NA
ATOM      9  C   UNL     1      11.083   8.218  20.282  0.00  0.00    +0.265 C 
ATOM     10  O   UNL     1      10.508   8.309  19.698  0.00  0.00    -0.268 OA
BRANCH   9  11
ATOM     11  C   UNL     1      10.879   8.290  21.078  0.00  0.00    +0.055 A 
ATOM     12  C   UNL     1      10.944   9.021  21.456  0.00  0.00    +0.007 A 
ATOM     13  C   UNL     1      10.740   9.094  22.251  0.00  0.00    +0.030 A 
ATOM     14  C   UNL     1      10.469   8.435  22.670  0.00  0.00    +0.140 A 
ATOM     15  F   UNL     1      10.265   8.508  23.466  0.00  0.00    -0.204 F 
ATOM     16  C   UNL     1      10.404   7.705  22.292  0.00  0.00    +0.030 A 
ATOM     17  C   UNL     1      10.608   7.632  21.496  0.00  0.00    +0.007 A 
ENDBRANCH   9  11
ENDBRANCH   7   8
ENDBRANCH   6   7
BRANCH   3  18
ATOM     18  N   UNL     1      14.761   6.995  18.817  0.00  0.00    -0.209 NA
BRANCH  18  19
ATOM     19  C   UNL     1      15.450   7.204  19.220  0.00  0.00    +0.117 C 
BRANCH  19  20
ATOM     20  C   UNL     1      16.102   6.699  19.214  0.00  0.00    +0.023 A 
ATOM     21  C   UNL     1      16.254   6.228  18.553  0.00  0.00    -0.001 A 
ATOM     22  C   UNL     1      16.905   5.723  18.547  0.00  0.00    -0.000 A 
ATOM     23  C   UNL     1      17.405   5.688  19.202  0.00  0.00    +0.002 A 
ATOM     24  C   UNL     1      17.254   6.158  19.863  0.00  0.00    +0.029 A 
ATOM     25  C   UNL     1      16.602   6.664  19.869  0.00  0.00    +0.137 A 
ATOM     26  F   UNL     1      16.451   7.134  20.530  0.00  0.00    -0.204 F 
ENDBRANCH  19  20
ENDBRANCH  18  19
ENDBRANCH   3  18
TORSDOF 6
ENDMDL
MODEL 6
REMARK VINA RESULT:      -6.8     16.806     18.498
REMARK  Name = 
REMARK  6 active torsions:
REMARK  status: ('A' for Active; 'I' for Inactive)
REMARK    1  A    between atoms: C_3  and  N_18
REMARK    2  A    between atoms: C_6  and  C_7
REMARK    3  A    between atoms: C_7  and  N_8
REMARK    4  A    between atoms: C_9  and  C_11
REMARK    5  A    between atoms: N_18  and  C_19
REMARK    6  A    between atoms: C_19  and  C_20
REMARK                            x       y       z     vdW  Elec       q    Type
REMARK                         _______ _______ _______ _____ _____    ______ ____
ROOT
ATOM      1  O   UNL     1      13.185   6.871  19.724  0.00  0.00    -0.219 OA
ATOM      2  C   UNL     1      13.375   7.656  19.893  0.00  0.00    +0.199 C 
ATOM      3  C   UNL     1      14.078   7.922  20.233  0.00  0.00    +0.135 C 
ATOM      4  C   UNL     1      14.033   8.742  20.301  0.00  0.00    +0.162 C 
ATOM      5  O   UNL     1      13.303   8.984  20.003  0.00  0.00    -0.350 OA
ATOM      6  C   UNL     1      12.896   8.313  19.750  0.00  0.00    +0.169 C 
ENDROOT
BRANCH   6   7
ATOM      7  C   UNL     1      12.143   8.300  19.415  0.00  0.00    +0.148 C 
BRANCH   7   8
ATOM      8  N   UNL     1      12.048   8.447  18.609  0.00  0.00    -0.199 NA
ATOM      9  C   UNL     1      11.291   8.501  18.286  0.00  0.00    +0.265 C 
ATOM     10  O   UNL     1      10.629   8.407  18.769  0.00  0.00    -0.268 OA
BRANCH   9  11
ATOM     11  C   UNL     1      11.196   8.649  17.480  0.00  0.00    +0.055 A 
ATOM     12  C   UNL     1      10.466   8.514  17.119  0.00  0.00    +0.007 A 
ATOM     13  C   UNL     1      10.372   8.662  16.313  0.00  0.00    +0.030 A 
ATOM     14  C   UNL     1      11.007   8.945  15.868  0.00  0.00    +0.140 A 
ATOM     15  F   UNL     1      10.912   9.092  15.061  0.00  0.00    -0.204 F 
ATOM     16  C   UNL     1      11.736   9.079  16.228  0.00  0.00    +0.030 A 
ATOM     17  C   UNL     1      11.831   8.931  17.034  0.00  0.00    +0.007 A 
ENDBRANCH   9  11
ENDBRANCH   7   8
ENDBRANCH   6   7
BRANCH   3  18
ATOM     18  N   UNL     1      14.714   7.449  20.465  0.00  0.00    -0.209 NA
BRANCH  18  19
ATOM     19  C   UNL     1      15.487   7.690  20.306  0.00  0.00    +0.117 C 
BRANCH  19  20
ATOM     20  C   UNL     1      16.119   7.190  20.479  0.00  0.00    +0.023 A 
ATOM     21  C   UNL     1      16.257   6.953  21.257  0.00  0.00    -0.001 A 
ATOM     22  C   UNL     1      16.890   6.452  21.429  0.00  0.00    -0.000 A 
ATOM     23  C   UNL     1      17.384   6.190  20.824  0.00  0.00    +0.002 A 
ATOM     24  C   UNL     1      17.247   6.427  20.046  0.00  0.00    +0.029 A 
ATOM     25  C   UNL     1      16.614   6.928  19.873  0.00  0.00    +0.137 A 
ATOM     26  F   UNL     1      16.477   7.165  19.095  0.00  0.00    -0.204 F 
ENDBRANCH  19  20
ENDBRANCH  18  19
ENDBRANCH   3  18
TORSDOF 6
ENDMDL
