MODEL 1
REMARK VINA RESULT:     -13.8      0.000      0.000
REMARK  Name = 
REMARK  4 active torsions:
REMARK  status: ('A' for Active; 'I' for Inactive)
REMARK    1  A    between atoms: S_2  and  C_3
REMARK    2  A    between atoms: C_6  and  C_9
REMARK    3  A    between atoms: C_19  and  C_21
REMARK    4  A    between atoms: C_21  and  N_22
REMARK                            x       y       z     vdW  Elec       q    Type
REMARK                         _______ _______ _______ _____ _____    ______ ____
ROOT
ATOM      9  C   UNL     1      -4.371   0.654  24.955  0.00  0.00    +0.056 A 
ATOM     10  C   UNL     1      -5.119   0.826  25.258  0.00  0.00    +0.006 A 
ATOM     11  C   UNL     1      -5.350   1.610  25.366  0.00  0.00    +0.013 A 
ATOM     12  C   UNL     1      -4.833   2.223  25.171  0.00  0.00    +0.041 A 
ATOM     13  C   UNL     1      -4.782   3.140  25.169  0.00  0.00    +0.058 C 
ATOM     14  C   UNL     1      -5.155   3.713  25.330  0.00  0.00    +0.011 C 
ATOM     15  C   UNL     1      -4.417   3.539  25.031  0.00  0.00    +0.043 C 
ATOM     16  C   UNL     1      -3.500   3.533  24.663  0.00  0.00    +0.095 C 
ATOM     17  N   UNL     1      -3.380   2.709  24.599  0.00  0.00    -0.278 N 
ATOM     18  C   UNL     1      -3.895   3.151  24.814  0.00  0.00    +0.099 C 
ATOM     19  C   UNL     1      -2.997   1.998  24.431  0.00  0.00    +0.242 C 
ATOM     20  O   UNL     1      -3.379   1.279  24.570  0.00  0.00    -0.273 OA
ATOM     25  C   UNL     1      -4.461   2.580  25.029  0.00  0.00    +0.110 C 
ATOM     26  N   UNL     1      -4.085   2.050  24.868  0.00  0.00    -0.299 N 
ATOM     27  C   UNL     1      -3.854   1.266  24.760  0.00  0.00    +0.261 A 
ATOM     28  O   UNL     1      -3.194   0.853  24.487  0.00  0.00    -0.267 OA
ENDROOT
BRANCH   9   6
ATOM      3  C   UNL     1      -3.681  -1.701  24.633  0.00  0.00    +0.025 A 
ATOM      4  C   UNL     1      -4.028  -1.285  24.011  0.00  0.00    +0.006 A 
ATOM      5  C   UNL     1      -4.258  -0.499  24.118  0.00  0.00    +0.001 A 
ATOM      6  C   UNL     1      -4.141  -0.131  24.847  0.00  0.00    +0.005 A 
ATOM      7  C   UNL     1      -3.795  -0.548  25.469  0.00  0.00    +0.001 A 
ATOM      8  C   UNL     1      -3.564  -1.333  25.362  0.00  0.00    +0.006 A 
BRANCH   3   2
ATOM      1  C   UNL     1      -2.651  -2.685  24.532  0.00  0.00    +0.074 C 
ATOM      2  S   UNL     1      -3.451  -2.487  24.526  0.00  0.00    -0.113 S 
ENDBRANCH   3   2
ENDBRANCH   9   6
BRANCH  19  21
ATOM     21  C   UNL     1      -2.231   2.005  24.124  0.00  0.00    +0.159 C 
BRANCH  21  22
ATOM     22  N   UNL     1      -1.590   2.167  24.618  0.00  0.00    -0.263 NA
ATOM     23  C   UNL     1      -1.306   1.586  25.130  0.00  0.00    +0.090 C 
ATOM     24  C   UNL     1      -1.234   2.912  24.599  0.00  0.00    +0.090 C 
ENDBRANCH  21  22
ENDBRANCH  19  21
TORSDOF 4
ENDMDL
MODEL 2
REMARK VINA RESULT:     -13.5      1.846      3.962
REMARK  Name = 
REMARK  4 active torsions:
REMARK  status: ('A' for Active; 'I' for Inactive)
REMARK    1  A    between atoms: S_2  and  C_3
REMARK    2  A    between atoms: C_6  and  C_9
REMARK    3  A    between atoms: C_19  and  C_21
REMARK    4  A    between atoms: C_21  and  N_22
REMARK                            x       y       z     vdW  Elec       q    Type
REMARK                         _______ _______ _______ _____ _____    ______ ____
ROOT
ATOM      9  C   UNL     1      -3.762   0.175  24.348  0.00  0.00    +0.056 A 
ATOM     10  C   UNL     1      -4.429  -0.245  24.104  0.00  0.00    +0.006 A 
ATOM     11  C   UNL     1      -4.418  -1.070  24.099  0.00  0.00    +0.013 A 
ATOM     12  C   UNL     1      -3.740  -1.474  24.337  0.00  0.00    +0.041 A 
ATOM     13  C   UNL     1      -3.418  -2.329  24.442  0.00  0.00    +0.058 C 
ATOM     14  C   UNL     1      -3.606  -3.001  24.367  0.00  0.00    +0.011 C 
ATOM     15  C   UNL     1      -2.950  -2.583  24.607  0.00  0.00    +0.043 C 
ATOM     16  C   UNL     1      -2.071  -2.262  24.924  0.00  0.00    +0.095 C 
ATOM     17  N   UNL     1      -2.200  -1.438  24.887  0.00  0.00    -0.278 N 
ATOM     18  C   UNL     1      -2.564  -2.035  24.751  0.00  0.00    +0.099 C 
ATOM     19  C   UNL     1      -2.043  -0.630  24.953  0.00  0.00    +0.242 C 
ATOM     20  O   UNL     1      -2.624  -0.079  24.752  0.00  0.00    -0.273 OA
ATOM     25  C   UNL     1      -3.277  -1.686  24.500  0.00  0.00    +0.110 C 
ATOM     26  N   UNL     1      -3.073  -1.054  24.580  0.00  0.00    -0.299 N 
ATOM     27  C   UNL     1      -3.084  -0.229  24.585  0.00  0.00    +0.261 A 
ATOM     28  O   UNL     1      -2.573   0.390  24.775  0.00  0.00    -0.267 OA
ENDROOT
BRANCH   9   6
ATOM      3  C   UNL     1      -3.800   2.649  24.365  0.00  0.00    +0.025 A 
ATOM      4  C   UNL     1      -3.562   2.246  23.685  0.00  0.00    +0.006 A 
ATOM      5  C   UNL     1      -3.550   1.420  23.680  0.00  0.00    +0.001 A 
ATOM      6  C   UNL     1      -3.775   1.000  24.353  0.00  0.00    +0.005 A 
ATOM      7  C   UNL     1      -4.012   1.404  25.032  0.00  0.00    +0.001 A 
ATOM      8  C   UNL     1      -4.025   2.229  25.037  0.00  0.00    +0.006 A 
BRANCH   3   2
ATOM      1  C   UNL     1      -3.228   3.892  24.774  0.00  0.00    +0.074 C 
ATOM      2  S   UNL     1      -3.812   3.475  24.370  0.00  0.00    -0.113 S 
ENDBRANCH   3   2
ENDBRANCH   9   6
BRANCH  19  21
ATOM     21  C   UNL     1      -1.306  -0.374  25.219  0.00  0.00    +0.159 C 
BRANCH  21  22
ATOM     22  N   UNL     1      -0.701  -0.224  24.678  0.00  0.00    -0.263 NA
ATOM     23  C   UNL     1      -0.281  -0.852  24.345  0.00  0.00    +0.090 C 
ATOM     24  C   UNL     1      -0.517   0.553  24.470  0.00  0.00    +0.090 C 
ENDBRANCH  21  22
ENDBRANCH  19  21
TORSDOF 4
ENDMDL
MODEL 3
REMARK VINA RESULT:     -12.6      0.889      2.235
REMARK  Name = 
REMARK  4 active torsions:
REMARK  status: ('A' for Active; 'I' for Inactive)
REMARK    1  A    between atoms: S_2  and  C_3
REMARK    2  A    between atoms: C_6  and  C_9
REMARK    3  A    between atoms: C_19  and  C_21
REMARK    4  A    between atoms: C_21  and  N_22
REMARK                            x       y       z     vdW  Elec       q    Type
REMARK                         _______ _______ _______ _____ _____    ______ ____
ROOT
ATOM      9  C   UNL     1      -2.783   0.977  24.799  0.00  0.00    +0.056 A 
ATOM     10  C   UNL     1      -1.974   1.010  24.954  0.00  0.00    +0.006 A 
ATOM     11  C   UNL     1      -1.616   1.733  25.130  0.00  0.00    +0.013 A 
ATOM     12  C   UNL     1      -2.069   2.422  25.150  0.00  0.00    +0.041 A 
ATOM     13  C   UNL     1      -1.987   3.325  25.302  0.00  0.00    +0.058 C 
ATOM     14  C   UNL     1      -1.512   3.815  25.465  0.00  0.00    +0.011 C 
ATOM     15  C   UNL     1      -2.311   3.779  25.311  0.00  0.00    +0.043 C 
ATOM     16  C   UNL     1      -3.274   3.938  25.156  0.00  0.00    +0.095 C 
ATOM     17  N   UNL     1      -3.521   3.157  24.992  0.00  0.00    -0.278 N 
ATOM     18  C   UNL     1      -2.915   3.495  25.156  0.00  0.00    +0.099 C 
ATOM     19  C   UNL     1      -4.028   2.534  24.804  0.00  0.00    +0.242 C 
ATOM     20  O   UNL     1      -3.732   1.765  24.742  0.00  0.00    -0.273 OA
ATOM     25  C   UNL     1      -2.406   2.837  25.151  0.00  0.00    +0.110 C 
ATOM     26  N   UNL     1      -2.878   2.389  24.995  0.00  0.00    -0.299 N 
ATOM     27  C   UNL     1      -3.236   1.666  24.819  0.00  0.00    +0.261 A 
ATOM     28  O   UNL     1      -3.988   1.383  24.637  0.00  0.00    -0.267 OA
ENDROOT
BRANCH   9   6
ATOM      3  C   UNL     1      -3.853  -1.192  24.274  0.00  0.00    +0.025 A 
ATOM      4  C   UNL     1      -3.640  -0.679  23.663  0.00  0.00    +0.006 A 
ATOM      5  C   UNL     1      -3.283   0.045  23.839  0.00  0.00    +0.001 A 
ATOM      6  C   UNL     1      -3.140   0.255  24.623  0.00  0.00    +0.005 A 
ATOM      7  C   UNL     1      -3.353  -0.259  25.233  0.00  0.00    +0.001 A 
ATOM      8  C   UNL     1      -3.709  -0.982  25.059  0.00  0.00    +0.006 A 
BRANCH   3   2
ATOM      1  C   UNL     1      -3.797  -2.618  24.220  0.00  0.00    +0.074 C 
ATOM      2  S   UNL     1      -4.210  -1.915  24.099  0.00  0.00    -0.113 S 
ENDBRANCH   3   2
ENDBRANCH   9   6
BRANCH  19  21
ATOM     21  C   UNL     1      -4.829   2.678  24.677  0.00  0.00    +0.159 C 
BRANCH  21  22
ATOM     22  N   UNL     1      -5.343   2.749  25.319  0.00  0.00    -0.263 NA
ATOM     23  C   UNL     1      -5.697   2.076  25.640  0.00  0.00    +0.090 C 
ATOM     24  C   UNL     1      -5.502   3.493  25.640  0.00  0.00    +0.090 C 
ENDBRANCH  21  22
ENDBRANCH  19  21
TORSDOF 4
ENDMDL
MODEL 4
REMARK VINA RESULT:     -12.2      1.575      2.304
REMARK  Name = 
REMARK  4 active torsions:
REMARK  status: ('A' for Active; 'I' for Inactive)
REMARK    1  A    between atoms: S_2  and  C_3
REMARK    2  A    between atoms: C_6  and  C_9
REMARK    3  A    between atoms: C_19  and  C_21
REMARK    4  A    between atoms: C_21  and  N_22
REMARK                            x       y       z     vdW  Elec       q    Type
REMARK                         _______ _______ _______ _____ _____    ______ ____
ROOT
ATOM      9  C   UNL     1      -3.179   1.151  24.613  0.00  0.00    +0.056 A 
ATOM     10  C   UNL     1      -3.712   0.521  24.631  0.00  0.00    +0.006 A 
ATOM     11  C   UNL     1      -4.507   0.658  24.808  0.00  0.00    +0.013 A 
ATOM     12  C   UNL     1      -4.768   1.424  24.966  0.00  0.00    +0.041 A 
ATOM     13  C   UNL     1      -5.532   1.887  25.182  0.00  0.00    +0.058 C 
ATOM     14  C   UNL     1      -6.216   1.793  25.304  0.00  0.00    +0.011 C 
ATOM     15  C   UNL     1      -5.687   2.413  25.286  0.00  0.00    +0.043 C 
ATOM     16  C   UNL     1      -5.211   3.278  25.311  0.00  0.00    +0.095 C 
ATOM     17  N   UNL     1      -4.439   3.018  25.123  0.00  0.00    -0.278 N 
ATOM     18  C   UNL     1      -5.085   2.731  25.211  0.00  0.00    +0.099 C 
ATOM     19  C   UNL     1      -3.630   3.059  24.968  0.00  0.00    +0.242 C 
ATOM     20  O   UNL     1      -3.208   2.373  24.789  0.00  0.00    -0.273 OA
ATOM     25  C   UNL     1      -4.884   1.937  25.060  0.00  0.00    +0.110 C 
ATOM     26  N   UNL     1      -4.235   2.054  24.948  0.00  0.00    -0.299 N 
ATOM     27  C   UNL     1      -3.441   1.917  24.772  0.00  0.00    +0.261 A 
ATOM     28  O   UNL     1      -2.746   2.355  24.695  0.00  0.00    -0.267 OA
ENDROOT
BRANCH   9   6
ATOM      3  C   UNL     1      -0.797   0.738  24.086  0.00  0.00    +0.025 A 
ATOM      4  C   UNL     1      -1.311   0.997  23.495  0.00  0.00    +0.006 A 
ATOM      5  C   UNL     1      -2.106   1.134  23.671  0.00  0.00    +0.001 A 
ATOM      6  C   UNL     1      -2.386   1.014  24.437  0.00  0.00    +0.005 A 
ATOM      7  C   UNL     1      -1.871   0.755  25.028  0.00  0.00    +0.001 A 
ATOM      8  C   UNL     1      -1.077   0.618  24.853  0.00  0.00    +0.006 A 
BRANCH   3   2
ATOM      1  C   UNL     1       0.226  -0.116  23.574  0.00  0.00    +0.074 C 
ATOM      2  S   UNL     1      -0.002   0.601  23.910  0.00  0.00    -0.113 S 
ENDBRANCH   3   2
ENDBRANCH   9   6
BRANCH  19  21
ATOM     21  C   UNL     1      -3.242   3.787  24.992  0.00  0.00    +0.159 C 
BRANCH  21  22
ATOM     22  N   UNL     1      -2.807   4.000  25.660  0.00  0.00    -0.263 NA
ATOM     23  C   UNL     1      -3.192   4.142  26.376  0.00  0.00    +0.090 C 
ATOM     24  C   UNL     1      -1.985   4.071  25.612  0.00  0.00    +0.090 C 
ENDBRANCH  21  22
ENDBRANCH  19  21
TORSDOF 4
ENDMDL
MODEL 5
REMARK VINA RESULT:     -12.1      1.739      4.050
REMARK  Name = 
REMARK  4 active torsions:
REMARK  status: ('A' for Active; 'I' for Inactive)
REMARK    1  A    between atoms: S_2  and  C_3
REMARK    2  A    between atoms: C_6  and  C_9
REMARK    3  A    between atoms: C_19  and  C_21
REMARK    4  A    between atoms: C_21  and  N_22
REMARK                            x       y       z     vdW  Elec       q    Type
REMARK                         _______ _______ _______ _____ _____    ______ ____
ROOT
ATOM      9  C   UNL     1      -2.102   1.479  24.981  0.00  0.00    +0.056 A 
ATOM     10  C   UNL     1      -1.633   0.815  25.117  0.00  0.00    +0.006 A 
ATOM     11  C   UNL     1      -1.973   0.063  25.123  0.00  0.00    +0.013 A 
ATOM     12  C   UNL     1      -2.783  -0.024  24.992  0.00  0.00    +0.041 A 
ATOM     13  C   UNL     1      -3.431  -0.673  24.937  0.00  0.00    +0.058 C 
ATOM     14  C   UNL     1      -3.519  -1.368  24.981  0.00  0.00    +0.011 C 
ATOM     15  C   UNL     1      -3.980  -0.709  24.847  0.00  0.00    +0.043 C 
ATOM     16  C   UNL     1      -4.692  -0.048  24.670  0.00  0.00    +0.095 C 
ATOM     17  N   UNL     1      -4.239   0.654  24.687  0.00  0.00    -0.278 N 
ATOM     18  C   UNL     1      -4.130  -0.046  24.765  0.00  0.00    +0.099 C 
ATOM     19  C   UNL     1      -4.067   1.460  24.648  0.00  0.00    +0.242 C 
ATOM     20  O   UNL     1      -3.292   1.723  24.758  0.00  0.00    -0.273 OA
ATOM     25  C   UNL     1      -3.310  -0.024  24.903  0.00  0.00    +0.110 C 
ATOM     26  N   UNL     1      -3.252   0.641  24.856  0.00  0.00    -0.299 N 
ATOM     27  C   UNL     1      -2.912   1.392  24.850  0.00  0.00    +0.261 A 
ATOM     28  O   UNL     1      -3.153   2.174  24.743  0.00  0.00    -0.267 OA
ENDROOT
BRANCH   9   6
ATOM      3  C   UNL     1      -1.080   3.732  24.966  0.00  0.00    +0.025 A 
ATOM      4  C   UNL     1      -1.187   3.325  24.257  0.00  0.00    +0.006 A 
ATOM      5  C   UNL     1      -1.529   2.573  24.262  0.00  0.00    +0.001 A 
ATOM      6  C   UNL     1      -1.761   2.230  24.975  0.00  0.00    +0.005 A 
ATOM      7  C   UNL     1      -1.653   2.639  25.684  0.00  0.00    +0.001 A 
ATOM      8  C   UNL     1      -1.312   3.390  25.679  0.00  0.00    +0.006 A 
BRANCH   3   2
ATOM      1  C   UNL     1      -1.217   5.154  25.007  0.00  0.00    +0.074 C 
ATOM      2  S   UNL     1      -0.738   4.484  24.961  0.00  0.00    -0.113 S 
ENDBRANCH   3   2
ENDBRANCH   9   6
BRANCH  19  21
ATOM     21  C   UNL     1      -4.669   2.004  24.500  0.00  0.00    +0.159 C 
BRANCH  21  22
ATOM     22  N   UNL     1      -5.144   2.273  25.119  0.00  0.00    -0.263 NA
ATOM     23  C   UNL     1      -5.832   1.864  25.319  0.00  0.00    +0.090 C 
ATOM     24  C   UNL     1      -4.930   2.951  25.538  0.00  0.00    +0.090 C 
ENDBRANCH  21  22
ENDBRANCH  19  21
TORSDOF 4
ENDMDL
