MODEL 1
REMARK VINA RESULT:     -10.0      0.000      0.000
REMARK  Name = 
REMARK  5 active torsions:
REMARK  status: ('A' for Active; 'I' for Inactive)
REMARK    1  A    between atoms: C_5  and  N_8
REMARK    2  A    between atoms: N_8  and  C_9
REMARK    3  A    between atoms: C_9  and  C_10
REMARK    4  A    between atoms: C_17  and  C_18
REMARK    5  A    between atoms: C_20  and  C_25
REMARK                            x       y       z     vdW  Elec       q    Type
REMARK                         _______ _______ _______ _____ _____    ______ ____
ROOT
ATOM     10  C   UNL     1      -0.282   0.447  23.982  0.00  0.00    +0.075 C 
ATOM     11  C   UNL     1      -0.668   0.210  24.614  0.00  0.00    +0.018 C 
ATOM     12  C   UNL     1      -1.473   0.163  24.684  0.00  0.00    +0.010 C 
ATOM     13  C   UNL     1      -1.721  -0.134  25.494  0.00  0.00    +0.018 C 
ATOM     14  C   UNL     1      -1.298   0.044  25.029  0.00  0.00    +0.072 C 
ATOM     15  N   UNL     1      -1.102   0.397  24.061  0.00  0.00    -0.272 NA
ATOM     16  C   UNL     1      -1.784   0.585  23.485  0.00  0.00    +0.078 C 
ATOM     17  C   UNL     1      -2.124   0.346  24.125  0.00  0.00    +0.056 C 
ENDROOT
BRANCH  17  18
ATOM     18  C   UNL     1      -2.935   0.275  24.262  0.00  0.00    +0.063 A 
ATOM     19  C   UNL     1      -3.372   0.933  24.500  0.00  0.00    +0.034 A 
ATOM     20  C   UNL     1      -4.182   0.861  24.637  0.00  0.00    +0.084 A 
ATOM     21  N   UNL     1      -4.556   0.133  24.536  0.00  0.00    -0.231 NA
ATOM     22  C   UNL     1      -4.118  -0.525  24.298  0.00  0.00    +0.139 A 
ATOM     23  C   UNL     1      -4.491  -1.254  24.197  0.00  0.00    +0.074 C 
ATOM     24  N   UNL     1      -3.307  -0.454  24.161  0.00  0.00    -0.235 NA
BRANCH  20  25
ATOM     25  C   UNL     1      -4.620   1.519  24.875  0.00  0.00    +0.018 A 
ATOM     26  C   UNL     1      -5.176   1.446  25.481  0.00  0.00    +0.001 A 
ATOM     27  C   UNL     1      -5.614   2.103  25.719  0.00  0.00    +0.000 A 
ATOM     28  C   UNL     1      -5.496   2.833  25.352  0.00  0.00    +0.000 A 
ATOM     29  C   UNL     1      -4.941   2.905  24.747  0.00  0.00    +0.000 A 
ATOM     30  C   UNL     1      -4.502   2.248  24.508  0.00  0.00    +0.001 A 
ENDBRANCH  20  25
ENDBRANCH  17  18
BRANCH  10   9
ATOM      9  C   UNL     1       0.407   0.617  23.561  0.00  0.00    +0.104 C 
BRANCH   9   8
ATOM      8  N   UNL     1       0.927   0.010  23.358  0.00  0.00    -0.218 NA
BRANCH   8   5
ATOM      1  C   UNL     1       3.913   0.728  22.152  0.00  0.00    +0.090 C 
ATOM      2  N   UNL     1       3.167   0.549  22.454  0.00  0.00    -0.271 NA
ATOM      3  C   UNL     1       2.694  -0.013  22.077  0.00  0.00    +0.074 C 
ATOM      4  C   UNL     1       1.948  -0.193  22.379  0.00  0.00    +0.035 C 
ATOM      5  C   UNL     1       1.674   0.190  23.057  0.00  0.00    +0.076 C 
ATOM      6  C   UNL     1       2.146   0.751  23.432  0.00  0.00    +0.035 C 
ATOM      7  C   UNL     1       2.893   0.931  23.131  0.00  0.00    +0.074 C 
ENDBRANCH   8   5
ENDBRANCH   9   8
ENDBRANCH  10   9
TORSDOF 5
ENDMDL
MODEL 2
REMARK VINA RESULT:      -9.8      3.368      5.224
REMARK  Name = 
REMARK  5 active torsions:
REMARK  status: ('A' for Active; 'I' for Inactive)
REMARK    1  A    between atoms: C_5  and  N_8
REMARK    2  A    between atoms: N_8  and  C_9
REMARK    3  A    between atoms: C_9  and  C_10
REMARK    4  A    between atoms: C_17  and  C_18
REMARK    5  A    between atoms: C_20  and  C_25
REMARK                            x       y       z     vdW  Elec       q    Type
REMARK                         _______ _______ _______ _____ _____    ______ ____
ROOT
ATOM     10  C   UNL     1      -3.995   0.818  24.199  0.00  0.00    +0.075 C 
ATOM     11  C   UNL     1      -4.327   1.521  24.173  0.00  0.00    +0.018 C 
ATOM     12  C   UNL     1      -4.052   2.186  24.543  0.00  0.00    +0.010 C 
ATOM     13  C   UNL     1      -4.578   2.896  24.389  0.00  0.00    +0.018 C 
ATOM     14  C   UNL     1      -4.391   2.272  24.340  0.00  0.00    +0.072 C 
ATOM     15  N   UNL     1      -3.721   1.500  24.573  0.00  0.00    -0.272 NA
ATOM     16  C   UNL     1      -2.995   1.656  25.103  0.00  0.00    +0.078 C 
ATOM     17  C   UNL     1      -3.352   2.329  25.053  0.00  0.00    +0.056 C 
ENDROOT
BRANCH  17  18
ATOM     18  C   UNL     1      -3.126   3.041  25.403  0.00  0.00    +0.063 A 
ATOM     19  C   UNL     1      -2.483   3.462  25.103  0.00  0.00    +0.034 A 
ATOM     20  C   UNL     1      -2.257   4.174  25.454  0.00  0.00    +0.084 A 
ATOM     21  N   UNL     1      -2.674   4.465  26.103  0.00  0.00    -0.231 NA
ATOM     22  C   UNL     1      -3.317   4.044  26.403  0.00  0.00    +0.139 A 
ATOM     23  C   UNL     1      -3.734   4.334  27.052  0.00  0.00    +0.074 C 
ATOM     24  N   UNL     1      -3.543   3.331  26.052  0.00  0.00    -0.235 NA
BRANCH  20  25
ATOM     25  C   UNL     1      -1.614   4.596  25.154  0.00  0.00    +0.018 A 
ATOM     26  C   UNL     1      -0.902   4.207  25.001  0.00  0.00    +0.001 A 
ATOM     27  C   UNL     1      -0.259   4.629  24.702  0.00  0.00    +0.000 A 
ATOM     28  C   UNL     1      -0.328   5.438  24.557  0.00  0.00    +0.000 A 
ATOM     29  C   UNL     1      -1.039   5.825  24.710  0.00  0.00    +0.000 A 
ATOM     30  C   UNL     1      -1.683   5.405  25.009  0.00  0.00    +0.001 A 
ENDBRANCH  20  25
ENDBRANCH  17  18
BRANCH  10   9
ATOM      9  C   UNL     1      -3.951   0.018  24.004  0.00  0.00    +0.104 C 
BRANCH   9   8
ATOM      8  N   UNL     1      -4.331  -0.543  24.476  0.00  0.00    -0.218 NA
BRANCH   8   5
ATOM      1  C   UNL     1      -3.376  -3.700  24.375  0.00  0.00    +0.090 C 
ATOM      2  N   UNL     1      -3.615  -2.911  24.400  0.00  0.00    -0.271 NA
ATOM      3  C   UNL     1      -3.427  -2.443  25.054  0.00  0.00    +0.074 C 
ATOM      4  C   UNL     1      -3.666  -1.654  25.078  0.00  0.00    +0.035 C 
ATOM      5  C   UNL     1      -4.092  -1.333  24.450  0.00  0.00    +0.076 C 
ATOM      6  C   UNL     1      -4.280  -1.800  23.797  0.00  0.00    +0.035 C 
ATOM      7  C   UNL     1      -4.042  -2.589  23.772  0.00  0.00    +0.074 C 
ENDBRANCH   8   5
ENDBRANCH   9   8
ENDBRANCH  10   9
TORSDOF 5
ENDMDL
MODEL 3
REMARK VINA RESULT:      -9.6      2.039      2.827
REMARK  Name = 
REMARK  5 active torsions:
REMARK  status: ('A' for Active; 'I' for Inactive)
REMARK    1  A    between atoms: C_5  and  N_8
REMARK    2  A    between atoms: N_8  and  C_9
REMARK    3  A    between atoms: C_9  and  C_10
REMARK    4  A    between atoms: C_17  and  C_18
REMARK    5  A    between atoms: C_20  and  C_25
REMARK                            x       y       z     vdW  Elec       q    Type
REMARK                         _______ _______ _______ _____ _____    ______ ____
ROOT
ATOM     10  C   UNL     1       0.999  -0.039  23.217  0.00  0.00    +0.075 C 
ATOM     11  C   UNL     1       0.372   0.394  23.377  0.00  0.00    +0.018 C 
ATOM     12  C   UNL     1      -0.251   0.168  23.840  0.00  0.00    +0.010 C 
ATOM     13  C   UNL     1      -0.874   0.811  23.900  0.00  0.00    +0.018 C 
ATOM     14  C   UNL     1      -0.312   0.543  23.701  0.00  0.00    +0.072 C 
ATOM     15  N   UNL     1       0.359  -0.262  23.689  0.00  0.00    -0.272 NA
ATOM     16  C   UNL     1       0.179  -1.030  24.148  0.00  0.00    +0.078 C 
ATOM     17  C   UNL     1      -0.419  -0.573  24.280  0.00  0.00    +0.056 C 
ENDROOT
BRANCH  17  18
ATOM     18  C   UNL     1      -1.083  -0.741  24.740  0.00  0.00    +0.063 A 
ATOM     19  C   UNL     1      -1.742  -1.101  24.397  0.00  0.00    +0.034 A 
ATOM     20  C   UNL     1      -2.405  -1.268  24.857  0.00  0.00    +0.084 A 
ATOM     21  N   UNL     1      -2.411  -1.077  25.660  0.00  0.00    -0.231 NA
ATOM     22  C   UNL     1      -1.753  -0.718  26.002  0.00  0.00    +0.139 A 
ATOM     23  C   UNL     1      -1.758  -0.526  26.805  0.00  0.00    +0.074 C 
ATOM     24  N   UNL     1      -1.088  -0.550  25.542  0.00  0.00    -0.235 NA
BRANCH  20  25
ATOM     25  C   UNL     1      -3.065  -1.628  24.515  0.00  0.00    +0.018 A 
ATOM     26  C   UNL     1      -3.113  -2.451  24.480  0.00  0.00    +0.001 A 
ATOM     27  C   UNL     1      -3.772  -2.811  24.138  0.00  0.00    +0.000 A 
ATOM     28  C   UNL     1      -4.382  -2.348  23.831  0.00  0.00    +0.000 A 
ATOM     29  C   UNL     1      -4.333  -1.526  23.866  0.00  0.00    +0.000 A 
ATOM     30  C   UNL     1      -3.674  -1.165  24.208  0.00  0.00    +0.001 A 
ENDBRANCH  20  25
ENDBRANCH  17  18
BRANCH  10   9
ATOM      9  C   UNL     1       1.730  -0.172  22.858  0.00  0.00    +0.104 C 
BRANCH   9   8
ATOM      8  N   UNL     1       2.238   0.461  22.710  0.00  0.00    -0.218 NA
BRANCH   8   5
ATOM      1  C   UNL     1       5.485   0.117  23.186  0.00  0.00    +0.090 C 
ATOM      2  N   UNL     1       4.673   0.203  23.067  0.00  0.00    -0.271 NA
ATOM      3  C   UNL     1       4.363   0.936  22.848  0.00  0.00    +0.074 C 
ATOM      4  C   UNL     1       3.552   1.022  22.729  0.00  0.00    +0.035 C 
ATOM      5  C   UNL     1       3.050   0.375  22.829  0.00  0.00    +0.076 C 
ATOM      6  C   UNL     1       3.359  -0.357  23.048  0.00  0.00    +0.035 C 
ATOM      7  C   UNL     1       4.171  -0.444  23.167  0.00  0.00    +0.074 C 
ENDBRANCH   8   5
ENDBRANCH   9   8
ENDBRANCH  10   9
TORSDOF 5
ENDMDL
MODEL 4
REMARK VINA RESULT:      -9.6      2.636      4.335
REMARK  Name = 
REMARK  5 active torsions:
REMARK  status: ('A' for Active; 'I' for Inactive)
REMARK    1  A    between atoms: C_5  and  N_8
REMARK    2  A    between atoms: N_8  and  C_9
REMARK    3  A    between atoms: C_9  and  C_10
REMARK    4  A    between atoms: C_17  and  C_18
REMARK    5  A    between atoms: C_20  and  C_25
REMARK                            x       y       z     vdW  Elec       q    Type
REMARK                         _______ _______ _______ _____ _____    ______ ____
ROOT
ATOM     10  C   UNL     1      -0.404   1.844  24.775  0.00  0.00    +0.075 C 
ATOM     11  C   UNL     1      -0.199   1.269  24.291  0.00  0.00    +0.018 C 
ATOM     12  C   UNL     1      -0.436   0.497  24.350  0.00  0.00    +0.010 C 
ATOM     13  C   UNL     1      -0.090  -0.009  23.695  0.00  0.00    +0.018 C 
ATOM     14  C   UNL     1      -0.193   0.543  24.030  0.00  0.00    +0.072 C 
ATOM     15  N   UNL     1      -0.640   1.055  24.828  0.00  0.00    -0.272 NA
ATOM     16  C   UNL     1      -1.178   0.617  25.422  0.00  0.00    +0.078 C 
ATOM     17  C   UNL     1      -0.954   0.083  24.925  0.00  0.00    +0.056 C 
ENDROOT
BRANCH  17  18
ATOM     18  C   UNL     1      -1.157  -0.718  24.928  0.00  0.00    +0.063 A 
ATOM     19  C   UNL     1      -1.911  -0.952  24.689  0.00  0.00    +0.034 A 
ATOM     20  C   UNL     1      -2.113  -1.752  24.692  0.00  0.00    +0.084 A 
ATOM     21  N   UNL     1      -1.562  -2.317  24.933  0.00  0.00    -0.231 NA
ATOM     22  C   UNL     1      -0.809  -2.081  25.172  0.00  0.00    +0.139 A 
ATOM     23  C   UNL     1      -0.257  -2.645  25.414  0.00  0.00    +0.074 C 
ATOM     24  N   UNL     1      -0.606  -1.281  25.169  0.00  0.00    -0.235 NA
BRANCH  20  25
ATOM     25  C   UNL     1      -2.867  -1.988  24.453  0.00  0.00    +0.018 A 
ATOM     26  C   UNL     1      -3.087  -2.781  24.509  0.00  0.00    +0.001 A 
ATOM     27  C   UNL     1      -3.840  -3.017  24.270  0.00  0.00    +0.000 A 
ATOM     28  C   UNL     1      -4.374  -2.460  23.975  0.00  0.00    +0.000 A 
ATOM     29  C   UNL     1      -4.153  -1.668  23.920  0.00  0.00    +0.000 A 
ATOM     30  C   UNL     1      -3.400  -1.431  24.158  0.00  0.00    +0.001 A 
ENDBRANCH  20  25
ENDBRANCH  17  18
BRANCH  10   9
ATOM      9  C   UNL     1      -0.393   2.627  25.032  0.00  0.00    +0.104 C 
BRANCH   9   8
ATOM      8  N   UNL     1      -0.482   3.241  24.489  0.00  0.00    -0.218 NA
BRANCH   8   5
ATOM      1  C   UNL     1      -2.010   6.026  25.384  0.00  0.00    +0.090 C 
ATOM      2  N   UNL     1      -1.628   5.330  25.161  0.00  0.00    -0.271 NA
ATOM      3  C   UNL     1      -0.852   5.356  24.879  0.00  0.00    +0.074 C 
ATOM      4  C   UNL     1      -0.471   4.660  24.656  0.00  0.00    +0.035 C 
ATOM      5  C   UNL     1      -0.864   3.937  24.713  0.00  0.00    +0.076 C 
ATOM      6  C   UNL     1      -1.639   3.911  24.994  0.00  0.00    +0.035 C 
ATOM      7  C   UNL     1      -2.021   4.607  25.218  0.00  0.00    +0.074 C 
ENDBRANCH   8   5
ENDBRANCH   9   8
ENDBRANCH  10   9
TORSDOF 5
ENDMDL
MODEL 5
REMARK VINA RESULT:      -9.2      1.539      2.165
REMARK  Name = 
REMARK  5 active torsions:
REMARK  status: ('A' for Active; 'I' for Inactive)
REMARK    1  A    between atoms: C_5  and  N_8
REMARK    2  A    between atoms: N_8  and  C_9
REMARK    3  A    between atoms: C_9  and  C_10
REMARK    4  A    between atoms: C_17  and  C_18
REMARK    5  A    between atoms: C_20  and  C_25
REMARK                            x       y       z     vdW  Elec       q    Type
REMARK                         _______ _______ _______ _____ _____    ______ ____
ROOT
ATOM     10  C   UNL     1      -0.342   1.005  23.949  0.00  0.00    +0.075 C 
ATOM     11  C   UNL     1      -0.634   1.057  24.668  0.00  0.00    +0.018 C 
ATOM     12  C   UNL     1      -1.214   1.569  24.905  0.00  0.00    +0.010 C 
ATOM     13  C   UNL     1      -1.410   1.472  25.775  0.00  0.00    +0.018 C 
ATOM     14  C   UNL     1      -1.096   1.341  25.218  0.00  0.00    +0.072 C 
ATOM     15  N   UNL     1      -0.933   1.524  24.198  0.00  0.00    -0.272 NA
ATOM     16  C   UNL     1      -1.410   2.164  23.756  0.00  0.00    +0.078 C 
ATOM     17  C   UNL     1      -1.670   2.183  24.474  0.00  0.00    +0.056 C 
ENDROOT
BRANCH  17  18
ATOM     18  C   UNL     1      -2.256   2.677  24.780  0.00  0.00    +0.063 A 
ATOM     19  C   UNL     1      -3.037   2.414  24.821  0.00  0.00    +0.034 A 
ATOM     20  C   UNL     1      -3.622   2.908  25.126  0.00  0.00    +0.084 A 
ATOM     21  N   UNL     1      -3.427   3.665  25.391  0.00  0.00    -0.231 NA
ATOM     22  C   UNL     1      -2.647   3.927  25.349  0.00  0.00    +0.139 A 
ATOM     23  C   UNL     1      -2.451   4.684  25.614  0.00  0.00    +0.074 C 
ATOM     24  N   UNL     1      -2.061   3.433  25.043  0.00  0.00    -0.235 NA
BRANCH  20  25
ATOM     25  C   UNL     1      -4.404   2.646  25.168  0.00  0.00    +0.018 A 
ATOM     26  C   UNL     1      -4.857   2.808  25.838  0.00  0.00    +0.001 A 
ATOM     27  C   UNL     1      -5.638   2.546  25.880  0.00  0.00    +0.000 A 
ATOM     28  C   UNL     1      -5.966   2.122  25.252  0.00  0.00    +0.000 A 
ATOM     29  C   UNL     1      -5.512   1.960  24.583  0.00  0.00    +0.000 A 
ATOM     30  C   UNL     1      -4.730   2.222  24.540  0.00  0.00    +0.001 A 
ENDBRANCH  20  25
ENDBRANCH  17  18
BRANCH  10   9
ATOM      9  C   UNL     1       0.163   0.684  23.381  0.00  0.00    +0.104 C 
BRANCH   9   8
ATOM      8  N   UNL     1       0.819   0.241  23.615  0.00  0.00    -0.218 NA
BRANCH   8   5
ATOM      1  C   UNL     1       3.547   0.231  21.759  0.00  0.00    +0.090 C 
ATOM      2  N   UNL     1       2.865   0.234  22.223  0.00  0.00    -0.271 NA
ATOM      3  C   UNL     1       2.850   0.656  22.932  0.00  0.00    +0.074 C 
ATOM      4  C   UNL     1       2.168   0.658  23.396  0.00  0.00    +0.035 C 
ATOM      5  C   UNL     1       1.501   0.239  23.151  0.00  0.00    +0.076 C 
ATOM      6  C   UNL     1       1.516  -0.183  22.442  0.00  0.00    +0.035 C 
ATOM      7  C   UNL     1       2.198  -0.186  21.978  0.00  0.00    +0.074 C 
ENDBRANCH   8   5
ENDBRANCH   9   8
ENDBRANCH  10   9
TORSDOF 5
ENDMDL
MODEL 6
REMARK VINA RESULT:      -8.7      2.595      4.926
REMARK  Name = 
REMARK  5 active torsions:
REMARK  status: ('A' for Active; 'I' for Inactive)
REMARK    1  A    between atoms: C_5  and  N_8
REMARK    2  A    between atoms: N_8  and  C_9
REMARK    3  A    between atoms: C_9  and  C_10
REMARK    4  A    between atoms: C_17  and  C_18
REMARK    5  A    between atoms: C_20  and  C_25
REMARK                            x       y       z     vdW  Elec       q    Type
REMARK                         _______ _______ _______ _____ _____    ______ ____
ROOT
ATOM     10  C   UNL     1      -1.391  -0.480  24.591  0.00  0.00    +0.075 C 
ATOM     11  C   UNL     1      -0.850   0.010  24.323  0.00  0.00    +0.018 C 
ATOM     12  C   UNL     1      -0.641   0.714  24.664  0.00  0.00    +0.010 C 
ATOM     13  C   UNL     1       0.004   1.131  24.200  0.00  0.00    +0.018 C 
ATOM     14  C   UNL     1      -0.421   0.652  24.330  0.00  0.00    +0.072 C 
ATOM     15  N   UNL     1      -1.173   0.239  24.933  0.00  0.00    -0.272 NA
ATOM     16  C   UNL     1      -1.464   0.674  25.680  0.00  0.00    +0.078 C 
ATOM     17  C   UNL     1      -0.926   1.127  25.384  0.00  0.00    +0.056 C 
ENDROOT
BRANCH  17  18
ATOM     18  C   UNL     1      -0.667   1.853  25.679  0.00  0.00    +0.063 A 
ATOM     19  C   UNL     1      -1.019   2.552  25.420  0.00  0.00    +0.034 A 
ATOM     20  C   UNL     1      -0.760   3.277  25.715  0.00  0.00    +0.084 A 
ATOM     21  N   UNL     1      -0.148   3.303  26.269  0.00  0.00    -0.231 NA
ATOM     22  C   UNL     1       0.204   2.604  26.527  0.00  0.00    +0.139 A 
ATOM     23  C   UNL     1       0.815   2.629  27.080  0.00  0.00    +0.074 C 
ATOM     24  N   UNL     1      -0.056   1.878  26.232  0.00  0.00    -0.235 NA
BRANCH  20  25
ATOM     25  C   UNL     1      -1.112   3.978  25.457  0.00  0.00    +0.018 A 
ATOM     26  C   UNL     1      -0.685   4.505  24.987  0.00  0.00    +0.001 A 
ATOM     27  C   UNL     1      -1.036   5.205  24.729  0.00  0.00    +0.000 A 
ATOM     28  C   UNL     1      -1.815   5.378  24.941  0.00  0.00    +0.000 A 
ATOM     29  C   UNL     1      -2.241   4.851  25.410  0.00  0.00    +0.000 A 
ATOM     30  C   UNL     1      -1.890   4.151  25.669  0.00  0.00    +0.001 A 
ENDBRANCH  20  25
ENDBRANCH  17  18
BRANCH  10   9
ATOM      9  C   UNL     1      -1.836  -1.174  24.560  0.00  0.00    +0.104 C 
BRANCH   9   8
ATOM      8  N   UNL     1      -2.622  -1.172  24.810  0.00  0.00    -0.218 NA
BRANCH   8   5
ATOM      1  C   UNL     1      -4.742  -3.390  23.596  0.00  0.00    +0.090 C 
ATOM      2  N   UNL     1      -4.212  -2.836  23.900  0.00  0.00    -0.271 NA
ATOM      3  C   UNL     1      -4.321  -2.033  23.744  0.00  0.00    +0.074 C 
ATOM      4  C   UNL     1      -3.791  -1.479  24.048  0.00  0.00    +0.035 C 
ATOM      5  C   UNL     1      -3.152  -1.727  24.506  0.00  0.00    +0.076 C 
ATOM      6  C   UNL     1      -3.043  -2.530  24.662  0.00  0.00    +0.035 C 
ATOM      7  C   UNL     1      -3.573  -3.085  24.358  0.00  0.00    +0.074 C 
ENDBRANCH   8   5
ENDBRANCH   9   8
ENDBRANCH  10   9
TORSDOF 5
ENDMDL
MODEL 7
REMARK VINA RESULT:      -8.7      1.428      2.088
REMARK  Name = 
REMARK  5 active torsions:
REMARK  status: ('A' for Active; 'I' for Inactive)
REMARK    1  A    between atoms: C_5  and  N_8
REMARK    2  A    between atoms: N_8  and  C_9
REMARK    3  A    between atoms: C_9  and  C_10
REMARK    4  A    between atoms: C_17  and  C_18
REMARK    5  A    between atoms: C_20  and  C_25
REMARK                            x       y       z     vdW  Elec       q    Type
REMARK                         _______ _______ _______ _____ _____    ______ ____
ROOT
ATOM     10  C   UNL     1       1.315   0.394  23.287  0.00  0.00    +0.075 C 
ATOM     11  C   UNL     1       0.689  -0.050  23.157  0.00  0.00    +0.018 C 
ATOM     12  C   UNL     1      -0.033   0.035  23.514  0.00  0.00    +0.010 C 
ATOM     13  C   UNL     1      -0.621  -0.577  23.227  0.00  0.00    +0.018 C 
ATOM     14  C   UNL     1      -0.043  -0.275  23.255  0.00  0.00    +0.072 C 
ATOM     15  N   UNL     1       0.576   0.475  23.647  0.00  0.00    -0.272 NA
ATOM     16  C   UNL     1       0.261   1.063  24.269  0.00  0.00    +0.078 C 
ATOM     17  C   UNL     1      -0.329   0.604  24.113  0.00  0.00    +0.056 C 
ENDROOT
BRANCH  17  18
ATOM     18  C   UNL     1      -1.086   0.636  24.439  0.00  0.00    +0.063 A 
ATOM     19  C   UNL     1      -1.595   1.255  24.239  0.00  0.00    +0.034 A 
ATOM     20  C   UNL     1      -2.352   1.286  24.565  0.00  0.00    +0.084 A 
ATOM     21  N   UNL     1      -2.600   0.701  25.091  0.00  0.00    -0.231 NA
ATOM     22  C   UNL     1      -2.091   0.084  25.291  0.00  0.00    +0.139 A 
ATOM     23  C   UNL     1      -2.339  -0.502  25.817  0.00  0.00    +0.074 C 
ATOM     24  N   UNL     1      -1.334   0.052  24.964  0.00  0.00    -0.235 NA
BRANCH  20  25
ATOM     25  C   UNL     1      -2.862   1.904  24.366  0.00  0.00    +0.018 A 
ATOM     26  C   UNL     1      -3.297   1.869  23.666  0.00  0.00    +0.001 A 
ATOM     27  C   UNL     1      -3.807   2.486  23.466  0.00  0.00    +0.000 A 
ATOM     28  C   UNL     1      -3.881   3.138  23.966  0.00  0.00    +0.000 A 
ATOM     29  C   UNL     1      -3.445   3.173  24.665  0.00  0.00    +0.000 A 
ATOM     30  C   UNL     1      -2.935   2.556  24.865  0.00  0.00    +0.001 A 
ENDBRANCH  20  25
ENDBRANCH  17  18
BRANCH  10   9
ATOM      9  C   UNL     1       2.100   0.614  23.163  0.00  0.00    +0.104 C 
BRANCH   9   8
ATOM      8  N   UNL     1       2.614   0.102  22.771  0.00  0.00    -0.218 NA
BRANCH   8   5
ATOM      1  C   UNL     1       5.844   0.179  23.442  0.00  0.00    +0.090 C 
ATOM      2  N   UNL     1       5.037   0.160  23.275  0.00  0.00    -0.271 NA
ATOM      3  C   UNL     1       4.595  -0.514  23.451  0.00  0.00    +0.074 C 
ATOM      4  C   UNL     1       3.788  -0.533  23.284  0.00  0.00    +0.035 C 
ATOM      5  C   UNL     1       3.422   0.121  22.939  0.00  0.00    +0.076 C 
ATOM      6  C   UNL     1       3.864   0.795  22.763  0.00  0.00    +0.035 C 
ATOM      7  C   UNL     1       4.672   0.815  22.930  0.00  0.00    +0.074 C 
ENDBRANCH   8   5
ENDBRANCH   9   8
ENDBRANCH  10   9
TORSDOF 5
ENDMDL
MODEL 8
REMARK VINA RESULT:      -7.0     15.608     17.567
REMARK  Name = 
REMARK  5 active torsions:
REMARK  status: ('A' for Active; 'I' for Inactive)
REMARK    1  A    between atoms: C_5  and  N_8
REMARK    2  A    between atoms: N_8  and  C_9
REMARK    3  A    between atoms: C_9  and  C_10
REMARK    4  A    between atoms: C_17  and  C_18
REMARK    5  A    between atoms: C_20  and  C_25
REMARK                            x       y       z     vdW  Elec       q    Type
REMARK                         _______ _______ _______ _____ _____    ______ ____
ROOT
ATOM     10  C   UNL     1      -6.992  -9.687  12.551  0.00  0.00    +0.075 C 
ATOM     11  C   UNL     1      -6.624  -9.149  12.126  0.00  0.00    +0.018 C 
ATOM     12  C   UNL     1      -5.989  -9.283  11.641  0.00  0.00    +0.010 C 
ATOM     13  C   UNL     1      -5.711  -8.531  11.239  0.00  0.00    +0.018 C 
ATOM     14  C   UNL     1      -6.090  -8.891  11.631  0.00  0.00    +0.072 C 
ATOM     15  N   UNL     1      -6.345  -9.816  12.055  0.00  0.00    -0.272 NA
ATOM     16  C   UNL     1      -5.874 -10.570  11.849  0.00  0.00    +0.078 C 
ATOM     17  C   UNL     1      -5.541 -10.012  11.447  0.00  0.00    +0.056 C 
ENDROOT
BRANCH  17  18
ATOM     18  C   UNL     1      -4.895 -10.081  10.938  0.00  0.00    +0.063 A 
ATOM     19  C   UNL     1      -4.132  -9.948  11.221  0.00  0.00    +0.034 A 
ATOM     20  C   UNL     1      -3.487 -10.017  10.712  0.00  0.00    +0.084 A 
ATOM     21  N   UNL     1      -3.604 -10.218   9.920  0.00  0.00    -0.231 NA
ATOM     22  C   UNL     1      -4.368 -10.351   9.638  0.00  0.00    +0.139 A 
ATOM     23  C   UNL     1      -4.486 -10.552   8.847  0.00  0.00    +0.074 C 
ATOM     24  N   UNL     1      -5.014 -10.282  10.148  0.00  0.00    -0.235 NA
BRANCH  20  25
ATOM     25  C   UNL     1      -2.722  -9.884  10.994  0.00  0.00    +0.018 A 
ATOM     26  C   UNL     1      -2.279  -9.253  10.700  0.00  0.00    +0.001 A 
ATOM     27  C   UNL     1      -1.515  -9.120  10.981  0.00  0.00    +0.000 A 
ATOM     28  C   UNL     1      -1.195  -9.618  11.556  0.00  0.00    +0.000 A 
ATOM     29  C   UNL     1      -1.638 -10.248  11.849  0.00  0.00    +0.000 A 
ATOM     30  C   UNL     1      -2.402 -10.382  11.568  0.00  0.00    +0.001 A 
ENDBRANCH  20  25
ENDBRANCH  17  18
BRANCH  10   9
ATOM      9  C   UNL     1      -7.572  -9.935  13.081  0.00  0.00    +0.104 C 
BRANCH   9   8
ATOM      8  N   UNL     1      -8.077  -9.383  13.428  0.00  0.00    -0.218 NA
BRANCH   8   5
ATOM      1  C   UNL     1     -10.431 -10.384  15.513  0.00  0.00    +0.090 C 
ATOM      2  N   UNL     1      -9.842 -10.134  14.993  0.00  0.00    -0.271 NA
ATOM      3  C   UNL     1     -10.014 -10.038  14.191  0.00  0.00    +0.074 C 
ATOM      4  C   UNL     1      -9.426  -9.788  13.670  0.00  0.00    +0.035 C 
ATOM      5  C   UNL     1      -8.666  -9.633  13.950  0.00  0.00    +0.076 C 
ATOM      6  C   UNL     1      -8.494  -9.728  14.751  0.00  0.00    +0.035 C 
ATOM      7  C   UNL     1      -9.082  -9.979  15.273  0.00  0.00    +0.074 C 
ENDBRANCH   8   5
ENDBRANCH   9   8
ENDBRANCH  10   9
TORSDOF 5
ENDMDL
MODEL 9
REMARK VINA RESULT:      -7.0     15.637     16.888
REMARK  Name = 
REMARK  5 active torsions:
REMARK  status: ('A' for Active; 'I' for Inactive)
REMARK    1  A    between atoms: C_5  and  N_8
REMARK    2  A    between atoms: N_8  and  C_9
REMARK    3  A    between atoms: C_9  and  C_10
REMARK    4  A    between atoms: C_17  and  C_18
REMARK    5  A    between atoms: C_20  and  C_25
REMARK                            x       y       z     vdW  Elec       q    Type
REMARK                         _______ _______ _______ _____ _____    ______ ____
ROOT
ATOM     10  C   UNL     1      -2.469 -10.336  12.238  0.00  0.00    +0.075 C 
ATOM     11  C   UNL     1      -2.401  -9.915  11.588  0.00  0.00    +0.018 C 
ATOM     12  C   UNL     1      -2.943  -9.884  10.987  0.00  0.00    +0.010 C 
ATOM     13  C   UNL     1      -2.677  -9.340  10.325  0.00  0.00    +0.018 C 
ATOM     14  C   UNL     1      -2.627  -9.646  10.900  0.00  0.00    +0.072 C 
ATOM     15  N   UNL     1      -3.016 -10.299  11.622  0.00  0.00    -0.272 NA
ATOM     16  C   UNL     1      -3.824 -10.706  11.498  0.00  0.00    +0.078 C 
ATOM     17  C   UNL     1      -3.719 -10.278  10.874  0.00  0.00    +0.056 C 
ENDROOT
BRANCH  17  18
ATOM     18  C   UNL     1      -4.228 -10.202  10.229  0.00  0.00    +0.063 A 
ATOM     19  C   UNL     1      -4.946  -9.805  10.315  0.00  0.00    +0.034 A 
ATOM     20  C   UNL     1      -5.454  -9.730   9.670  0.00  0.00    +0.084 A 
ATOM     21  N   UNL     1      -5.246 -10.051   8.940  0.00  0.00    -0.231 NA
ATOM     22  C   UNL     1      -4.528 -10.448   8.854  0.00  0.00    +0.139 A 
ATOM     23  C   UNL     1      -4.319 -10.769   8.124  0.00  0.00    +0.074 C 
ATOM     24  N   UNL     1      -4.019 -10.524   9.499  0.00  0.00    -0.235 NA
BRANCH  20  25
ATOM     25  C   UNL     1      -6.173  -9.332   9.756  0.00  0.00    +0.018 A 
ATOM     26  C   UNL     1      -6.807  -9.704  10.131  0.00  0.00    +0.001 A 
ATOM     27  C   UNL     1      -7.525  -9.308  10.216  0.00  0.00    +0.000 A 
ATOM     28  C   UNL     1      -7.609  -8.539   9.926  0.00  0.00    +0.000 A 
ATOM     29  C   UNL     1      -6.976  -8.169   9.552  0.00  0.00    +0.000 A 
ATOM     30  C   UNL     1      -6.257  -8.565   9.466  0.00  0.00    +0.001 A 
ENDBRANCH  20  25
ENDBRANCH  17  18
BRANCH  10   9
ATOM      9  C   UNL     1      -2.203 -10.607  12.971  0.00  0.00    +0.104 C 
BRANCH   9   8
ATOM      8  N   UNL     1      -1.764 -10.109  13.460  0.00  0.00    -0.218 NA
BRANCH   8   5
ATOM      1  C   UNL     1      -1.571 -10.733  16.695  0.00  0.00    +0.090 C 
ATOM      2  N   UNL     1      -1.619 -10.577  15.887  0.00  0.00    -0.271 NA
ATOM      3  C   UNL     1      -2.300 -10.781  15.467  0.00  0.00    +0.074 C 
ATOM      4  C   UNL     1      -2.348 -10.625  14.658  0.00  0.00    +0.035 C 
ATOM      5  C   UNL     1      -1.716 -10.265  14.269  0.00  0.00    +0.076 C 
ATOM      6  C   UNL     1      -1.036 -10.061  14.689  0.00  0.00    +0.035 C 
ATOM      7  C   UNL     1      -0.987 -10.217  15.498  0.00  0.00    +0.074 C 
ENDBRANCH   8   5
ENDBRANCH   9   8
ENDBRANCH  10   9
TORSDOF 5
ENDMDL
MODEL 10
REMARK VINA RESULT:      -6.8     13.377     14.125
REMARK  Name = 
REMARK  5 active torsions:
REMARK  status: ('A' for Active; 'I' for Inactive)
REMARK    1  A    between atoms: C_5  and  N_8
REMARK    2  A    between atoms: N_8  and  C_9
REMARK    3  A    between atoms: C_9  and  C_10
REMARK    4  A    between atoms: C_17  and  C_18
REMARK    5  A    between atoms: C_20  and  C_25
REMARK                            x       y       z     vdW  Elec       q    Type
REMARK                         _______ _______ _______ _____ _____    ______ ____
ROOT
ATOM     10  C   UNL     1      -5.640 -10.656  16.017  0.00  0.00    +0.075 C 
ATOM     11  C   UNL     1      -6.318 -10.765  15.651  0.00  0.00    +0.018 C 
ATOM     12  C   UNL     1      -7.046 -10.554  15.936  0.00  0.00    +0.010 C 
ATOM     13  C   UNL     1      -7.703 -10.764  15.363  0.00  0.00    +0.018 C 
ATOM     14  C   UNL     1      -7.085 -10.726  15.572  0.00  0.00    +0.072 C 
ATOM     15  N   UNL     1      -6.385 -10.444  16.300  0.00  0.00    -0.272 NA
ATOM     16  C   UNL     1      -6.652 -10.043  17.075  0.00  0.00    +0.078 C 
ATOM     17  C   UNL     1      -7.296 -10.168  16.684  0.00  0.00    +0.056 C 
ENDROOT
BRANCH  17  18
ATOM     18  C   UNL     1      -8.065  -9.978  16.915  0.00  0.00    +0.063 A 
ATOM     19  C   UNL     1      -8.425  -9.294  16.628  0.00  0.00    +0.034 A 
ATOM     20  C   UNL     1      -9.194  -9.105  16.859  0.00  0.00    +0.084 A 
ATOM     21  N   UNL     1      -9.603  -9.600  17.377  0.00  0.00    -0.231 NA
ATOM     22  C   UNL     1      -9.242 -10.284  17.664  0.00  0.00    +0.139 A 
ATOM     23  C   UNL     1      -9.651 -10.780  18.182  0.00  0.00    +0.074 C 
ATOM     24  N   UNL     1      -8.473 -10.473  17.433  0.00  0.00    -0.235 NA
BRANCH  20  25
ATOM     25  C   UNL     1      -9.555  -8.420  16.573  0.00  0.00    +0.018 A 
ATOM     26  C   UNL     1      -9.738  -7.804  17.090  0.00  0.00    +0.001 A 
ATOM     27  C   UNL     1     -10.099  -7.120  16.804  0.00  0.00    +0.000 A 
ATOM     28  C   UNL     1     -10.277  -7.052  16.001  0.00  0.00    +0.000 A 
ATOM     29  C   UNL     1     -10.093  -7.667  15.485  0.00  0.00    +0.000 A 
ATOM     30  C   UNL     1      -9.732  -8.352  15.770  0.00  0.00    +0.001 A 
ENDBRANCH  20  25
ENDBRANCH  17  18
BRANCH  10   9
ATOM      9  C   UNL     1      -4.819 -10.711  16.075  0.00  0.00    +0.104 C 
BRANCH   9   8
ATOM      8  N   UNL     1      -4.349 -10.606  15.405  0.00  0.00    -0.218 NA
BRANCH   8   5
ATOM      1  C   UNL     1      -1.063 -10.781  15.650  0.00  0.00    +0.090 C 
ATOM      2  N   UNL     1      -1.885 -10.737  15.589  0.00  0.00    -0.271 NA
ATOM      3  C   UNL     1      -2.246 -10.779  14.848  0.00  0.00    +0.074 C 
ATOM      4  C   UNL     1      -3.068 -10.736  14.788  0.00  0.00    +0.035 C 
ATOM      5  C   UNL     1      -3.528 -10.649  15.467  0.00  0.00    +0.076 C 
ATOM      6  C   UNL     1      -3.166 -10.607  16.207  0.00  0.00    +0.035 C 
ATOM      7  C   UNL     1      -2.345 -10.651  16.268  0.00  0.00    +0.074 C 
ENDBRANCH   8   5
ENDBRANCH   9   8
ENDBRANCH  10   9
TORSDOF 5
ENDMDL
