REMARK  Name = 
REMARK  7 active torsions:
REMARK  status: ('A' for Active; 'I' for Inactive)
REMARK    1  A    between atoms: C_2  and  C_4
REMARK    2  A    between atoms: C_4  and  C_5
REMARK    3  A    between atoms: C_10  and  C_11
REMARK    4  A    between atoms: C_11  and  C_12
REMARK    5  A    between atoms: C_22  and  C_24
REMARK    6  A    between atoms: C_24  and  C_25
REMARK    7  A    between atoms: C_25  and  C_26
REMARK                            x       y       z     vdW  Elec       q    Type
REMARK                         _______ _______ _______ _____ _____    ______ ____
ROOT
ATOM      5  C   UNL     1      -1.429   0.825   0.000  0.00  0.00    +0.015 C 
ATOM      6  C   UNL     1      -2.143   1.238   0.000  0.00  0.00    +0.022 C 
ATOM      7  C   UNL     1      -2.143   2.062   0.000  0.00  0.00    +0.093 C 
ATOM      8  N   UNL     1      -1.429   2.475   0.000  0.00  0.00    -0.280 N 
ATOM      9  C   UNL     1      -0.715   2.062   0.000  0.00  0.00    +0.094 C 
ATOM     10  C   UNL     1      -0.715   1.238   0.000  0.00  0.00    +0.026 C 
ATOM     22  C   UNL     1      -1.429   3.300   0.000  0.00  0.00    +0.226 C 
ATOM     23  O   UNL     1      -2.143   3.712   0.000  0.00  0.00    -0.275 OA
ENDROOT
BRANCH   5   4
ATOM      4  C   UNL     1      -1.429   0.000   0.000  0.00  0.00    +0.114 C 
BRANCH   4   2
ATOM      1  O   UNL     1      -2.858   0.000   0.000  0.00  0.00    -0.246 OA
ATOM      2  C   UNL     1      -2.143  -0.412   0.000  0.00  0.00    +0.365 C 
ATOM      3  O   UNL     1      -2.143  -1.238   0.000  0.00  0.00    -0.246 OA
ENDBRANCH   4   2
ENDBRANCH   5   4
BRANCH  10  11
ATOM     11  C   UNL     1       0.000   0.825   0.000  0.00  0.00    +0.047 C 
BRANCH  11  12
ATOM     12  C   UNL     1       0.000   0.000   0.000  0.00  0.00    +0.053 C 
ATOM     13  N   UNL     1      -0.715  -0.412   0.000  0.00  0.00    -0.274 NA
ATOM     14  C   UNL     1      -0.715  -1.238   0.000  0.00  0.00    +0.130 C 
ATOM     15  C   UNL     1       0.000  -1.650   0.000  0.00  0.00    +0.053 C 
ATOM     16  C   UNL     1       0.715  -1.238   0.000  0.00  0.00    -0.019 A 
ATOM     17  C   UNL     1       0.715  -0.412   0.000  0.00  0.00    +0.009 A 
ATOM     18  C   UNL     1       1.429   0.000   0.000  0.00  0.00    +0.001 A 
ATOM     19  C   UNL     1       2.143  -0.412   0.000  0.00  0.00    +0.000 A 
ATOM     20  C   UNL     1       2.143  -1.238   0.000  0.00  0.00    -0.000 A 
ATOM     21  C   UNL     1       1.429  -1.650   0.000  0.00  0.00    -0.004 A 
ENDBRANCH  11  12
ENDBRANCH  10  11
BRANCH  22  24
ATOM     24  C   UNL     1      -0.715   3.712   0.000  0.00  0.00    +0.090 C 
BRANCH  24  25
ATOM     25  C   UNL     1      -0.715   4.537   0.000  0.00  0.00    +0.036 C 
BRANCH  25  26
ATOM     26  C   UNL     1       0.000   4.950   0.000  0.00  0.00    -0.022 A 
ATOM     27  C   UNL     1       0.000   5.775   0.000  0.00  0.00    -0.004 A 
ATOM     28  C   UNL     1       0.715   6.188   0.000  0.00  0.00    -0.000 A 
ATOM     29  C   UNL     1       1.429   5.775   0.000  0.00  0.00    -0.000 A 
ATOM     30  C   UNL     1       1.429   4.950   0.000  0.00  0.00    -0.000 A 
ATOM     31  C   UNL     1       0.715   4.537   0.000  0.00  0.00    -0.004 A 
ENDBRANCH  25  26
ENDBRANCH  24  25
ENDBRANCH  22  24
TORSDOF 7
