MODEL 1
REMARK VINA RESULT:      -8.7      0.000      0.000
REMARK  Name = 
REMARK  8 active torsions:
REMARK  status: ('A' for Active; 'I' for Inactive)
REMARK    1  A    between atoms: S_2  and  C_4
REMARK    2  A    between atoms: S_2  and  N_11
REMARK    3  A    between atoms: C_4  and  C_5
REMARK    4  A    between atoms: N_11  and  C_12
REMARK    5  A    between atoms: C_16  and  N_20
REMARK    6  A    between atoms: C_24  and  O_25
REMARK    7  A    between atoms: O_25  and  C_26
REMARK    8  A    between atoms: C_29  and  N_32
REMARK                            x       y       z     vdW  Elec       q    Type
REMARK                         _______ _______ _______ _____ _____    ______ ____
ROOT
ATOM     12  C   UNL     1       1.255   0.236  23.115  0.00  0.00    +0.156 C 
ATOM     13  C   UNL     1       0.913  -0.436  22.780  0.00  0.00    +0.164 C 
ATOM     14  O   UNL     1       0.173  -0.544  23.126  0.00  0.00    -0.350 OA
ATOM     15  C   UNL     1       0.056   0.061  23.674  0.00  0.00    +0.169 C 
ATOM     16  C   UNL     1      -0.473   0.368  24.228  0.00  0.00    +0.170 C 
ATOM     17  C   UNL     1      -0.131   1.040  24.563  0.00  0.00    +0.169 C 
ATOM     18  O   UNL     1       0.610   1.148  24.216  0.00  0.00    -0.350 OA
ATOM     19  C   UNL     1       0.726   0.543  23.667  0.00  0.00    +0.164 C 
ENDROOT
BRANCH  16  20
ATOM     20  N   UNL     1      -1.214   0.058  24.413  0.00  0.00    -0.180 N 
ATOM     21  N   UNL     1      -1.368  -0.712  24.668  0.00  0.00    -0.040 NA
ATOM     22  N   UNL     1      -2.181  -0.783  24.789  0.00  0.00    -0.020 NA
ATOM     23  N   UNL     1      -2.529  -0.057  24.609  0.00  0.00    -0.071 NA
ATOM     24  C   UNL     1      -1.932   0.462  24.377  0.00  0.00    +0.343 A 
BRANCH  24  25
ATOM     25  O   UNL     1      -2.035   1.249  24.149  0.00  0.00    -0.421 OA
BRANCH  25  26
ATOM     26  C   UNL     1      -2.692   1.672  24.413  0.00  0.00    +0.149 A 
ATOM     27  C   UNL     1      -3.385   1.678  23.966  0.00  0.00    +0.039 A 
ATOM     28  C   UNL     1      -4.042   2.101  24.229  0.00  0.00    +0.021 A 
ATOM     29  C   UNL     1      -4.006   2.519  24.940  0.00  0.00    +0.066 A 
ATOM     30  C   UNL     1      -3.312   2.513  25.387  0.00  0.00    +0.021 A 
ATOM     31  C   UNL     1      -2.656   2.089  25.123  0.00  0.00    +0.039 A 
BRANCH  29  32
ATOM     32  N   UNL     1      -4.663   2.943  25.204  0.00  0.00    -0.286 N 
ATOM     33  C   UNL     1      -4.756   3.762  25.170  0.00  0.00    +0.102 A 
ATOM     34  C   UNL     1      -5.492   3.949  25.494  0.00  0.00    +0.120 A 
ATOM     35  N   UNL     1      -5.853   3.244  25.728  0.00  0.00    -0.222 NA
ATOM     36  C   UNL     1      -5.340   2.623  25.549  0.00  0.00    +0.183 A 
ENDBRANCH  29  32
ENDBRANCH  25  26
ENDBRANCH  24  25
ENDBRANCH  16  20
BRANCH  12  11
ATOM     11  N   UNL     1       1.997   0.547  22.929  0.00  0.00    -0.078 NA
BRANCH  11   2
ATOM      1  O   UNL     1       2.163   0.054  21.884  0.00  0.00    -0.156 OA
ATOM      2  S   UNL     1       2.577   0.062  22.598  0.00  0.00    +0.062 S 
ATOM      3  O   UNL     1       3.156  -0.424  22.267  0.00  0.00    -0.156 OA
BRANCH   2   4
ATOM      4  C   UNL     1       2.991   0.069  23.312  0.00  0.00    +0.197 C 
BRANCH   4   5
ATOM      5  C   UNL     1       3.814   0.104  23.310  0.00  0.00    +0.003 A 
ATOM      6  C   UNL     1       4.256  -0.547  23.560  0.00  0.00    -0.003 A 
ATOM      7  C   UNL     1       5.079  -0.512  23.558  0.00  0.00    -0.000 A 
ATOM      8  C   UNL     1       5.463   0.174  23.306  0.00  0.00    -0.000 A 
ATOM      9  C   UNL     1       5.022   0.825  23.056  0.00  0.00    -0.000 A 
ATOM     10  C   UNL     1       4.198   0.790  23.058  0.00  0.00    -0.003 A 
ENDBRANCH   4   5
ENDBRANCH   2   4
ENDBRANCH  11   2
ENDBRANCH  12  11
TORSDOF 8
ENDMDL
MODEL 2
REMARK VINA RESULT:      -8.7      1.913      6.971
REMARK  Name = 
REMARK  8 active torsions:
REMARK  status: ('A' for Active; 'I' for Inactive)
REMARK    1  A    between atoms: S_2  and  C_4
REMARK    2  A    between atoms: S_2  and  N_11
REMARK    3  A    between atoms: C_4  and  C_5
REMARK    4  A    between atoms: N_11  and  C_12
REMARK    5  A    between atoms: C_16  and  N_20
REMARK    6  A    between atoms: C_24  and  O_25
REMARK    7  A    between atoms: O_25  and  C_26
REMARK    8  A    between atoms: C_29  and  N_32
REMARK                            x       y       z     vdW  Elec       q    Type
REMARK                         _______ _______ _______ _____ _____    ______ ____
ROOT
ATOM     12  C   UNL     1      -3.328   0.686  24.891  0.00  0.00    +0.156 C 
ATOM     13  C   UNL     1      -3.492   0.010  24.447  0.00  0.00    +0.164 C 
ATOM     14  O   UNL     1      -2.802  -0.438  24.400  0.00  0.00    -0.350 OA
ATOM     15  C   UNL     1      -2.211  -0.040  24.815  0.00  0.00    +0.169 C 
ATOM     16  C   UNL     1      -1.418  -0.070  25.043  0.00  0.00    +0.170 C 
ATOM     17  C   UNL     1      -1.254   0.605  25.487  0.00  0.00    +0.169 C 
ATOM     18  O   UNL     1      -1.945   1.053  25.534  0.00  0.00    -0.350 OA
ATOM     19  C   UNL     1      -2.536   0.654  25.119  0.00  0.00    +0.164 C 
ENDROOT
BRANCH  16  20
ATOM     20  N   UNL     1      -0.884  -0.672  24.859  0.00  0.00    -0.180 N 
ATOM     21  N   UNL     1      -0.838  -1.410  25.225  0.00  0.00    -0.040 NA
ATOM     22  N   UNL     1      -0.228  -1.834  24.869  0.00  0.00    -0.020 NA
ATOM     23  N   UNL     1       0.104  -1.359  24.282  0.00  0.00    -0.071 NA
ATOM     24  C   UNL     1      -0.301  -0.640  24.276  0.00  0.00    +0.343 A 
BRANCH  24  25
ATOM     25  O   UNL     1      -0.150  -0.002  23.775  0.00  0.00    -0.421 OA
BRANCH  25  26
ATOM     26  C   UNL     1       0.611   0.117  23.476  0.00  0.00    +0.149 A 
ATOM     27  C   UNL     1       1.093   0.703  23.798  0.00  0.00    +0.039 A 
ATOM     28  C   UNL     1       1.852   0.822  23.500  0.00  0.00    +0.021 A 
ATOM     29  C   UNL     1       2.130   0.355  22.879  0.00  0.00    +0.066 A 
ATOM     30  C   UNL     1       1.647  -0.232  22.557  0.00  0.00    +0.021 A 
ATOM     31  C   UNL     1       0.887  -0.351  22.856  0.00  0.00    +0.039 A 
BRANCH  29  32
ATOM     32  N   UNL     1       2.890   0.473  22.580  0.00  0.00    -0.286 N 
ATOM     33  C   UNL     1       3.503   0.871  22.962  0.00  0.00    +0.102 A 
ATOM     34  C   UNL     1       4.163   0.859  22.466  0.00  0.00    +0.120 A 
ATOM     35  N   UNL     1       3.955   0.453  21.778  0.00  0.00    -0.222 NA
ATOM     36  C   UNL     1       3.169   0.215  21.849  0.00  0.00    +0.183 A 
ENDBRANCH  29  32
ENDBRANCH  25  26
ENDBRANCH  24  25
ENDBRANCH  16  20
BRANCH  12  11
ATOM     11  N   UNL     1      -3.863   1.287  25.076  0.00  0.00    -0.078 NA
BRANCH  11   2
ATOM      1  O   UNL     1      -4.687   0.479  25.245  0.00  0.00    -0.156 OA
ATOM      2  S   UNL     1      -4.657   1.211  24.866  0.00  0.00    +0.062 S 
ATOM      3  O   UNL     1      -5.451   1.135  24.657  0.00  0.00    -0.156 OA
BRANCH   2   4
ATOM      4  C   UNL     1      -4.628   1.944  24.488  0.00  0.00    +0.197 C 
BRANCH   4   5
ATOM      5  C   UNL     1      -4.923   2.615  24.865  0.00  0.00    +0.003 A 
ATOM      6  C   UNL     1      -4.516   3.331  24.809  0.00  0.00    -0.003 A 
ATOM      7  C   UNL     1      -4.812   4.002  25.186  0.00  0.00    -0.000 A 
ATOM      8  C   UNL     1      -5.512   3.959  25.619  0.00  0.00    -0.000 A 
ATOM      9  C   UNL     1      -5.919   3.243  25.675  0.00  0.00    -0.000 A 
ATOM     10  C   UNL     1      -5.624   2.571  25.298  0.00  0.00    -0.003 A 
ENDBRANCH   4   5
ENDBRANCH   2   4
ENDBRANCH  11   2
ENDBRANCH  12  11
TORSDOF 8
ENDMDL
MODEL 3
REMARK VINA RESULT:      -8.2      2.760      4.362
REMARK  Name = 
REMARK  8 active torsions:
REMARK  status: ('A' for Active; 'I' for Inactive)
REMARK    1  A    between atoms: S_2  and  C_4
REMARK    2  A    between atoms: S_2  and  N_11
REMARK    3  A    between atoms: C_4  and  C_5
REMARK    4  A    between atoms: N_11  and  C_12
REMARK    5  A    between atoms: C_16  and  N_20
REMARK    6  A    between atoms: C_24  and  O_25
REMARK    7  A    between atoms: O_25  and  C_26
REMARK    8  A    between atoms: C_29  and  N_32
REMARK                            x       y       z     vdW  Elec       q    Type
REMARK                         _______ _______ _______ _____ _____    ______ ____
ROOT
ATOM     12  C   UNL     1      -0.773  -0.358  24.929  0.00  0.00    +0.156 C 
ATOM     13  C   UNL     1      -0.975  -0.165  25.704  0.00  0.00    +0.164 C 
ATOM     14  O   UNL     1      -0.905   0.652  25.790  0.00  0.00    -0.350 OA
ATOM     15  C   UNL     1      -0.660   0.964  25.068  0.00  0.00    +0.169 C 
ATOM     16  C   UNL     1      -0.465   1.662  24.673  0.00  0.00    +0.170 C 
ATOM     17  C   UNL     1      -0.262   1.470  23.897  0.00  0.00    +0.169 C 
ATOM     18  O   UNL     1      -0.332   0.652  23.812  0.00  0.00    -0.350 OA
ATOM     19  C   UNL     1      -0.578   0.340  24.535  0.00  0.00    +0.164 C 
ENDROOT
BRANCH  16  20
ATOM     20  N   UNL     1      -0.471   2.421  24.999  0.00  0.00    -0.180 N 
ATOM     21  N   UNL     1       0.064   2.715  25.555  0.00  0.00    -0.040 NA
ATOM     22  N   UNL     1      -0.148   3.493  25.725  0.00  0.00    -0.020 NA
ATOM     23  N   UNL     1      -0.813   3.681  25.275  0.00  0.00    -0.071 NA
ATOM     24  C   UNL     1      -1.012   3.018  24.826  0.00  0.00    +0.343 A 
BRANCH  24  25
ATOM     25  O   UNL     1      -1.643   2.962  24.297  0.00  0.00    -0.421 OA
BRANCH  25  26
ATOM     26  C   UNL     1      -2.415   3.097  24.559  0.00  0.00    +0.149 A 
ATOM     27  C   UNL     1      -2.563   3.685  25.117  0.00  0.00    +0.039 A 
ATOM     28  C   UNL     1      -3.334   3.821  25.379  0.00  0.00    +0.021 A 
ATOM     29  C   UNL     1      -3.956   3.367  25.082  0.00  0.00    +0.066 A 
ATOM     30  C   UNL     1      -3.807   2.778  24.523  0.00  0.00    +0.021 A 
ATOM     31  C   UNL     1      -3.036   2.644  24.262  0.00  0.00    +0.039 A 
BRANCH  29  32
ATOM     32  N   UNL     1      -4.727   3.501  25.343  0.00  0.00    -0.286 N 
ATOM     33  C   UNL     1      -5.269   2.922  25.570  0.00  0.00    +0.102 A 
ATOM     34  C   UNL     1      -5.969   3.300  25.790  0.00  0.00    +0.120 A 
ATOM     35  N   UNL     1      -5.858   4.112  25.700  0.00  0.00    -0.222 NA
ATOM     36  C   UNL     1      -5.091   4.236  25.424  0.00  0.00    +0.183 A 
ENDBRANCH  29  32
ENDBRANCH  25  26
ENDBRANCH  24  25
ENDBRANCH  16  20
BRANCH  12  11
ATOM     11  N   UNL     1      -0.767  -1.116  24.603  0.00  0.00    -0.078 NA
BRANCH  11   2
ATOM      1  O   UNL     1      -0.750  -1.672  25.629  0.00  0.00    -0.156 OA
ATOM      2  S   UNL     1      -1.214  -1.718  24.948  0.00  0.00    +0.062 S 
ATOM      3  O   UNL     1      -1.661  -2.319  25.294  0.00  0.00    -0.156 OA
BRANCH   2   4
ATOM      4  C   UNL     1      -1.679  -1.764  24.268  0.00  0.00    +0.197 C 
BRANCH   4   5
ATOM      5  C   UNL     1      -2.416  -2.131  24.297  0.00  0.00    +0.003 A 
ATOM      6  C   UNL     1      -3.105  -1.675  24.289  0.00  0.00    -0.003 A 
ATOM      7  C   UNL     1      -3.842  -2.042  24.318  0.00  0.00    -0.000 A 
ATOM      8  C   UNL     1      -3.893  -2.865  24.355  0.00  0.00    -0.000 A 
ATOM      9  C   UNL     1      -3.206  -3.321  24.363  0.00  0.00    -0.000 A 
ATOM     10  C   UNL     1      -2.467  -2.954  24.334  0.00  0.00    -0.003 A 
ENDBRANCH   4   5
ENDBRANCH   2   4
ENDBRANCH  11   2
ENDBRANCH  12  11
TORSDOF 8
ENDMDL
MODEL 4
REMARK VINA RESULT:      -7.1      3.062      6.126
REMARK  Name = 
REMARK  8 active torsions:
REMARK  status: ('A' for Active; 'I' for Inactive)
REMARK    1  A    between atoms: S_2  and  C_4
REMARK    2  A    between atoms: S_2  and  N_11
REMARK    3  A    between atoms: C_4  and  C_5
REMARK    4  A    between atoms: N_11  and  C_12
REMARK    5  A    between atoms: C_16  and  N_20
REMARK    6  A    between atoms: C_24  and  O_25
REMARK    7  A    between atoms: O_25  and  C_26
REMARK    8  A    between atoms: C_29  and  N_32
REMARK                            x       y       z     vdW  Elec       q    Type
REMARK                         _______ _______ _______ _____ _____    ______ ____
ROOT
ATOM     12  C   UNL     1      -2.075   2.867  24.517  0.00  0.00    +0.156 C 
ATOM     13  C   UNL     1      -2.203   2.568  23.759  0.00  0.00    +0.164 C 
ATOM     14  O   UNL     1      -1.683   1.937  23.644  0.00  0.00    -0.350 OA
ATOM     15  C   UNL     1      -1.235   1.847  24.330  0.00  0.00    +0.169 C 
ATOM     16  C   UNL     1      -0.637   1.402  24.683  0.00  0.00    +0.170 C 
ATOM     17  C   UNL     1      -0.510   1.701  25.441  0.00  0.00    +0.169 C 
ATOM     18  O   UNL     1      -1.029   2.331  25.557  0.00  0.00    -0.350 OA
ATOM     19  C   UNL     1      -1.478   2.422  24.869  0.00  0.00    +0.164 C 
ENDROOT
BRANCH  16  20
ATOM     20  N   UNL     1      -0.237   0.768  24.339  0.00  0.00    -0.180 N 
ATOM     21  N   UNL     1       0.304   0.816  23.717  0.00  0.00    -0.040 NA
ATOM     22  N   UNL     1       0.568   0.053  23.550  0.00  0.00    -0.020 NA
ATOM     23  N   UNL     1       0.191  -0.467  24.067  0.00  0.00    -0.071 NA
ATOM     24  C   UNL     1      -0.307  -0.025  24.554  0.00  0.00    +0.343 A 
BRANCH  24  25
ATOM     25  O   UNL     1      -0.790  -0.324  25.153  0.00  0.00    -0.421 OA
BRANCH  25  26
ATOM     26  C   UNL     1      -1.386  -0.865  24.971  0.00  0.00    +0.149 A 
ATOM     27  C   UNL     1      -1.219  -1.517  24.495  0.00  0.00    +0.039 A 
ATOM     28  C   UNL     1      -1.814  -2.059  24.313  0.00  0.00    +0.021 A 
ATOM     29  C   UNL     1      -2.577  -1.947  24.607  0.00  0.00    +0.066 A 
ATOM     30  C   UNL     1      -2.744  -1.294  25.084  0.00  0.00    +0.021 A 
ATOM     31  C   UNL     1      -2.148  -0.754  25.265  0.00  0.00    +0.039 A 
BRANCH  29  32
ATOM     32  N   UNL     1      -3.173  -2.488  24.426  0.00  0.00    -0.286 N 
ATOM     33  C   UNL     1      -3.834  -2.340  23.955  0.00  0.00    +0.102 A 
ATOM     34  C   UNL     1      -4.283  -3.031  23.920  0.00  0.00    +0.120 A 
ATOM     35  N   UNL     1      -3.899  -3.606  24.370  0.00  0.00    -0.222 NA
ATOM     36  C   UNL     1      -3.213  -3.270  24.682  0.00  0.00    +0.183 A 
ENDBRANCH  29  32
ENDBRANCH  25  26
ENDBRANCH  24  25
ENDBRANCH  16  20
BRANCH  12  11
ATOM     11  N   UNL     1      -2.476   3.501  24.862  0.00  0.00    -0.078 NA
BRANCH  11   2
ATOM      1  O   UNL     1      -2.938   3.884  23.861  0.00  0.00    -0.156 OA
ATOM      2  S   UNL     1      -3.236   3.696  24.608  0.00  0.00    +0.062 S 
ATOM      3  O   UNL     1      -3.996   3.892  24.353  0.00  0.00    -0.156 OA
BRANCH   2   4
ATOM      4  C   UNL     1      -3.535   3.508  25.353  0.00  0.00    +0.197 C 
BRANCH   4   5
ATOM      5  C   UNL     1      -4.346   3.411  25.460  0.00  0.00    +0.003 A 
ATOM      6  C   UNL     1      -4.678   2.655  25.436  0.00  0.00    -0.003 A 
ATOM      7  C   UNL     1      -5.489   2.558  25.542  0.00  0.00    -0.000 A 
ATOM      8  C   UNL     1      -5.971   3.215  25.672  0.00  0.00    -0.000 A 
ATOM      9  C   UNL     1      -5.640   3.970  25.696  0.00  0.00    -0.000 A 
ATOM     10  C   UNL     1      -4.828   4.068  25.590  0.00  0.00    -0.003 A 
ENDBRANCH   4   5
ENDBRANCH   2   4
ENDBRANCH  11   2
ENDBRANCH  12  11
TORSDOF 8
ENDMDL
