MODEL 1
REMARK VINA RESULT:     -10.4      0.000      0.000
REMARK  Name = 
REMARK  7 active torsions:
REMARK  status: ('A' for Active; 'I' for Inactive)
REMARK    1  A    between atoms: C_2  and  N_4
REMARK    2  A    between atoms: N_7  and  C_8
REMARK    3  A    between atoms: C_8  and  C_9
REMARK    4  A    between atoms: C_11  and  C_12
REMARK    5  A    between atoms: C_12  and  C_13
REMARK    6  A    between atoms: N_15  and  C_16
REMARK    7  A    between atoms: C_16  and  C_17
REMARK                            x       y       z     vdW  Elec       q    Type
REMARK                         _______ _______ _______ _____ _____    ______ ____
ROOT
ATOM      9  C   UNL     1      -4.490   2.998  25.501  0.00  0.00    +0.170 C 
ATOM     10  O   UNL     1      -4.356   2.217  25.273  0.00  0.00    -0.351 OA
ATOM     11  C   UNL     1      -5.087   1.843  25.200  0.00  0.00    +0.157 C 
ATOM     23  C   UNL     1      -5.674   2.393  25.382  0.00  0.00    +0.212 C 
ATOM     24  O   UNL     1      -6.487   2.254  25.380  0.00  0.00    -0.218 OA
ATOM     25  C   UNL     1      -5.305   3.107  25.569  0.00  0.00    +0.213 C 
ATOM     26  O   UNL     1      -5.685   3.807  25.785  0.00  0.00    -0.218 OA
ENDROOT
BRANCH   9   8
ATOM      8  C   UNL     1      -3.912   3.570  25.637  0.00  0.00    +0.149 C 
BRANCH   8   7
ATOM      4  N   UNL     1      -1.976   4.140  24.805  0.00  0.00    -0.189 NA
ATOM      5  C   UNL     1      -2.597   4.044  25.339  0.00  0.00    +0.339 C 
ATOM      6  O   UNL     1      -2.523   4.325  26.111  0.00  0.00    -0.249 OA
ATOM      7  N   UNL     1      -3.291   3.666  25.103  0.00  0.00    -0.185 NA
BRANCH   4   2
ATOM      1  C   UNL     1      -1.231   5.340  25.021  0.00  0.00    +0.023 C 
ATOM      2  C   UNL     1      -1.282   4.517  25.042  0.00  0.00    +0.097 C 
ATOM      3  C   UNL     1      -0.637   4.071  25.299  0.00  0.00    +0.023 C 
ENDBRANCH   4   2
ENDBRANCH   8   7
ENDBRANCH   9   8
BRANCH  11  12
ATOM     12  C   UNL     1      -5.210   1.056  24.982  0.00  0.00    +0.119 C 
BRANCH  12  13
ATOM     13  C   UNL     1      -4.623   0.645  24.575  0.00  0.00    +0.244 C 
ATOM     14  O   UNL     1      -4.227   1.004  23.946  0.00  0.00    -0.273 OA
ATOM     15  N   UNL     1      -4.431  -0.127  24.797  0.00  0.00    -0.200 NA
BRANCH  15  16
ATOM     16  C   UNL     1      -3.843  -0.538  24.390  0.00  0.00    +0.143 C 
BRANCH  16  17
ATOM     17  C   UNL     1      -3.720  -1.340  24.543  0.00  0.00    +0.019 A 
ATOM     18  C   UNL     1      -3.986  -1.908  24.006  0.00  0.00    +0.001 A 
ATOM     19  C   UNL     1      -3.863  -2.709  24.160  0.00  0.00    +0.020 A 
ATOM     20  C   UNL     1      -3.475  -2.943  24.848  0.00  0.00    +0.099 A 
ATOM     21  N   UNL     1      -3.209  -2.375  25.385  0.00  0.00    -0.243 NA
ATOM     22  C   UNL     1      -3.332  -1.574  25.232  0.00  0.00    +0.096 A 
ENDBRANCH  16  17
ENDBRANCH  15  16
ENDBRANCH  12  13
ENDBRANCH  11  12
TORSDOF 7
ENDMDL
MODEL 2
REMARK VINA RESULT:      -9.6      1.157      4.573
REMARK  Name = 
REMARK  7 active torsions:
REMARK  status: ('A' for Active; 'I' for Inactive)
REMARK    1  A    between atoms: C_2  and  N_4
REMARK    2  A    between atoms: N_7  and  C_8
REMARK    3  A    between atoms: C_8  and  C_9
REMARK    4  A    between atoms: C_11  and  C_12
REMARK    5  A    between atoms: C_12  and  C_13
REMARK    6  A    between atoms: N_15  and  C_16
REMARK    7  A    between atoms: C_16  and  C_17
REMARK                            x       y       z     vdW  Elec       q    Type
REMARK                         _______ _______ _______ _____ _____    ______ ____
ROOT
ATOM      9  C   UNL     1      -4.784   1.473  25.009  0.00  0.00    +0.170 C 
ATOM     10  O   UNL     1      -4.146   1.979  25.133  0.00  0.00    -0.351 OA
ATOM     11  C   UNL     1      -4.444   2.726  25.316  0.00  0.00    +0.157 C 
ATOM     23  C   UNL     1      -5.267   2.681  25.306  0.00  0.00    +0.212 C 
ATOM     24  O   UNL     1      -5.789   3.302  25.458  0.00  0.00    -0.218 OA
ATOM     25  C   UNL     1      -5.478   1.907  25.116  0.00  0.00    +0.213 C 
ATOM     26  O   UNL     1      -6.247   1.617  25.046  0.00  0.00    -0.218 OA
ENDROOT
BRANCH   9   8
ATOM      8  C   UNL     1      -4.739   0.673  24.813  0.00  0.00    +0.149 C 
BRANCH   8   7
ATOM      4  N   UNL     1      -3.426  -1.026  25.203  0.00  0.00    -0.189 NA
ATOM      5  C   UNL     1      -3.992  -0.545  24.846  0.00  0.00    +0.339 C 
ATOM      6  O   UNL     1      -4.377  -0.799  24.162  0.00  0.00    -0.249 OA
ATOM      7  N   UNL     1      -4.173   0.191  25.171  0.00  0.00    -0.185 NA
BRANCH   4   2
ATOM      1  C   UNL     1      -2.647  -1.829  24.314  0.00  0.00    +0.023 C 
ATOM      2  C   UNL     1      -3.244  -1.763  24.878  0.00  0.00    +0.097 C 
ATOM      3  C   UNL     1      -3.661  -2.433  25.118  0.00  0.00    +0.023 C 
ENDBRANCH   4   2
ENDBRANCH   8   7
ENDBRANCH   9   8
BRANCH  11  12
ATOM     12  C   UNL     1      -3.996   3.400  25.481  0.00  0.00    +0.119 C 
BRANCH  12  13
ATOM     13  C   UNL     1      -3.306   3.551  25.056  0.00  0.00    +0.244 C 
ATOM     14  O   UNL     1      -3.349   3.900  24.310  0.00  0.00    -0.273 OA
ATOM     15  N   UNL     1      -2.572   3.352  25.377  0.00  0.00    -0.200 NA
BRANCH  15  16
ATOM     16  C   UNL     1      -1.882   3.503  24.952  0.00  0.00    +0.143 C 
BRANCH  16  17
ATOM     17  C   UNL     1      -1.185   3.103  25.141  0.00  0.00    +0.019 A 
ATOM     18  C   UNL     1      -0.903   3.112  25.917  0.00  0.00    +0.001 A 
ATOM     19  C   UNL     1      -0.206   2.712  26.106  0.00  0.00    +0.020 A 
ATOM     20  C   UNL     1       0.207   2.303  25.522  0.00  0.00    +0.099 A 
ATOM     21  N   UNL     1      -0.075   2.295  24.746  0.00  0.00    -0.243 NA
ATOM     22  C   UNL     1      -0.771   2.694  24.557  0.00  0.00    +0.096 A 
ENDBRANCH  16  17
ENDBRANCH  15  16
ENDBRANCH  12  13
ENDBRANCH  11  12
TORSDOF 7
ENDMDL
MODEL 3
REMARK VINA RESULT:      -9.6      2.592      3.856
REMARK  Name = 
REMARK  7 active torsions:
REMARK  status: ('A' for Active; 'I' for Inactive)
REMARK    1  A    between atoms: C_2  and  N_4
REMARK    2  A    between atoms: N_7  and  C_8
REMARK    3  A    between atoms: C_8  and  C_9
REMARK    4  A    between atoms: C_11  and  C_12
REMARK    5  A    between atoms: C_12  and  C_13
REMARK    6  A    between atoms: N_15  and  C_16
REMARK    7  A    between atoms: C_16  and  C_17
REMARK                            x       y       z     vdW  Elec       q    Type
REMARK                         _______ _______ _______ _____ _____    ______ ____
ROOT
ATOM      9  C   UNL     1      -0.141   1.335  24.588  0.00  0.00    +0.170 C 
ATOM     10  O   UNL     1      -0.527   0.632  24.778  0.00  0.00    -0.351 OA
ATOM     11  C   UNL     1      -0.187   0.026  24.333  0.00  0.00    +0.157 C 
ATOM     23  C   UNL     1       0.409   0.355  23.868  0.00  0.00    +0.212 C 
ATOM     24  O   UNL     1       0.892  -0.053  23.338  0.00  0.00    -0.218 OA
ATOM     25  C   UNL     1       0.438   1.164  24.025  0.00  0.00    +0.213 C 
ATOM     26  O   UNL     1       0.954   1.707  23.680  0.00  0.00    -0.218 OA
ENDROOT
BRANCH   9   8
ATOM      8  C   UNL     1      -0.305   2.079  24.904  0.00  0.00    +0.149 C 
BRANCH   8   7
ATOM      4  N   UNL     1      -1.994   3.446  25.109  0.00  0.00    -0.189 NA
ATOM      5  C   UNL     1      -1.246   3.112  25.204  0.00  0.00    +0.339 C 
ATOM      6  O   UNL     1      -0.691   3.476  25.693  0.00  0.00    -0.249 OA
ATOM      7  N   UNL     1      -1.052   2.413  24.810  0.00  0.00    -0.185 NA
BRANCH   4   2
ATOM      1  C   UNL     1      -2.714   4.129  26.137  0.00  0.00    +0.023 C 
ATOM      2  C   UNL     1      -2.187   4.145  25.503  0.00  0.00    +0.097 C 
ATOM      3  C   UNL     1      -1.854   4.860  25.262  0.00  0.00    +0.023 C 
ENDBRANCH   4   2
ENDBRANCH   8   7
ENDBRANCH   9   8
BRANCH  11  12
ATOM     12  C   UNL     1      -0.406  -0.770  24.351  0.00  0.00    +0.119 C 
BRANCH  12  13
ATOM     13  C   UNL     1      -1.035  -1.014  24.824  0.00  0.00    +0.244 C 
ATOM     14  O   UNL     1      -0.959  -1.011  25.646  0.00  0.00    -0.273 OA
ATOM     15  N   UNL     1      -1.741  -1.262  24.475  0.00  0.00    -0.200 NA
BRANCH  15  16
ATOM     16  C   UNL     1      -2.370  -1.507  24.949  0.00  0.00    +0.143 C 
BRANCH  16  17
ATOM     17  C   UNL     1      -3.061  -1.794  24.600  0.00  0.00    +0.019 A 
ATOM     18  C   UNL     1      -3.638  -1.266  24.336  0.00  0.00    +0.001 A 
ATOM     19  C   UNL     1      -4.330  -1.553  23.987  0.00  0.00    +0.020 A 
ATOM     20  C   UNL     1      -4.443  -2.365  23.903  0.00  0.00    +0.099 A 
ATOM     21  N   UNL     1      -3.865  -2.892  24.167  0.00  0.00    -0.243 NA
ATOM     22  C   UNL     1      -3.175  -2.606  24.516  0.00  0.00    +0.096 A 
ENDBRANCH  16  17
ENDBRANCH  15  16
ENDBRANCH  12  13
ENDBRANCH  11  12
TORSDOF 7
ENDMDL
MODEL 4
REMARK VINA RESULT:      -9.5      2.018      3.404
REMARK  Name = 
REMARK  7 active torsions:
REMARK  status: ('A' for Active; 'I' for Inactive)
REMARK    1  A    between atoms: C_2  and  N_4
REMARK    2  A    between atoms: N_7  and  C_8
REMARK    3  A    between atoms: C_8  and  C_9
REMARK    4  A    between atoms: C_11  and  C_12
REMARK    5  A    between atoms: C_12  and  C_13
REMARK    6  A    between atoms: N_15  and  C_16
REMARK    7  A    between atoms: C_16  and  C_17
REMARK                            x       y       z     vdW  Elec       q    Type
REMARK                         _______ _______ _______ _____ _____    ______ ____
ROOT
ATOM      9  C   UNL     1      -1.628   2.195  24.920  0.00  0.00    +0.170 C 
ATOM     10  O   UNL     1      -1.716   1.380  25.003  0.00  0.00    -0.351 OA
ATOM     11  C   UNL     1      -1.001   1.023  24.797  0.00  0.00    +0.157 C 
ATOM     23  C   UNL     1      -0.471   1.618  24.587  0.00  0.00    +0.212 C 
ATOM     24  O   UNL     1       0.310   1.509  24.343  0.00  0.00    -0.218 OA
ATOM     25  C   UNL     1      -0.857   2.343  24.662  0.00  0.00    +0.213 C 
ATOM     26  O   UNL     1      -0.531   3.085  24.508  0.00  0.00    -0.218 OA
ENDROOT
BRANCH   9   8
ATOM      8  C   UNL     1      -2.206   2.764  25.068  0.00  0.00    +0.149 C 
BRANCH   8   7
ATOM      4  N   UNL     1      -4.385   2.878  25.002  0.00  0.00    -0.189 NA
ATOM      5  C   UNL     1      -3.604   3.015  25.229  0.00  0.00    +0.339 C 
ATOM      6  O   UNL     1      -3.439   3.539  25.844  0.00  0.00    -0.249 OA
ATOM      7  N   UNL     1      -2.987   2.628  24.841  0.00  0.00    -0.185 NA
BRANCH   4   2
ATOM      1  C   UNL     1      -5.473   2.856  25.927  0.00  0.00    +0.023 C 
ATOM      2  C   UNL     1      -5.001   3.266  25.390  0.00  0.00    +0.097 C 
ATOM      3  C   UNL     1      -5.146   4.064  25.240  0.00  0.00    +0.023 C 
ENDBRANCH   4   2
ENDBRANCH   8   7
ENDBRANCH   9   8
BRANCH  11  12
ATOM     12  C   UNL     1      -0.845   0.212  24.800  0.00  0.00    +0.119 C 
BRANCH  12  13
ATOM     13  C   UNL     1      -1.352  -0.303  25.197  0.00  0.00    +0.244 C 
ATOM     14  O   UNL     1      -1.301  -0.384  26.017  0.00  0.00    -0.273 OA
ATOM     15  N   UNL     1      -1.910  -0.740  24.773  0.00  0.00    -0.200 NA
BRANCH  15  16
ATOM     16  C   UNL     1      -2.416  -1.256  25.170  0.00  0.00    +0.143 C 
BRANCH  16  17
ATOM     17  C   UNL     1      -3.002  -1.661  24.753  0.00  0.00    +0.019 A 
ATOM     18  C   UNL     1      -3.655  -1.252  24.458  0.00  0.00    +0.001 A 
ATOM     19  C   UNL     1      -4.241  -1.656  24.040  0.00  0.00    +0.020 A 
ATOM     20  C   UNL     1      -4.174  -2.469  23.918  0.00  0.00    +0.099 A 
ATOM     21  N   UNL     1      -3.520  -2.878  24.213  0.00  0.00    -0.243 NA
ATOM     22  C   UNL     1      -2.935  -2.474  24.630  0.00  0.00    +0.096 A 
ENDBRANCH  16  17
ENDBRANCH  15  16
ENDBRANCH  12  13
ENDBRANCH  11  12
TORSDOF 7
ENDMDL
MODEL 5
REMARK VINA RESULT:      -9.5      2.166      5.397
REMARK  Name = 
REMARK  7 active torsions:
REMARK  status: ('A' for Active; 'I' for Inactive)
REMARK    1  A    between atoms: C_2  and  N_4
REMARK    2  A    between atoms: N_7  and  C_8
REMARK    3  A    between atoms: C_8  and  C_9
REMARK    4  A    between atoms: C_11  and  C_12
REMARK    5  A    between atoms: C_12  and  C_13
REMARK    6  A    between atoms: N_15  and  C_16
REMARK    7  A    between atoms: C_16  and  C_17
REMARK                            x       y       z     vdW  Elec       q    Type
REMARK                         _______ _______ _______ _____ _____    ______ ____
ROOT
ATOM      9  C   UNL     1      -1.295   0.380  24.599  0.00  0.00    +0.170 C 
ATOM     10  O   UNL     1      -1.801   1.025  24.682  0.00  0.00    -0.351 OA
ATOM     11  C   UNL     1      -1.344   1.711  24.675  0.00  0.00    +0.157 C 
ATOM     23  C   UNL     1      -0.555   1.490  24.588  0.00  0.00    +0.212 C 
ATOM     24  O   UNL     1       0.092   2.002  24.553  0.00  0.00    -0.218 OA
ATOM     25  C   UNL     1      -0.523   0.667  24.541  0.00  0.00    +0.213 C 
ATOM     26  O   UNL     1       0.159   0.212  24.452  0.00  0.00    -0.218 OA
ENDROOT
BRANCH   9   8
ATOM      8  C   UNL     1      -1.519  -0.414  24.578  0.00  0.00    +0.149 C 
BRANCH   8   7
ATOM      4  N   UNL     1      -3.338  -1.606  24.750  0.00  0.00    -0.189 NA
ATOM      5  C   UNL     1      -2.561  -1.392  24.580  0.00  0.00    +0.339 C 
ATOM      6  O   UNL     1      -2.046  -1.941  24.241  0.00  0.00    -0.249 OA
ATOM      7  N   UNL     1      -2.296  -0.629  24.749  0.00  0.00    -0.185 NA
BRANCH   4   2
ATOM      1  C   UNL     1      -3.394  -2.997  25.074  0.00  0.00    +0.023 C 
ATOM      2  C   UNL     1      -3.603  -2.370  24.582  0.00  0.00    +0.097 C 
ATOM      3  C   UNL     1      -4.077  -2.504  23.920  0.00  0.00    +0.023 C 
ENDBRANCH   4   2
ENDBRANCH   8   7
ENDBRANCH   9   8
BRANCH  11  12
ATOM     12  C   UNL     1      -1.628   2.483  24.742  0.00  0.00    +0.119 C 
BRANCH  12  13
ATOM     13  C   UNL     1      -2.338   2.695  24.382  0.00  0.00    +0.244 C 
ATOM     14  O   UNL     1      -2.372   2.798  23.564  0.00  0.00    -0.273 OA
ATOM     15  N   UNL     1      -3.016   2.804  24.840  0.00  0.00    -0.200 NA
BRANCH  15  16
ATOM     16  C   UNL     1      -3.727   3.016  24.480  0.00  0.00    +0.143 C 
BRANCH  16  17
ATOM     17  C   UNL     1      -4.432   2.984  24.908  0.00  0.00    +0.019 A 
ATOM     18  C   UNL     1      -4.955   2.355  24.795  0.00  0.00    +0.001 A 
ATOM     19  C   UNL     1      -5.660   2.323  25.223  0.00  0.00    +0.020 A 
ATOM     20  C   UNL     1      -5.842   2.919  25.764  0.00  0.00    +0.099 A 
ATOM     21  N   UNL     1      -5.318   3.547  25.876  0.00  0.00    -0.243 NA
ATOM     22  C   UNL     1      -4.614   3.579  25.449  0.00  0.00    +0.096 A 
ENDBRANCH  16  17
ENDBRANCH  15  16
ENDBRANCH  12  13
ENDBRANCH  11  12
TORSDOF 7
ENDMDL
