REMARK  Name = 
REMARK  4 active torsions:
REMARK  status: ('A' for Active; 'I' for Inactive)
REMARK    1  A    between atoms: C_6  and  C_7
REMARK    2  A    between atoms: C_9  and  C_12
REMARK    3  A    between atoms: C_15  and  O_16
REMARK    4  A    between atoms: O_16  and  C_17
REMARK                            x       y       z     vdW  Elec       q    Type
REMARK                         _______ _______ _______ _____ _____    ______ ____
ROOT
ATOM     12  C   UNL     1       1.515  -5.057   0.000  0.00  0.00    +0.058 A 
ATOM     13  C   UNL     1       1.343  -5.864   0.000  0.00  0.00    +0.010 A 
ATOM     14  C   UNL     1       0.559  -6.119   0.000  0.00  0.00    +0.058 A 
ATOM     15  C   UNL     1      -0.054  -5.567   0.000  0.00  0.00    +0.225 A 
ATOM     23  N   UNL     1       0.117  -4.760   0.000  0.00  0.00    -0.210 NA
ATOM     24  C   UNL     1       0.902  -4.505   0.000  0.00  0.00    +0.105 A 
ENDROOT
BRANCH  12   9
ATOM      7  C   UNL     1       3.635  -4.803   0.000  0.00  0.00    +0.251 A 
ATOM      8  N   UNL     1       2.967  -5.287   0.000  0.00  0.00    -0.190 NA
ATOM      9  C   UNL     1       2.300  -4.803   0.000  0.00  0.00    +0.205 A 
ATOM     10  N   UNL     1       2.555  -4.018   0.000  0.00  0.00    -0.056 NA
ATOM     11  O   UNL     1       3.380  -4.018   0.000  0.00  0.00    -0.336 OA
BRANCH   7   6
ATOM      1  C   UNL     1       5.087  -3.748   0.000  0.00  0.00    +0.090 C 
ATOM      2  N   UNL     1       5.087  -4.572   0.000  0.00  0.00    -0.265 NA
ATOM      3  C   UNL     1       5.754  -5.057   0.000  0.00  0.00    +0.073 C 
ATOM      4  C   UNL     1       5.499  -5.842   0.000  0.00  0.00    +0.019 C 
ATOM      5  C   UNL     1       4.674  -5.842   0.000  0.00  0.00    +0.027 C 
ATOM      6  C   UNL     1       4.419  -5.057   0.000  0.00  0.00    +0.138 C 
ENDBRANCH   7   6
ENDBRANCH  12   9
BRANCH  15  16
ATOM     16  O   UNL     1      -0.839  -5.822   0.000  0.00  0.00    -0.464 OA
BRANCH  16  17
ATOM     17  C   UNL     1      -1.452  -5.270   0.000  0.00  0.00    +0.168 C 
ATOM     18  C   UNL     1      -2.237  -5.525   0.000  0.00  0.00    +0.044 C 
ATOM     19  C   UNL     1      -2.850  -4.973   0.000  0.00  0.00    +0.004 C 
ATOM     20  C   UNL     1      -2.678  -4.166   0.000  0.00  0.00    +0.000 C 
ATOM     21  C   UNL     1      -1.893  -3.911   0.000  0.00  0.00    +0.004 C 
ATOM     22  C   UNL     1      -1.280  -4.463   0.000  0.00  0.00    +0.044 C 
ENDBRANCH  16  17
ENDBRANCH  15  16
TORSDOF 4
