MODEL 1
REMARK VINA RESULT:     -11.2      0.000      0.000
REMARK  Name = 
REMARK  7 active torsions:
REMARK  status: ('A' for Active; 'I' for Inactive)
REMARK    1  A    between atoms: C_5  and  C_6
REMARK    2  A    between atoms: C_6  and  C_7
REMARK    3  A    between atoms: N_9  and  C_10
REMARK    4  A    between atoms: C_14  and  C_15
REMARK    5  A    between atoms: C_15  and  N_16
REMARK    6  A    between atoms: N_16  and  C_17
REMARK    7  A    between atoms: C_17  and  C_18
REMARK                            x       y       z     vdW  Elec       q    Type
REMARK                         _______ _______ _______ _____ _____    ______ ____
ROOT
ATOM      1  O   UNL     1      -6.259   2.033  25.067  0.00  0.00    -0.218 OA
ATOM      2  C   UNL     1      -5.489   2.310  25.167  0.00  0.00    +0.213 C 
ATOM      3  C   UNL     1      -5.272   3.021  25.522  0.00  0.00    +0.212 C 
ATOM      4  O   UNL     1      -5.787   3.581  25.841  0.00  0.00    -0.218 OA
ATOM      5  C   UNL     1      -4.449   3.076  25.503  0.00  0.00    +0.157 C 
ATOM     13  O   UNL     1      -4.158   2.396  25.136  0.00  0.00    -0.351 OA
ATOM     14  C   UNL     1      -4.801   1.923  24.928  0.00  0.00    +0.165 C 
ENDROOT
BRANCH   5   6
ATOM      6  C   UNL     1      -3.997   3.698  25.799  0.00  0.00    +0.119 C 
BRANCH   6   7
ATOM      7  C   UNL     1      -3.289   3.906  25.430  0.00  0.00    +0.244 C 
ATOM      8  O   UNL     1      -3.276   4.063  24.620  0.00  0.00    -0.273 OA
ATOM      9  N   UNL     1      -2.592   3.958  25.870  0.00  0.00    -0.207 NA
BRANCH   9  10
ATOM     10  C   UNL     1      -1.885   4.165  25.501  0.00  0.00    +0.095 C 
ATOM     11  C   UNL     1      -1.141   3.955  25.213  0.00  0.00    +0.023 C 
ATOM     12  C   UNL     1      -1.403   4.735  25.149  0.00  0.00    +0.023 C 
ENDBRANCH   9  10
ENDBRANCH   6   7
ENDBRANCH   5   6
BRANCH  14  15
ATOM     15  C   UNL     1      -4.761   1.192  24.548  0.00  0.00    +0.121 C 
BRANCH  15  16
ATOM     16  N   UNL     1      -4.268   0.600  24.844  0.00  0.00    -0.211 NA
BRANCH  16  17
ATOM     17  C   UNL     1      -4.005  -0.004  24.347  0.00  0.00    +0.115 C 
BRANCH  17  18
ATOM     18  C   UNL     1      -3.808  -0.741  24.662  0.00  0.00    -0.004 A 
ATOM     19  C   UNL     1      -3.483  -0.791  25.419  0.00  0.00    -0.003 A 
ATOM     20  C   UNL     1      -3.286  -1.528  25.734  0.00  0.00    +0.001 A 
ATOM     21  C   UNL     1      -3.414  -2.214  25.293  0.00  0.00    +0.011 A 
ATOM     22  C   UNL     1      -3.739  -2.162  24.537  0.00  0.00    +0.057 A 
ATOM     23 CL   UNL     1      -3.868  -2.847  24.095  0.00  0.00    -0.082 Cl
ATOM     24  C   UNL     1      -3.936  -1.426  24.222  0.00  0.00    +0.009 A 
ENDBRANCH  17  18
ENDBRANCH  16  17
ENDBRANCH  15  16
ENDBRANCH  14  15
TORSDOF 7
ENDMDL
MODEL 2
REMARK VINA RESULT:     -10.5      1.627      4.489
REMARK  Name = 
REMARK  7 active torsions:
REMARK  status: ('A' for Active; 'I' for Inactive)
REMARK    1  A    between atoms: C_5  and  C_6
REMARK    2  A    between atoms: C_6  and  C_7
REMARK    3  A    between atoms: N_9  and  C_10
REMARK    4  A    between atoms: C_14  and  C_15
REMARK    5  A    between atoms: C_15  and  N_16
REMARK    6  A    between atoms: N_16  and  C_17
REMARK    7  A    between atoms: C_17  and  C_18
REMARK                            x       y       z     vdW  Elec       q    Type
REMARK                         _______ _______ _______ _____ _____    ______ ____
ROOT
ATOM      1  O   UNL     1      -5.918   3.490  25.730  0.00  0.00    -0.218 OA
ATOM      2  C   UNL     1      -5.433   2.870  25.484  0.00  0.00    +0.213 C 
ATOM      3  C   UNL     1      -5.687   2.150  25.173  0.00  0.00    +0.212 C 
ATOM      4  O   UNL     1      -6.471   1.923  25.054  0.00  0.00    -0.218 OA
ATOM      5  C   UNL     1      -5.020   1.696  25.002  0.00  0.00    +0.157 C 
ATOM     13  O   UNL     1      -4.353   2.137  25.208  0.00  0.00    -0.351 OA
ATOM     14  C   UNL     1      -4.609   2.862  25.505  0.00  0.00    +0.165 C 
ENDROOT
BRANCH   5   6
ATOM      6  C   UNL     1      -5.019   0.936  24.682  0.00  0.00    +0.119 C 
BRANCH   6   7
ATOM      7  C   UNL     1      -4.348   0.460  24.752  0.00  0.00    +0.244 C 
ATOM      8  O   UNL     1      -3.679   0.620  24.298  0.00  0.00    -0.273 OA
ATOM      9  N   UNL     1      -4.347  -0.177  25.278  0.00  0.00    -0.207 NA
BRANCH   9  10
ATOM     10  C   UNL     1      -3.677  -0.653  25.348  0.00  0.00    +0.095 C 
ATOM     11  C   UNL     1      -3.221  -1.287  25.083  0.00  0.00    +0.023 C 
ATOM     12  C   UNL     1      -2.974  -0.844  25.733  0.00  0.00    +0.023 C 
ENDBRANCH   9  10
ENDBRANCH   6   7
ENDBRANCH   5   6
BRANCH  14  15
ATOM     15  C   UNL     1      -4.124   3.472  25.777  0.00  0.00    +0.121 C 
BRANCH  15  16
ATOM     16  N   UNL     1      -3.341   3.521  25.520  0.00  0.00    -0.211 NA
BRANCH  16  17
ATOM     17  C   UNL     1      -2.812   4.024  25.905  0.00  0.00    +0.115 C 
BRANCH  17  18
ATOM     18  C   UNL     1      -2.051   4.130  25.605  0.00  0.00    -0.004 A 
ATOM     19  C   UNL     1      -1.846   4.842  25.242  0.00  0.00    -0.003 A 
ATOM     20  C   UNL     1      -1.085   4.948  24.942  0.00  0.00    +0.001 A 
ATOM     21  C   UNL     1      -0.529   4.341  25.004  0.00  0.00    +0.011 A 
ATOM     22  C   UNL     1      -0.734   3.629  25.366  0.00  0.00    +0.057 A 
ATOM     23 CL   UNL     1      -0.178   3.022  25.428  0.00  0.00    -0.082 Cl
ATOM     24  C   UNL     1      -1.495   3.524  25.666  0.00  0.00    +0.009 A 
ENDBRANCH  17  18
ENDBRANCH  16  17
ENDBRANCH  15  16
ENDBRANCH  14  15
TORSDOF 7
ENDMDL
MODEL 3
REMARK VINA RESULT:     -10.0      1.590      2.922
REMARK  Name = 
REMARK  7 active torsions:
REMARK  status: ('A' for Active; 'I' for Inactive)
REMARK    1  A    between atoms: C_5  and  C_6
REMARK    2  A    between atoms: C_6  and  C_7
REMARK    3  A    between atoms: N_9  and  C_10
REMARK    4  A    between atoms: C_14  and  C_15
REMARK    5  A    between atoms: C_15  and  N_16
REMARK    6  A    between atoms: N_16  and  C_17
REMARK    7  A    between atoms: C_17  and  C_18
REMARK                            x       y       z     vdW  Elec       q    Type
REMARK                         _______ _______ _______ _____ _____    ______ ____
ROOT
ATOM      1  O   UNL     1      -0.080   1.916  25.460  0.00  0.00    -0.218 OA
ATOM      2  C   UNL     1      -0.868   2.146  25.380  0.00  0.00    +0.213 C 
ATOM      3  C   UNL     1      -1.162   2.911  25.475  0.00  0.00    +0.212 C 
ATOM      4  O   UNL     1      -0.719   3.580  25.666  0.00  0.00    -0.218 OA
ATOM      5  C   UNL     1      -1.977   2.889  25.345  0.00  0.00    +0.157 C 
ATOM     13  O   UNL     1      -2.185   2.110  25.170  0.00  0.00    -0.351 OA
ATOM     14  C   UNL     1      -1.500   1.651  25.192  0.00  0.00    +0.165 C 
ENDROOT
BRANCH   5   6
ATOM      6  C   UNL     1      -2.491   3.532  25.384  0.00  0.00    +0.119 C 
BRANCH   6   7
ATOM      7  C   UNL     1      -3.290   3.432  25.205  0.00  0.00    +0.244 C 
ATOM      8  O   UNL     1      -3.530   3.336  24.421  0.00  0.00    -0.273 OA
ATOM      9  N   UNL     1      -3.852   3.426  25.811  0.00  0.00    -0.207 NA
BRANCH   9  10
ATOM     10  C   UNL     1      -4.651   3.326  25.632  0.00  0.00    +0.095 C 
ATOM     11  C   UNL     1      -5.385   3.648  25.438  0.00  0.00    +0.023 C 
ATOM     12  C   UNL     1      -5.300   2.831  25.517  0.00  0.00    +0.023 C 
ENDBRANCH   9  10
ENDBRANCH   6   7
ENDBRANCH   5   6
BRANCH  14  15
ATOM     15  C   UNL     1      -1.456   0.840  25.050  0.00  0.00    +0.121 C 
BRANCH  15  16
ATOM     16  N   UNL     1      -2.145   0.408  24.912  0.00  0.00    -0.211 NA
BRANCH  16  17
ATOM     17  C   UNL     1      -2.100  -0.400  24.750  0.00  0.00    +0.115 C 
BRANCH  17  18
ATOM     18  C   UNL     1      -2.786  -0.826  24.579  0.00  0.00    -0.004 A 
ATOM     19  C   UNL     1      -3.420  -0.452  24.207  0.00  0.00    -0.003 A 
ATOM     20  C   UNL     1      -4.107  -0.877  24.036  0.00  0.00    +0.001 A 
ATOM     21  C   UNL     1      -4.158  -1.676  24.239  0.00  0.00    +0.011 A 
ATOM     22  C   UNL     1      -3.524  -2.048  24.611  0.00  0.00    +0.057 A 
ATOM     23 CL   UNL     1      -3.576  -2.847  24.813  0.00  0.00    -0.082 Cl
ATOM     24  C   UNL     1      -2.838  -1.624  24.781  0.00  0.00    +0.009 A 
ENDBRANCH  17  18
ENDBRANCH  16  17
ENDBRANCH  15  16
ENDBRANCH  14  15
TORSDOF 7
ENDMDL
MODEL 4
REMARK VINA RESULT:      -9.9      2.530      5.102
REMARK  Name = 
REMARK  7 active torsions:
REMARK  status: ('A' for Active; 'I' for Inactive)
REMARK    1  A    between atoms: C_5  and  C_6
REMARK    2  A    between atoms: C_6  and  C_7
REMARK    3  A    between atoms: N_9  and  C_10
REMARK    4  A    between atoms: C_14  and  C_15
REMARK    5  A    between atoms: C_15  and  N_16
REMARK    6  A    between atoms: N_16  and  C_17
REMARK    7  A    between atoms: C_17  and  C_18
REMARK                            x       y       z     vdW  Elec       q    Type
REMARK                         _______ _______ _______ _____ _____    ______ ____
ROOT
ATOM      1  O   UNL     1      -0.426   1.569  23.867  0.00  0.00    -0.218 OA
ATOM      2  C   UNL     1      -0.940   1.000  24.170  0.00  0.00    +0.213 C 
ATOM      3  C   UNL     1      -0.732   0.239  24.413  0.00  0.00    +0.212 C 
ATOM      4  O   UNL     1       0.027  -0.085  24.395  0.00  0.00    -0.218 OA
ATOM      5  C   UNL     1      -1.415  -0.141  24.677  0.00  0.00    +0.157 C 
ATOM     13  O   UNL     1      -2.046   0.386  24.597  0.00  0.00    -0.351 OA
ATOM     14  C   UNL     1      -1.751   1.091  24.284  0.00  0.00    +0.165 C 
ENDROOT
BRANCH   5   6
ATOM      6  C   UNL     1      -1.461  -0.910  24.969  0.00  0.00    +0.119 C 
BRANCH   6   7
ATOM      7  C   UNL     1      -2.187  -1.302  24.988  0.00  0.00    +0.244 C 
ATOM      8  O   UNL     1      -2.736  -1.126  25.578  0.00  0.00    -0.273 OA
ATOM      9  N   UNL     1      -2.364  -1.871  24.417  0.00  0.00    -0.207 NA
BRANCH   9  10
ATOM     10  C   UNL     1      -3.090  -2.262  24.436  0.00  0.00    +0.095 C 
ATOM     11  C   UNL     1      -3.887  -2.299  24.228  0.00  0.00    +0.023 C 
ATOM     12  C   UNL     1      -3.549  -2.903  24.676  0.00  0.00    +0.023 C 
ENDBRANCH   9  10
ENDBRANCH   6   7
ENDBRANCH   5   6
BRANCH  14  15
ATOM     15  C   UNL     1      -2.193   1.767  24.114  0.00  0.00    +0.121 C 
BRANCH  15  16
ATOM     16  N   UNL     1      -2.910   1.898  24.501  0.00  0.00    -0.211 NA
BRANCH  16  17
ATOM     17  C   UNL     1      -3.437   2.463  24.211  0.00  0.00    +0.115 C 
BRANCH  17  18
ATOM     18  C   UNL     1      -4.116   2.652  24.640  0.00  0.00    -0.004 A 
ATOM     19  C   UNL     1      -4.127   3.327  25.116  0.00  0.00    -0.003 A 
ATOM     20  C   UNL     1      -4.806   3.516  25.545  0.00  0.00    +0.001 A 
ATOM     21  C   UNL     1      -5.473   3.031  25.499  0.00  0.00    +0.011 A 
ATOM     22  C   UNL     1      -5.460   2.357  25.024  0.00  0.00    +0.057 A 
ATOM     23 CL   UNL     1      -6.126   1.872  24.978  0.00  0.00    -0.082 Cl
ATOM     24  C   UNL     1      -4.782   2.168  24.595  0.00  0.00    +0.009 A 
ENDBRANCH  17  18
ENDBRANCH  16  17
ENDBRANCH  15  16
ENDBRANCH  14  15
TORSDOF 7
ENDMDL
MODEL 5
REMARK VINA RESULT:      -9.9      2.341      3.465
REMARK  Name = 
REMARK  7 active torsions:
REMARK  status: ('A' for Active; 'I' for Inactive)
REMARK    1  A    between atoms: C_5  and  C_6
REMARK    2  A    between atoms: C_6  and  C_7
REMARK    3  A    between atoms: N_9  and  C_10
REMARK    4  A    between atoms: C_14  and  C_15
REMARK    5  A    between atoms: C_15  and  N_16
REMARK    6  A    between atoms: N_16  and  C_17
REMARK    7  A    between atoms: C_17  and  C_18
REMARK                            x       y       z     vdW  Elec       q    Type
REMARK                         _______ _______ _______ _____ _____    ______ ____
ROOT
ATOM      1  O   UNL     1       0.128  -0.311  24.093  0.00  0.00    -0.218 OA
ATOM      2  C   UNL     1      -0.143   0.417  24.368  0.00  0.00    +0.213 C 
ATOM      3  C   UNL     1       0.186   1.154  24.196  0.00  0.00    +0.212 C 
ATOM      4  O   UNL     1       0.845   1.291  23.718  0.00  0.00    -0.218 OA
ATOM      5  C   UNL     1      -0.258   1.730  24.585  0.00  0.00    +0.157 C 
ATOM     13  O   UNL     1      -0.863   1.348  24.997  0.00  0.00    -0.351 OA
ATOM     14  C   UNL     1      -0.791   0.537  24.863  0.00  0.00    +0.165 C 
ENDROOT
BRANCH   5   6
ATOM      6  C   UNL     1      -0.123   2.543  24.565  0.00  0.00    +0.119 C 
BRANCH   6   7
ATOM      7  C   UNL     1      -0.754   3.068  24.648  0.00  0.00    +0.244 C 
ATOM      8  O   UNL     1      -1.370   3.063  24.099  0.00  0.00    -0.273 OA
ATOM      9  N   UNL     1      -0.769   3.600  25.279  0.00  0.00    -0.207 NA
BRANCH   9  10
ATOM     10  C   UNL     1      -1.400   4.125  25.362  0.00  0.00    +0.095 C 
ATOM     11  C   UNL     1      -1.734   4.867  25.226  0.00  0.00    +0.023 C 
ATOM     12  C   UNL     1      -2.158   4.292  25.639  0.00  0.00    +0.023 C 
ENDBRANCH   9  10
ENDBRANCH   6   7
ENDBRANCH   5   6
BRANCH  14  15
ATOM     15  C   UNL     1      -1.283  -0.050  25.170  0.00  0.00    +0.121 C 
BRANCH  15  16
ATOM     16  N   UNL     1      -2.048  -0.143  24.875  0.00  0.00    -0.211 NA
BRANCH  16  17
ATOM     17  C   UNL     1      -2.587  -0.624  25.273  0.00  0.00    +0.115 C 
BRANCH  17  18
ATOM     18  C   UNL     1      -3.179  -1.016  24.852  0.00  0.00    -0.004 A 
ATOM     19  C   UNL     1      -3.793  -0.587  24.508  0.00  0.00    -0.003 A 
ATOM     20  C   UNL     1      -4.385  -0.979  24.087  0.00  0.00    +0.001 A 
ATOM     21  C   UNL     1      -4.361  -1.801  24.010  0.00  0.00    +0.011 A 
ATOM     22  C   UNL     1      -3.746  -2.229  24.354  0.00  0.00    +0.057 A 
ATOM     23 CL   UNL     1      -3.722  -3.051  24.277  0.00  0.00    -0.082 Cl
ATOM     24  C   UNL     1      -3.155  -1.837  24.775  0.00  0.00    +0.009 A 
ENDBRANCH  17  18
ENDBRANCH  16  17
ENDBRANCH  15  16
ENDBRANCH  14  15
TORSDOF 7
ENDMDL
MODEL 6
REMARK VINA RESULT:      -9.5      2.571      4.205
REMARK  Name = 
REMARK  7 active torsions:
REMARK  status: ('A' for Active; 'I' for Inactive)
REMARK    1  A    between atoms: C_5  and  C_6
REMARK    2  A    between atoms: C_6  and  C_7
REMARK    3  A    between atoms: N_9  and  C_10
REMARK    4  A    between atoms: C_14  and  C_15
REMARK    5  A    between atoms: C_15  and  N_16
REMARK    6  A    between atoms: N_16  and  C_17
REMARK    7  A    between atoms: C_17  and  C_18
REMARK                            x       y       z     vdW  Elec       q    Type
REMARK                         _______ _______ _______ _____ _____    ______ ____
ROOT
ATOM      1  O   UNL     1      -3.771  -1.948  24.642  0.00  0.00    -0.218 OA
ATOM      2  C   UNL     1      -3.231  -1.347  24.808  0.00  0.00    +0.213 C 
ATOM      3  C   UNL     1      -2.418  -1.441  24.913  0.00  0.00    +0.212 C 
ATOM      4  O   UNL     1      -2.003  -2.152  24.871  0.00  0.00    -0.218 OA
ATOM      5  C   UNL     1      -2.093  -0.698  25.068  0.00  0.00    +0.157 C 
ATOM     13  O   UNL     1      -2.707  -0.146  25.059  0.00  0.00    -0.351 OA
ATOM     14  C   UNL     1      -3.409  -0.547  24.899  0.00  0.00    +0.165 C 
ENDROOT
BRANCH   5   6
ATOM      6  C   UNL     1      -1.297  -0.537  25.208  0.00  0.00    +0.119 C 
BRANCH   6   7
ATOM      7  C   UNL     1      -1.005   0.226  25.092  0.00  0.00    +0.244 C 
ATOM      8  O   UNL     1      -0.872   0.505  24.327  0.00  0.00    -0.273 OA
ATOM      9  N   UNL     1      -0.844   0.710  25.741  0.00  0.00    -0.207 NA
BRANCH   9  10
ATOM     10  C   UNL     1      -0.551   1.473  25.624  0.00  0.00    +0.095 C 
ATOM     11  C   UNL     1      -0.617   2.287  25.736  0.00  0.00    +0.023 C 
ATOM     12  C   UNL     1       0.019   1.979  25.311  0.00  0.00    +0.023 C 
ENDBRANCH   9  10
ENDBRANCH   6   7
ENDBRANCH   5   6
BRANCH  14  15
ATOM     15  C   UNL     1      -4.158  -0.207  24.839  0.00  0.00    +0.121 C 
BRANCH  15  16
ATOM     16  N   UNL     1      -4.272   0.581  25.058  0.00  0.00    -0.211 NA
BRANCH  16  17
ATOM     17  C   UNL     1      -4.966   0.972  24.844  0.00  0.00    +0.115 C 
BRANCH  17  18
ATOM     18  C   UNL     1      -5.083   1.757  25.071  0.00  0.00    -0.004 A 
ATOM     19  C   UNL     1      -5.680   1.946  25.608  0.00  0.00    -0.003 A 
ATOM     20  C   UNL     1      -5.797   2.731  25.835  0.00  0.00    +0.001 A 
ATOM     21  C   UNL     1      -5.317   3.326  25.524  0.00  0.00    +0.011 A 
ATOM     22  C   UNL     1      -4.721   3.136  24.988  0.00  0.00    +0.057 A 
ATOM     23 CL   UNL     1      -4.240   3.732  24.677  0.00  0.00    -0.082 Cl
ATOM     24  C   UNL     1      -4.604   2.352  24.761  0.00  0.00    +0.009 A 
ENDBRANCH  17  18
ENDBRANCH  16  17
ENDBRANCH  15  16
ENDBRANCH  14  15
TORSDOF 7
ENDMDL
