MODEL 1
REMARK VINA RESULT:      -8.9      0.000      0.000
REMARK  Name = 
REMARK  8 active torsions:
REMARK  status: ('A' for Active; 'I' for Inactive)
REMARK    1  A    between atoms: C_2  and  C_3
REMARK    2  A    between atoms: C_3  and  C_4
REMARK    3  A    between atoms: C_3  and  C_6
REMARK    4  A    between atoms: N_8  and  C_9
REMARK    5  A    between atoms: C_9  and  C_10
REMARK    6  A    between atoms: C_17  and  C_18
REMARK    7  A    between atoms: C_20  and  C_25
REMARK    8  A    between atoms: C_28  and  N_31
REMARK                            x       y       z     vdW  Elec       q    Type
REMARK                         _______ _______ _______ _____ _____    ______ ____
ROOT
ATOM     10  C   UNL     1       0.699   1.315  23.971  0.00  0.00    +0.079 C 
ATOM     11  C   UNL     1       0.527   1.581  24.681  0.00  0.00    +0.018 C 
ATOM     12  C   UNL     1      -0.029   2.144  24.852  0.00  0.00    +0.010 C 
ATOM     13  C   UNL     1      -0.075   2.312  25.732  0.00  0.00    +0.018 C 
ATOM     14  C   UNL     1       0.150   2.019  25.193  0.00  0.00    +0.072 C 
ATOM     15  N   UNL     1       0.134   1.888  24.153  0.00  0.00    -0.272 NA
ATOM     16  C   UNL     1      -0.437   2.370  23.630  0.00  0.00    +0.078 C 
ATOM     17  C   UNL     1      -0.576   2.604  24.343  0.00  0.00    +0.056 C 
ENDROOT
BRANCH  17  18
ATOM     18  C   UNL     1      -1.125   3.171  24.585  0.00  0.00    +0.063 A 
ATOM     19  C   UNL     1      -1.916   2.959  24.689  0.00  0.00    +0.034 A 
ATOM     20  C   UNL     1      -2.465   3.526  24.930  0.00  0.00    +0.084 A 
ATOM     21  N   UNL     1      -2.223   4.303  25.067  0.00  0.00    -0.231 NA
ATOM     22  C   UNL     1      -1.433   4.513  24.963  0.00  0.00    +0.139 A 
ATOM     23  C   UNL     1      -1.191   5.290  25.100  0.00  0.00    +0.074 C 
ATOM     24  N   UNL     1      -0.883   3.946  24.721  0.00  0.00    -0.235 NA
BRANCH  20  25
ATOM     25  C   UNL     1      -3.256   3.316  25.035  0.00  0.00    +0.018 A 
ATOM     26  C   UNL     1      -3.611   3.403  25.775  0.00  0.00    +0.003 A 
ATOM     27  C   UNL     1      -4.401   3.193  25.881  0.00  0.00    +0.015 A 
ATOM     28  C   UNL     1      -4.837   2.896  25.246  0.00  0.00    +0.048 A 
ATOM     29  C   UNL     1      -4.483   2.810  24.507  0.00  0.00    +0.015 A 
ATOM     30  C   UNL     1      -3.692   3.019  24.401  0.00  0.00    +0.003 A 
BRANCH  28  31
ATOM     31  N   UNL     1      -5.629   2.687  25.352  0.00  0.00    -0.304 N 
ATOM     32  C   UNL     1      -5.912   1.976  25.042  0.00  0.00    +0.112 C 
ATOM     33  C   UNL     1      -6.136   3.186  25.767  0.00  0.00    +0.112 C 
ENDBRANCH  28  31
ENDBRANCH  20  25
ENDBRANCH  17  18
BRANCH  10   9
ATOM      9  C   UNL     1       1.118   0.835  23.446  0.00  0.00    +0.131 C 
BRANCH   9   8
ATOM      6  C   UNL     1       2.361   0.382  22.909  0.00  0.00    +0.241 C 
ATOM      7  O   UNL     1       1.957  -0.045  22.331  0.00  0.00    -0.273 OA
ATOM      8  N   UNL     1       1.942   0.822  23.467  0.00  0.00    -0.204 NA
BRANCH   6   3
ATOM      3  C   UNL     1       3.186   0.369  22.930  0.00  0.00    +0.078 C 
BRANCH   3   2
ATOM      1  C   UNL     1       4.307   1.033  22.343  0.00  0.00    +0.001 C 
ATOM      2  C   UNL     1       3.613   1.060  22.789  0.00  0.00    +0.009 C 
ENDBRANCH   3   2
BRANCH   3   4
ATOM      4  C   UNL     1       3.584  -0.336  23.091  0.00  0.00    +0.009 C 
ATOM      5  C   UNL     1       4.296  -0.322  23.506  0.00  0.00    +0.001 C 
ENDBRANCH   3   4
ENDBRANCH   6   3
ENDBRANCH   9   8
ENDBRANCH  10   9
TORSDOF 8
ENDMDL
MODEL 2
REMARK VINA RESULT:      -8.6      2.108      2.816
REMARK  Name = 
REMARK  8 active torsions:
REMARK  status: ('A' for Active; 'I' for Inactive)
REMARK    1  A    between atoms: C_2  and  C_3
REMARK    2  A    between atoms: C_3  and  C_4
REMARK    3  A    between atoms: C_3  and  C_6
REMARK    4  A    between atoms: N_8  and  C_9
REMARK    5  A    between atoms: C_9  and  C_10
REMARK    6  A    between atoms: C_17  and  C_18
REMARK    7  A    between atoms: C_20  and  C_25
REMARK    8  A    between atoms: C_28  and  N_31
REMARK                            x       y       z     vdW  Elec       q    Type
REMARK                         _______ _______ _______ _____ _____    ______ ____
ROOT
ATOM     10  C   UNL     1       0.324  -0.193  23.515  0.00  0.00    +0.079 C 
ATOM     11  C   UNL     1       0.091  -0.328  24.245  0.00  0.00    +0.018 C 
ATOM     12  C   UNL     1      -0.679  -0.367  24.494  0.00  0.00    +0.010 C 
ATOM     13  C   UNL     1      -0.736  -0.532  25.374  0.00  0.00    +0.018 C 
ATOM     14  C   UNL     1      -0.429  -0.428  24.807  0.00  0.00    +0.072 C 
ATOM     15  N   UNL     1      -0.457  -0.234  23.777  0.00  0.00    -0.272 NA
ATOM     16  C   UNL     1      -1.253  -0.142  23.340  0.00  0.00    +0.078 C 
ATOM     17  C   UNL     1      -1.440  -0.277  24.068  0.00  0.00    +0.056 C 
ENDROOT
BRANCH  17  18
ATOM     18  C   UNL     1      -2.200  -0.328  24.386  0.00  0.00    +0.063 A 
ATOM     19  C   UNL     1      -2.641   0.358  24.512  0.00  0.00    +0.034 A 
ATOM     20  C   UNL     1      -3.400   0.306  24.830  0.00  0.00    +0.084 A 
ATOM     21  N   UNL     1      -3.718  -0.430  25.023  0.00  0.00    -0.231 NA
ATOM     22  C   UNL     1      -3.277  -1.116  24.898  0.00  0.00    +0.139 A 
ATOM     23  C   UNL     1      -3.594  -1.852  25.090  0.00  0.00    +0.074 C 
ATOM     24  N   UNL     1      -2.517  -1.064  24.579  0.00  0.00    -0.235 NA
BRANCH  20  25
ATOM     25  C   UNL     1      -3.843   0.992  24.956  0.00  0.00    +0.018 A 
ATOM     26  C   UNL     1      -3.461   1.698  25.146  0.00  0.00    +0.003 A 
ATOM     27  C   UNL     1      -3.903   2.384  25.272  0.00  0.00    +0.015 A 
ATOM     28  C   UNL     1      -4.726   2.362  25.208  0.00  0.00    +0.048 A 
ATOM     29  C   UNL     1      -5.106   1.655  25.019  0.00  0.00    +0.015 A 
ATOM     30  C   UNL     1      -4.664   0.970  24.893  0.00  0.00    +0.003 A 
BRANCH  28  31
ATOM     31  N   UNL     1      -5.167   3.048  25.334  0.00  0.00    -0.304 N 
ATOM     32  C   UNL     1      -5.906   3.001  25.699  0.00  0.00    +0.112 C 
ATOM     33  C   UNL     1      -4.870   3.779  25.097  0.00  0.00    +0.112 C 
ENDBRANCH  28  31
ENDBRANCH  20  25
ENDBRANCH  17  18
BRANCH  10   9
ATOM      9  C   UNL     1       0.900  -0.091  22.934  0.00  0.00    +0.131 C 
BRANCH   9   8
ATOM      6  C   UNL     1       2.275   0.055  22.573  0.00  0.00    +0.241 C 
ATOM      7  O   UNL     1       2.079  -0.059  21.780  0.00  0.00    -0.273 OA
ATOM      8  N   UNL     1       1.686   0.040  23.150  0.00  0.00    -0.204 NA
BRANCH   6   3
ATOM      3  C   UNL     1       3.060   0.185  22.789  0.00  0.00    +0.078 C 
BRANCH   3   2
ATOM      1  C   UNL     1       4.160  -0.403  23.486  0.00  0.00    +0.001 C 
ATOM      2  C   UNL     1       3.565  -0.455  22.917  0.00  0.00    +0.009 C 
ENDBRANCH   3   2
BRANCH   3   4
ATOM      4  C   UNL     1       3.342   0.956  22.877  0.00  0.00    +0.009 C 
ATOM      5  C   UNL     1       4.047   1.182  22.513  0.00  0.00    +0.001 C 
ENDBRANCH   3   4
ENDBRANCH   6   3
ENDBRANCH   9   8
ENDBRANCH  10   9
TORSDOF 8
ENDMDL
MODEL 3
REMARK VINA RESULT:      -7.8      1.543      2.650
REMARK  Name = 
REMARK  8 active torsions:
REMARK  status: ('A' for Active; 'I' for Inactive)
REMARK    1  A    between atoms: C_2  and  C_3
REMARK    2  A    between atoms: C_3  and  C_4
REMARK    3  A    between atoms: C_3  and  C_6
REMARK    4  A    between atoms: N_8  and  C_9
REMARK    5  A    between atoms: C_9  and  C_10
REMARK    6  A    between atoms: C_17  and  C_18
REMARK    7  A    between atoms: C_20  and  C_25
REMARK    8  A    between atoms: C_28  and  N_31
REMARK                            x       y       z     vdW  Elec       q    Type
REMARK                         _______ _______ _______ _____ _____    ______ ____
ROOT
ATOM     10  C   UNL     1       1.653   0.277  22.966  0.00  0.00    +0.079 C 
ATOM     11  C   UNL     1       1.012  -0.162  22.912  0.00  0.00    +0.018 C 
ATOM     12  C   UNL     1       0.358  -0.101  23.386  0.00  0.00    +0.010 C 
ATOM     13  C   UNL     1      -0.272  -0.698  23.162  0.00  0.00    +0.018 C 
ATOM     14  C   UNL     1       0.305  -0.395  23.114  0.00  0.00    +0.072 C 
ATOM     15  N   UNL     1       0.983   0.333  23.444  0.00  0.00    -0.272 NA
ATOM     16  C   UNL     1       0.776   0.881  24.144  0.00  0.00    +0.078 C 
ATOM     17  C   UNL     1       0.166   0.430  24.058  0.00  0.00    +0.056 C 
ENDROOT
BRANCH  17  18
ATOM     18  C   UNL     1      -0.529   0.440  24.503  0.00  0.00    +0.063 A 
ATOM     19  C   UNL     1      -1.082   1.041  24.391  0.00  0.00    +0.034 A 
ATOM     20  C   UNL     1      -1.776   1.050  24.837  0.00  0.00    +0.084 A 
ATOM     21  N   UNL     1      -1.917   0.459  25.394  0.00  0.00    -0.231 NA
ATOM     22  C   UNL     1      -1.363  -0.142  25.506  0.00  0.00    +0.139 A 
ATOM     23  C   UNL     1      -1.504  -0.734  26.063  0.00  0.00    +0.074 C 
ATOM     24  N   UNL     1      -0.669  -0.152  25.060  0.00  0.00    -0.235 NA
BRANCH  20  25
ATOM     25  C   UNL     1      -2.330   1.652  24.725  0.00  0.00    +0.018 A 
ATOM     26  C   UNL     1      -2.228   2.380  25.099  0.00  0.00    +0.003 A 
ATOM     27  C   UNL     1      -2.782   2.981  24.988  0.00  0.00    +0.015 A 
ATOM     28  C   UNL     1      -3.437   2.854  24.503  0.00  0.00    +0.048 A 
ATOM     29  C   UNL     1      -3.538   2.127  24.129  0.00  0.00    +0.015 A 
ATOM     30  C   UNL     1      -2.985   1.525  24.240  0.00  0.00    +0.003 A 
BRANCH  28  31
ATOM     31  N   UNL     1      -3.991   3.456  24.392  0.00  0.00    -0.304 N 
ATOM     32  C   UNL     1      -4.604   3.558  24.936  0.00  0.00    +0.112 C 
ATOM     33  C   UNL     1      -3.932   3.956  23.740  0.00  0.00    +0.112 C 
ENDBRANCH  28  31
ENDBRANCH  20  25
ENDBRANCH  17  18
BRANCH  10   9
ATOM      9  C   UNL     1       2.409   0.507  22.730  0.00  0.00    +0.131 C 
BRANCH   9   8
ATOM      6  C   UNL     1       3.829   0.412  22.861  0.00  0.00    +0.241 C 
ATOM      7  O   UNL     1       3.921   0.981  22.271  0.00  0.00    -0.273 OA
ATOM      8  N   UNL     1       3.073   0.175  23.090  0.00  0.00    -0.204 NA
BRANCH   6   3
ATOM      3  C   UNL     1       4.492   0.080  23.221  0.00  0.00    +0.078 C 
BRANCH   3   2
ATOM      1  C   UNL     1       5.137  -1.050  23.810  0.00  0.00    +0.001 C 
ATOM      2  C   UNL     1       4.452  -0.679  23.539  0.00  0.00    +0.009 C 
ENDBRANCH   3   2
BRANCH   3   4
ATOM      4  C   UNL     1       5.197   0.509  23.264  0.00  0.00    +0.009 C 
ATOM      5  C   UNL     1       5.569   0.619  23.991  0.00  0.00    +0.001 C 
ENDBRANCH   3   4
ENDBRANCH   6   3
ENDBRANCH   9   8
ENDBRANCH  10   9
TORSDOF 8
ENDMDL
MODEL 4
REMARK VINA RESULT:      -7.3      2.075      6.859
REMARK  Name = 
REMARK  8 active torsions:
REMARK  status: ('A' for Active; 'I' for Inactive)
REMARK    1  A    between atoms: C_2  and  C_3
REMARK    2  A    between atoms: C_3  and  C_4
REMARK    3  A    between atoms: C_3  and  C_6
REMARK    4  A    between atoms: N_8  and  C_9
REMARK    5  A    between atoms: C_9  and  C_10
REMARK    6  A    between atoms: C_17  and  C_18
REMARK    7  A    between atoms: C_20  and  C_25
REMARK    8  A    between atoms: C_28  and  N_31
REMARK                            x       y       z     vdW  Elec       q    Type
REMARK                         _______ _______ _______ _____ _____    ______ ____
ROOT
ATOM     10  C   UNL     1      -2.717   2.576  24.330  0.00  0.00    +0.079 C 
ATOM     11  C   UNL     1      -2.561   2.158  23.693  0.00  0.00    +0.018 C 
ATOM     12  C   UNL     1      -2.039   1.540  23.649  0.00  0.00    +0.010 C 
ATOM     13  C   UNL     1      -2.004   1.191  22.824  0.00  0.00    +0.018 C 
ATOM     14  C   UNL     1      -2.210   1.602  23.288  0.00  0.00    +0.072 C 
ATOM     15  N   UNL     1      -2.186   1.945  24.278  0.00  0.00    -0.272 NA
ATOM     16  C   UNL     1      -1.643   1.552  24.897  0.00  0.00    +0.078 C 
ATOM     17  C   UNL     1      -1.519   1.166  24.249  0.00  0.00    +0.056 C 
ENDROOT
BRANCH  17  18
ATOM     18  C   UNL     1      -1.004   0.531  24.138  0.00  0.00    +0.063 A 
ATOM     19  C   UNL     1      -0.260   0.658  23.805  0.00  0.00    +0.034 A 
ATOM     20  C   UNL     1       0.254   0.023  23.693  0.00  0.00    +0.084 A 
ATOM     21  N   UNL     1       0.026  -0.738  23.914  0.00  0.00    -0.231 NA
ATOM     22  C   UNL     1      -0.719  -0.864  24.246  0.00  0.00    +0.139 A 
ATOM     23  C   UNL     1      -0.948  -1.625  24.468  0.00  0.00    +0.074 C 
ATOM     24  N   UNL     1      -1.234  -0.229  24.358  0.00  0.00    -0.235 NA
BRANCH  20  25
ATOM     25  C   UNL     1       0.999   0.149  23.360  0.00  0.00    +0.018 A 
ATOM     26  C   UNL     1       1.517   0.693  23.703  0.00  0.00    +0.003 A 
ATOM     27  C   UNL     1       2.261   0.819  23.371  0.00  0.00    +0.015 A 
ATOM     28  C   UNL     1       2.488   0.401  22.696  0.00  0.00    +0.048 A 
ATOM     29  C   UNL     1       1.971  -0.142  22.354  0.00  0.00    +0.015 A 
ATOM     30  C   UNL     1       1.226  -0.269  22.686  0.00  0.00    +0.003 A 
BRANCH  28  31
ATOM     31  N   UNL     1       3.233   0.528  22.364  0.00  0.00    -0.304 N 
ATOM     32  C   UNL     1       3.414   0.208  21.625  0.00  0.00    +0.112 C 
ATOM     33  C   UNL     1       3.796   0.972  22.770  0.00  0.00    +0.112 C 
ENDBRANCH  28  31
ENDBRANCH  20  25
ENDBRANCH  17  18
BRANCH  10   9
ATOM      9  C   UNL     1      -3.106   3.177  24.739  0.00  0.00    +0.131 C 
BRANCH   9   8
ATOM      6  C   UNL     1      -4.275   3.513  25.489  0.00  0.00    +0.241 C 
ATOM      7  O   UNL     1      -3.808   3.910  26.040  0.00  0.00    -0.273 OA
ATOM      8  N   UNL     1      -3.924   3.146  24.838  0.00  0.00    -0.204 NA
BRANCH   6   3
ATOM      3  C   UNL     1      -5.093   3.482  25.588  0.00  0.00    +0.078 C 
BRANCH   3   2
ATOM      1  C   UNL     1      -5.929   2.334  25.751  0.00  0.00    +0.001 C 
ATOM      2  C   UNL     1      -5.429   2.906  26.073  0.00  0.00    +0.009 C 
ENDBRANCH   3   2
BRANCH   3   4
ATOM      4  C   UNL     1      -5.577   4.028  25.201  0.00  0.00    +0.009 C 
ATOM      5  C   UNL     1      -6.045   4.547  25.638  0.00  0.00    +0.001 C 
ENDBRANCH   3   4
ENDBRANCH   6   3
ENDBRANCH   9   8
ENDBRANCH  10   9
TORSDOF 8
ENDMDL
MODEL 5
REMARK VINA RESULT:      -7.3      2.015      6.386
REMARK  Name = 
REMARK  8 active torsions:
REMARK  status: ('A' for Active; 'I' for Inactive)
REMARK    1  A    between atoms: C_2  and  C_3
REMARK    2  A    between atoms: C_3  and  C_4
REMARK    3  A    between atoms: C_3  and  C_6
REMARK    4  A    between atoms: N_8  and  C_9
REMARK    5  A    between atoms: C_9  and  C_10
REMARK    6  A    between atoms: C_17  and  C_18
REMARK    7  A    between atoms: C_20  and  C_25
REMARK    8  A    between atoms: C_28  and  N_31
REMARK                            x       y       z     vdW  Elec       q    Type
REMARK                         _______ _______ _______ _____ _____    ______ ____
ROOT
ATOM     10  C   UNL     1      -3.429   3.872  25.333  0.00  0.00    +0.079 C 
ATOM     11  C   UNL     1      -2.731   4.185  25.194  0.00  0.00    +0.018 C 
ATOM     12  C   UNL     1      -2.019   3.809  25.280  0.00  0.00    +0.010 C 
ATOM     13  C   UNL     1      -1.331   4.344  25.069  0.00  0.00    +0.018 C 
ATOM     14  C   UNL     1      -1.960   4.188  25.153  0.00  0.00    +0.072 C 
ATOM     15  N   UNL     1      -2.700   3.495  25.418  0.00  0.00    -0.272 NA
ATOM     16  C   UNL     1      -2.476   2.650  25.682  0.00  0.00    +0.078 C 
ATOM     17  C   UNL     1      -1.811   2.995  25.535  0.00  0.00    +0.056 C 
ENDROOT
BRANCH  17  18
ATOM     18  C   UNL     1      -1.055   2.671  25.601  0.00  0.00    +0.063 A 
ATOM     19  C   UNL     1      -0.755   2.198  24.996  0.00  0.00    +0.034 A 
ATOM     20  C   UNL     1       0.000   1.874  25.062  0.00  0.00    +0.084 A 
ATOM     21  N   UNL     1       0.456   2.022  25.734  0.00  0.00    -0.231 NA
ATOM     22  C   UNL     1       0.155   2.495  26.339  0.00  0.00    +0.139 A 
ATOM     23  C   UNL     1       0.610   2.644  27.011  0.00  0.00    +0.074 C 
ATOM     24  N   UNL     1      -0.601   2.820  26.273  0.00  0.00    -0.235 NA
BRANCH  20  25
ATOM     25  C   UNL     1       0.302   1.400  24.457  0.00  0.00    +0.018 A 
ATOM     26  C   UNL     1      -0.067   0.686  24.272  0.00  0.00    +0.003 A 
ATOM     27  C   UNL     1       0.234   0.212  23.667  0.00  0.00    +0.015 A 
ATOM     28  C   UNL     1       0.903   0.454  23.247  0.00  0.00    +0.048 A 
ATOM     29  C   UNL     1       1.270   1.168  23.433  0.00  0.00    +0.015 A 
ATOM     30  C   UNL     1       0.970   1.642  24.038  0.00  0.00    +0.003 A 
BRANCH  28  31
ATOM     31  N   UNL     1       1.203  -0.020  22.642  0.00  0.00    -0.304 N 
ATOM     32  C   UNL     1       2.013  -0.021  22.483  0.00  0.00    +0.112 C 
ATOM     33  C   UNL     1       0.695  -0.493  22.197  0.00  0.00    +0.112 C 
ENDBRANCH  28  31
ENDBRANCH  20  25
ENDBRANCH  17  18
BRANCH  10   9
ATOM      9  C   UNL     1      -4.253   3.896  25.368  0.00  0.00    +0.131 C 
BRANCH   9   8
ATOM      6  C   UNL     1      -5.496   3.212  25.534  0.00  0.00    +0.241 C 
ATOM      7  O   UNL     1      -5.872   3.930  25.682  0.00  0.00    -0.273 OA
ATOM      8  N   UNL     1      -4.686   3.194  25.377  0.00  0.00    -0.204 NA
BRANCH   6   3
ATOM      3  C   UNL     1      -5.930   2.510  25.543  0.00  0.00    +0.078 C 
BRANCH   3   2
ATOM      1  C   UNL     1      -6.244   1.632  26.626  0.00  0.00    +0.001 C 
ATOM      2  C   UNL     1      -6.395   2.321  26.197  0.00  0.00    +0.009 C 
ENDBRANCH   3   2
BRANCH   3   4
ATOM      4  C   UNL     1      -5.898   1.997  24.898  0.00  0.00    +0.009 C 
ATOM      5  C   UNL     1      -6.593   1.674  24.593  0.00  0.00    +0.001 C 
ENDBRANCH   3   4
ENDBRANCH   6   3
ENDBRANCH   9   8
ENDBRANCH  10   9
TORSDOF 8
ENDMDL
MODEL 6
REMARK VINA RESULT:      -7.2      2.934      6.931
REMARK  Name = 
REMARK  8 active torsions:
REMARK  status: ('A' for Active; 'I' for Inactive)
REMARK    1  A    between atoms: C_2  and  C_3
REMARK    2  A    between atoms: C_3  and  C_4
REMARK    3  A    between atoms: C_3  and  C_6
REMARK    4  A    between atoms: N_8  and  C_9
REMARK    5  A    between atoms: C_9  and  C_10
REMARK    6  A    between atoms: C_17  and  C_18
REMARK    7  A    between atoms: C_20  and  C_25
REMARK    8  A    between atoms: C_28  and  N_31
REMARK                            x       y       z     vdW  Elec       q    Type
REMARK                         _______ _______ _______ _____ _____    ______ ____
ROOT
ATOM     10  C   UNL     1      -4.703   0.710  25.009  0.00  0.00    +0.079 C 
ATOM     11  C   UNL     1      -4.543   0.180  24.463  0.00  0.00    +0.018 C 
ATOM     12  C   UNL     1      -3.857  -0.247  24.407  0.00  0.00    +0.010 C 
ATOM     13  C   UNL     1      -3.869  -0.807  23.706  0.00  0.00    +0.018 C 
ATOM     14  C   UNL     1      -4.109  -0.350  24.107  0.00  0.00    +0.072 C 
ATOM     15  N   UNL     1      -4.007   0.272  24.945  0.00  0.00    -0.272 NA
ATOM     16  C   UNL     1      -3.246   0.256  25.449  0.00  0.00    +0.078 C 
ATOM     17  C   UNL     1      -3.129  -0.256  24.896  0.00  0.00    +0.056 C 
ENDROOT
BRANCH  17  18
ATOM     18  C   UNL     1      -2.457  -0.722  24.781  0.00  0.00    +0.063 A 
ATOM     19  C   UNL     1      -1.776  -0.390  24.454  0.00  0.00    +0.034 A 
ATOM     20  C   UNL     1      -1.105  -0.856  24.340  0.00  0.00    +0.084 A 
ATOM     21  N   UNL     1      -1.114  -1.653  24.553  0.00  0.00    -0.231 NA
ATOM     22  C   UNL     1      -1.795  -1.984  24.880  0.00  0.00    +0.139 A 
ATOM     23  C   UNL     1      -1.804  -2.781  25.094  0.00  0.00    +0.074 C 
ATOM     24  N   UNL     1      -2.466  -1.518  24.994  0.00  0.00    -0.235 NA
BRANCH  20  25
ATOM     25  C   UNL     1      -0.424  -0.524  24.012  0.00  0.00    +0.018 A 
ATOM     26  C   UNL     1       0.033  -0.962  23.482  0.00  0.00    +0.003 A 
ATOM     27  C   UNL     1       0.714  -0.632  23.155  0.00  0.00    +0.015 A 
ATOM     28  C   UNL     1       0.938   0.137  23.357  0.00  0.00    +0.048 A 
ATOM     29  C   UNL     1       0.482   0.573  23.886  0.00  0.00    +0.015 A 
ATOM     30  C   UNL     1      -0.200   0.243  24.214  0.00  0.00    +0.003 A 
BRANCH  28  31
ATOM     31  N   UNL     1       1.620   0.466  23.029  0.00  0.00    -0.304 N 
ATOM     32  C   UNL     1       1.917   1.177  23.325  0.00  0.00    +0.112 C 
ATOM     33  C   UNL     1       2.004   0.087  22.406  0.00  0.00    +0.112 C 
ENDBRANCH  28  31
ENDBRANCH  20  25
ENDBRANCH  17  18
BRANCH  10   9
ATOM      9  C   UNL     1      -5.188   1.272  25.370  0.00  0.00    +0.131 C 
BRANCH   9   8
ATOM      6  C   UNL     1      -5.399   2.635  25.743  0.00  0.00    +0.241 C 
ATOM      7  O   UNL     1      -5.878   2.390  26.367  0.00  0.00    -0.273 OA
ATOM      8  N   UNL     1      -5.053   2.075  25.244  0.00  0.00    -0.204 NA
BRANCH   6   3
ATOM      3  C   UNL     1      -5.264   3.439  25.617  0.00  0.00    +0.078 C 
BRANCH   3   2
ATOM      1  C   UNL     1      -5.852   4.711  25.342  0.00  0.00    +0.001 C 
ATOM      2  C   UNL     1      -5.875   3.981  25.726  0.00  0.00    +0.009 C 
ENDBRANCH   3   2
BRANCH   3   4
ATOM      4  C   UNL     1      -4.517   3.700  25.381  0.00  0.00    +0.009 C 
ATOM      5  C   UNL     1      -3.999   4.020  25.937  0.00  0.00    +0.001 C 
ENDBRANCH   3   4
ENDBRANCH   6   3
ENDBRANCH   9   8
ENDBRANCH  10   9
TORSDOF 8
ENDMDL
