REMARK  Name = 
REMARK  8 active torsions:
REMARK  status: ('A' for Active; 'I' for Inactive)
REMARK    1  A    between atoms: C_2  and  C_3
REMARK    2  A    between atoms: C_3  and  S_4
REMARK    3  A    between atoms: S_4  and  N_7
REMARK    4  A    between atoms: N_7  and  C_8
REMARK    5  A    between atoms: C_12  and  O_16
REMARK    6  A    between atoms: O_16  and  C_17
REMARK    7  A    between atoms: N_19  and  C_20
REMARK    8  A    between atoms: C_23  and  O_24
REMARK                            x       y       z     vdW  Elec       q    Type
REMARK                         _______ _______ _______ _____ _____    ______ ____
ROOT
ATOM      8  C   UNL     1       1.270  -0.922   0.000  0.00  0.00    +0.156 C 
ATOM      9  C   UNL     1       0.785  -0.255   0.000  0.00  0.00    +0.164 C 
ATOM     10  O   UNL     1       1.270   0.412   0.000  0.00  0.00    -0.348 OA
ATOM     11  C   UNL     1       2.054   0.158   0.000  0.00  0.00    +0.186 C 
ATOM     12  C   UNL     1       2.839   0.412   0.000  0.00  0.00    +0.229 C 
ATOM     13  C   UNL     1       3.324  -0.255   0.000  0.00  0.00    +0.188 C 
ATOM     14  O   UNL     1       2.839  -0.922   0.000  0.00  0.00    -0.348 OA
ATOM     15  C   UNL     1       2.054  -0.667   0.000  0.00  0.00    +0.166 C 
ENDROOT
BRANCH   8   7
ATOM      7  N   UNL     1       1.015  -1.707   0.000  0.00  0.00    -0.078 NA
BRANCH   7   4
ATOM      4  S   UNL     1       0.208  -1.879   0.000  0.00  0.00    +0.057 S 
ATOM      5  O   UNL     1       0.379  -2.686   0.000  0.00  0.00    -0.156 OA
ATOM      6  O   UNL     1       0.036  -1.072   0.000  0.00  0.00    -0.156 OA
BRANCH   4   3
ATOM      3  C   UNL     1      -0.599  -2.050   0.000  0.00  0.00    +0.171 C 
BRANCH   3   2
ATOM      1  C   UNL     1      -1.661  -3.006   0.000  0.00  0.00    +0.002 C 
ATOM      2  C   UNL     1      -0.854  -2.835   0.000  0.00  0.00    +0.027 C 
ENDBRANCH   3   2
ENDBRANCH   4   3
ENDBRANCH   7   4
ENDBRANCH   8   7
BRANCH  12  16
ATOM     16  O   UNL     1       3.094   1.197   0.000  0.00  0.00    -0.432 OA
BRANCH  16  17
ATOM     17  C   UNL     1       3.901   1.369   0.000  0.00  0.00    +0.425 C 
ATOM     18  O   UNL     1       4.453   0.756   0.000  0.00  0.00    -0.224 OA
ATOM     19  N   UNL     1       4.156   2.153   0.000  0.00  0.00    -0.142 NA
BRANCH  19  20
ATOM     20  C   UNL     1       4.963   2.325   0.000  0.00  0.00    +0.077 A 
ATOM     21  C   UNL     1       5.218   3.109   0.000  0.00  0.00    +0.020 A 
ATOM     22  C   UNL     1       6.024   3.281   0.000  0.00  0.00    +0.038 A 
ATOM     23  C   UNL     1       6.577   2.668   0.000  0.00  0.00    +0.139 A 
ATOM     26  C   UNL     1       6.322   1.883   0.000  0.00  0.00    +0.038 A 
ATOM     27  C   UNL     1       5.515   1.712   0.000  0.00  0.00    +0.020 A 
BRANCH  23  24
ATOM     24  O   UNL     1       7.383   2.839   0.000  0.00  0.00    -0.471 OA
ATOM     25  C   UNL     1       7.638   3.624   0.000  0.00  0.00    +0.252 C 
ENDBRANCH  23  24
ENDBRANCH  19  20
ENDBRANCH  16  17
ENDBRANCH  12  16
TORSDOF 8
