MODEL 1
REMARK VINA RESULT:     -13.1      0.000      0.000
REMARK  Name = 
REMARK  4 active torsions:
REMARK  status: ('A' for Active; 'I' for Inactive)
REMARK    1  A    between atoms: C_7  and  N_10
REMARK    2  A    between atoms: C_13  and  C_15
REMARK    3  A    between atoms: C_18  and  C_19
REMARK    4  A    between atoms: C_19  and  C_20
REMARK                            x       y       z     vdW  Elec       q    Type
REMARK                         _______ _______ _______ _____ _____    ______ ____
ROOT
ATOM     10  N   UNL     1      -4.411   0.625  24.897  0.00  0.00    -0.273 NA
ATOM     11  C   UNL     1      -5.176   0.930  24.934  0.00  0.00    +0.073 C 
ATOM     12  C   UNL     1      -5.122   1.751  24.999  0.00  0.00    +0.028 C 
ATOM     13  C   UNL     1      -4.322   1.953  25.001  0.00  0.00    +0.095 C 
ATOM     14  C   UNL     1      -3.883   1.257  24.938  0.00  0.00    +0.081 C 
ENDROOT
BRANCH  10   7
ATOM      1  C   UNL     1      -3.737  -2.964  23.921  0.00  0.00    +0.095 C 
ATOM      2  C   UNL     1      -3.604  -2.563  24.629  0.00  0.00    +0.226 C 
ATOM      3  O   UNL     1      -3.270  -2.959  25.271  0.00  0.00    -0.275 OA
ATOM      4  N   UNL     1      -3.806  -1.766  24.696  0.00  0.00    -0.279 N 
ATOM      5  C   UNL     1      -3.673  -1.365  25.405  0.00  0.00    +0.095 C 
ATOM      6  C   UNL     1      -3.875  -0.568  25.472  0.00  0.00    +0.038 C 
ATOM      7  C   UNL     1      -4.209  -0.172  24.830  0.00  0.00    +0.061 C 
ATOM      8  C   UNL     1      -4.343  -0.572  24.122  0.00  0.00    +0.038 C 
ATOM      9  C   UNL     1      -4.141  -1.369  24.055  0.00  0.00    +0.095 C 
ENDBRANCH  10   7
BRANCH  13  15
ATOM     15  C   UNL     1      -4.015   2.717  25.057  0.00  0.00    +0.227 A 
ATOM     16  N   UNL     1      -4.243   3.366  24.601  0.00  0.00    -0.112 NA
ATOM     17  N   UNL     1      -3.795   4.016  24.841  0.00  0.00    -0.111 NA
ATOM     18  C   UNL     1      -3.291   3.769  25.445  0.00  0.00    +0.230 A 
ATOM     26  O   UNL     1      -3.427   2.966  25.579  0.00  0.00    -0.423 OA
BRANCH  18  19
ATOM     19  C   UNL     1      -2.745   4.242  25.845  0.00  0.00    +0.113 C 
BRANCH  19  20
ATOM     20  C   UNL     1      -2.001   4.381  25.518  0.00  0.00    -0.013 A 
ATOM     21  C   UNL     1      -1.422   3.794  25.546  0.00  0.00    -0.004 A 
ATOM     22  C   UNL     1      -0.677   3.933  25.219  0.00  0.00    -0.000 A 
ATOM     23  C   UNL     1      -0.512   4.659  24.863  0.00  0.00    -0.000 A 
ATOM     24  C   UNL     1      -1.091   5.246  24.835  0.00  0.00    -0.000 A 
ATOM     25  C   UNL     1      -1.836   5.107  25.163  0.00  0.00    -0.004 A 
ENDBRANCH  19  20
ENDBRANCH  18  19
ENDBRANCH  13  15
TORSDOF 4
ENDMDL
MODEL 2
REMARK VINA RESULT:     -11.9      1.975      6.034
REMARK  Name = 
REMARK  4 active torsions:
REMARK  status: ('A' for Active; 'I' for Inactive)
REMARK    1  A    between atoms: C_7  and  N_10
REMARK    2  A    between atoms: C_13  and  C_15
REMARK    3  A    between atoms: C_18  and  C_19
REMARK    4  A    between atoms: C_19  and  C_20
REMARK                            x       y       z     vdW  Elec       q    Type
REMARK                         _______ _______ _______ _____ _____    ______ ____
ROOT
ATOM     10  N   UNL     1      -0.939   1.903  25.077  0.00  0.00    -0.273 NA
ATOM     11  C   UNL     1      -0.287   1.471  24.817  0.00  0.00    +0.073 C 
ATOM     12  C   UNL     1      -0.447   0.670  24.933  0.00  0.00    +0.028 C 
ATOM     13  C   UNL     1      -1.200   0.608  25.266  0.00  0.00    +0.095 C 
ATOM     14  C   UNL     1      -1.503   1.370  25.355  0.00  0.00    +0.081 C 
ENDROOT
BRANCH  10   7
ATOM      1  C   UNL     1      -1.929   5.545  25.292  0.00  0.00    +0.095 C 
ATOM      2  C   UNL     1      -1.237   5.189  25.019  0.00  0.00    +0.226 C 
ATOM      3  O   UNL     1      -0.619   5.654  24.731  0.00  0.00    -0.275 OA
ATOM      4  N   UNL     1      -1.163   4.368  25.033  0.00  0.00    -0.279 N 
ATOM      5  C   UNL     1      -0.470   4.011  24.760  0.00  0.00    +0.095 C 
ATOM      6  C   UNL     1      -0.395   3.190  24.774  0.00  0.00    +0.038 C 
ATOM      7  C   UNL     1      -1.013   2.725  25.063  0.00  0.00    +0.061 C 
ATOM      8  C   UNL     1      -1.705   3.081  25.336  0.00  0.00    +0.038 C 
ATOM      9  C   UNL     1      -1.780   3.902  25.321  0.00  0.00    +0.095 C 
ENDBRANCH  10   7
BRANCH  13  15
ATOM     15  C   UNL     1      -1.582  -0.093  25.473  0.00  0.00    +0.227 A 
ATOM     16  N   UNL     1      -1.221  -0.771  25.775  0.00  0.00    -0.112 NA
ATOM     17  N   UNL     1      -1.808  -1.337  25.904  0.00  0.00    -0.111 NA
ATOM     18  C   UNL     1      -2.531  -1.009  25.681  0.00  0.00    +0.230 A 
ATOM     26  O   UNL     1      -2.391  -0.240  25.415  0.00  0.00    -0.423 OA
BRANCH  18  19
ATOM     19  C   UNL     1      -3.266  -1.383  25.718  0.00  0.00    +0.113 C 
BRANCH  19  20
ATOM     20  C   UNL     1      -3.574  -1.753  25.048  0.00  0.00    -0.013 A 
ATOM     21  C   UNL     1      -3.410  -2.549  24.904  0.00  0.00    -0.004 A 
ATOM     22  C   UNL     1      -3.718  -2.919  24.234  0.00  0.00    -0.000 A 
ATOM     23  C   UNL     1      -4.191  -2.493  23.709  0.00  0.00    -0.000 A 
ATOM     24  C   UNL     1      -4.355  -1.698  23.853  0.00  0.00    -0.000 A 
ATOM     25  C   UNL     1      -4.047  -1.327  24.523  0.00  0.00    -0.004 A 
ENDBRANCH  19  20
ENDBRANCH  18  19
ENDBRANCH  13  15
TORSDOF 4
ENDMDL
MODEL 3
REMARK VINA RESULT:     -11.5      1.296      5.512
REMARK  Name = 
REMARK  4 active torsions:
REMARK  status: ('A' for Active; 'I' for Inactive)
REMARK    1  A    between atoms: C_7  and  N_10
REMARK    2  A    between atoms: C_13  and  C_15
REMARK    3  A    between atoms: C_18  and  C_19
REMARK    4  A    between atoms: C_19  and  C_20
REMARK                            x       y       z     vdW  Elec       q    Type
REMARK                         _______ _______ _______ _____ _____    ______ ____
ROOT
ATOM     10  N   UNL     1      -3.514   2.506  24.895  0.00  0.00    -0.273 NA
ATOM     11  C   UNL     1      -4.334   2.587  24.865  0.00  0.00    +0.073 C 
ATOM     12  C   UNL     1      -4.664   1.832  24.832  0.00  0.00    +0.028 C 
ATOM     13  C   UNL     1      -4.048   1.284  24.841  0.00  0.00    +0.095 C 
ATOM     14  C   UNL     1      -3.337   1.701  24.880  0.00  0.00    +0.081 C 
ENDROOT
BRANCH  10   7
ATOM      1  C   UNL     1      -0.550   4.850  24.794  0.00  0.00    +0.095 C 
ATOM      2  C   UNL     1      -1.325   4.972  25.045  0.00  0.00    +0.226 C 
ATOM      3  O   UNL     1      -1.555   5.709  25.335  0.00  0.00    -0.275 OA
ATOM      4  N   UNL     1      -1.872   4.355  25.007  0.00  0.00    -0.279 N 
ATOM      5  C   UNL     1      -2.649   4.477  25.259  0.00  0.00    +0.095 C 
ATOM      6  C   UNL     1      -3.196   3.860  25.222  0.00  0.00    +0.038 C 
ATOM      7  C   UNL     1      -2.966   3.123  24.932  0.00  0.00    +0.061 C 
ATOM      8  C   UNL     1      -2.191   3.001  24.681  0.00  0.00    +0.038 C 
ATOM      9  C   UNL     1      -1.644   3.617  24.718  0.00  0.00    +0.095 C 
ENDBRANCH  10   7
BRANCH  13  15
ATOM     15  C   UNL     1      -4.128   0.463  24.817  0.00  0.00    +0.227 A 
ATOM     16  N   UNL     1      -4.633   0.040  24.320  0.00  0.00    -0.112 NA
ATOM     17  N   UNL     1      -4.534  -0.764  24.480  0.00  0.00    -0.111 NA
ATOM     18  C   UNL     1      -3.968  -0.837  25.076  0.00  0.00    +0.230 A 
ATOM     26  O   UNL     1      -3.717  -0.078  25.284  0.00  0.00    -0.423 OA
BRANCH  18  19
ATOM     19  C   UNL     1      -3.700  -1.544  25.406  0.00  0.00    +0.113 C 
BRANCH  19  20
ATOM     20  C   UNL     1      -3.103  -1.974  25.032  0.00  0.00    -0.013 A 
ATOM     21  C   UNL     1      -2.311  -1.780  25.162  0.00  0.00    -0.004 A 
ATOM     22  C   UNL     1      -1.715  -2.209  24.788  0.00  0.00    -0.000 A 
ATOM     23  C   UNL     1      -1.910  -2.833  24.284  0.00  0.00    -0.000 A 
ATOM     24  C   UNL     1      -2.700  -3.027  24.154  0.00  0.00    -0.000 A 
ATOM     25  C   UNL     1      -3.298  -2.597  24.528  0.00  0.00    -0.004 A 
ENDBRANCH  19  20
ENDBRANCH  18  19
ENDBRANCH  13  15
TORSDOF 4
ENDMDL
MODEL 4
REMARK VINA RESULT:     -11.0      2.232      2.812
REMARK  Name = 
REMARK  4 active torsions:
REMARK  status: ('A' for Active; 'I' for Inactive)
REMARK    1  A    between atoms: C_7  and  N_10
REMARK    2  A    between atoms: C_13  and  C_15
REMARK    3  A    between atoms: C_18  and  C_19
REMARK    4  A    between atoms: C_19  and  C_20
REMARK                            x       y       z     vdW  Elec       q    Type
REMARK                         _______ _______ _______ _____ _____    ______ ____
ROOT
ATOM     10  N   UNL     1      -1.282  -0.607  24.518  0.00  0.00    -0.273 NA
ATOM     11  C   UNL     1      -0.485  -0.813  24.487  0.00  0.00    +0.073 C 
ATOM     12  C   UNL     1      -0.039  -0.126  24.585  0.00  0.00    +0.028 C 
ATOM     13  C   UNL     1      -0.562   0.506  24.676  0.00  0.00    +0.095 C 
ATOM     14  C   UNL     1      -1.330   0.208  24.635  0.00  0.00    +0.081 C 
ENDROOT
BRANCH  10   7
ATOM      1  C   UNL     1      -4.567  -2.397  23.975  0.00  0.00    +0.095 C 
ATOM      2  C   UNL     1      -3.834  -2.679  24.227  0.00  0.00    +0.226 C 
ATOM      3  O   UNL     1      -3.738  -3.479  24.406  0.00  0.00    -0.275 OA
ATOM      4  N   UNL     1      -3.196  -2.161  24.300  0.00  0.00    -0.279 N 
ATOM      5  C   UNL     1      -2.462  -2.443  24.551  0.00  0.00    +0.095 C 
ATOM      6  C   UNL     1      -1.824  -1.925  24.624  0.00  0.00    +0.038 C 
ATOM      7  C   UNL     1      -1.920  -1.125  24.445  0.00  0.00    +0.061 C 
ATOM      8  C   UNL     1      -2.653  -0.843  24.194  0.00  0.00    +0.038 C 
ATOM      9  C   UNL     1      -3.291  -1.361  24.121  0.00  0.00    +0.095 C 
ENDBRANCH  10   7
BRANCH  13  15
ATOM     15  C   UNL     1      -0.353   1.296  24.789  0.00  0.00    +0.227 A 
ATOM     16  N   UNL     1       0.158   1.735  24.313  0.00  0.00    -0.112 NA
ATOM     17  N   UNL     1       0.208   2.497  24.627  0.00  0.00    -0.111 NA
ATOM     18  C   UNL     1      -0.273   2.528  25.297  0.00  0.00    +0.230 A 
ATOM     26  O   UNL     1      -0.620   1.786  25.397  0.00  0.00    -0.423 OA
BRANCH  18  19
ATOM     19  C   UNL     1      -0.387   3.186  25.782  0.00  0.00    +0.113 C 
BRANCH  19  20
ATOM     20  C   UNL     1      -0.978   3.733  25.603  0.00  0.00    -0.013 A 
ATOM     21  C   UNL     1      -1.742   3.624  25.895  0.00  0.00    -0.004 A 
ATOM     22  C   UNL     1      -2.333   4.171  25.717  0.00  0.00    -0.000 A 
ATOM     23  C   UNL     1      -2.161   4.826  25.245  0.00  0.00    -0.000 A 
ATOM     24  C   UNL     1      -1.397   4.934  24.953  0.00  0.00    -0.000 A 
ATOM     25  C   UNL     1      -0.805   4.387  25.132  0.00  0.00    -0.004 A 
ENDBRANCH  19  20
ENDBRANCH  18  19
ENDBRANCH  13  15
TORSDOF 4
ENDMDL
MODEL 5
REMARK VINA RESULT:     -10.5      2.697      4.262
REMARK  Name = 
REMARK  4 active torsions:
REMARK  status: ('A' for Active; 'I' for Inactive)
REMARK    1  A    between atoms: C_7  and  N_10
REMARK    2  A    between atoms: C_13  and  C_15
REMARK    3  A    between atoms: C_18  and  C_19
REMARK    4  A    between atoms: C_19  and  C_20
REMARK                            x       y       z     vdW  Elec       q    Type
REMARK                         _______ _______ _______ _____ _____    ______ ____
ROOT
ATOM     10  N   UNL     1      -0.653   2.202  24.961  0.00  0.00    -0.273 NA
ATOM     11  C   UNL     1      -0.343   2.651  25.579  0.00  0.00    +0.073 C 
ATOM     12  C   UNL     1      -0.947   3.127  25.878  0.00  0.00    +0.028 C 
ATOM     13  C   UNL     1      -1.631   2.972  25.444  0.00  0.00    +0.095 C 
ATOM     14  C   UNL     1      -1.449   2.400  24.877  0.00  0.00    +0.081 C 
ENDROOT
BRANCH  10   7
ATOM      1  C   UNL     1       1.739   0.195  22.831  0.00  0.00    +0.095 C 
ATOM      2  C   UNL     1       1.001   0.000  23.143  0.00  0.00    +0.226 C 
ATOM      3  O   UNL     1       0.676  -0.745  23.001  0.00  0.00    -0.275 OA
ATOM      4  N   UNL     1       0.588   0.551  23.598  0.00  0.00    -0.279 N 
ATOM      5  C   UNL     1      -0.151   0.356  23.910  0.00  0.00    +0.095 C 
ATOM      6  C   UNL     1      -0.565   0.907  24.365  0.00  0.00    +0.038 C 
ATOM      7  C   UNL     1      -0.239   1.652  24.507  0.00  0.00    +0.061 C 
ATOM      8  C   UNL     1       0.498   1.846  24.195  0.00  0.00    +0.038 C 
ATOM      9  C   UNL     1       0.912   1.296  23.740  0.00  0.00    +0.095 C 
ENDBRANCH  10   7
BRANCH  13  15
ATOM     15  C   UNL     1      -2.368   3.326  25.556  0.00  0.00    +0.227 A 
ATOM     16  N   UNL     1      -2.559   3.872  26.144  0.00  0.00    -0.112 NA
ATOM     17  N   UNL     1      -3.353   4.079  26.051  0.00  0.00    -0.111 NA
ATOM     18  C   UNL     1      -3.651   3.662  25.406  0.00  0.00    +0.230 A 
ATOM     26  O   UNL     1      -3.043   3.196  25.100  0.00  0.00    -0.423 OA
BRANCH  18  19
ATOM     19  C   UNL     1      -4.423   3.703  25.117  0.00  0.00    +0.113 C 
BRANCH  19  20
ATOM     20  C   UNL     1      -4.941   3.070  25.232  0.00  0.00    -0.013 A 
ATOM     21  C   UNL     1      -5.017   2.489  24.650  0.00  0.00    -0.004 A 
ATOM     22  C   UNL     1      -5.535   1.857  24.765  0.00  0.00    -0.000 A 
ATOM     23  C   UNL     1      -5.975   1.806  25.461  0.00  0.00    -0.000 A 
ATOM     24  C   UNL     1      -5.899   2.386  26.042  0.00  0.00    -0.000 A 
ATOM     25  C   UNL     1      -5.381   3.019  25.928  0.00  0.00    -0.004 A 
ENDBRANCH  19  20
ENDBRANCH  18  19
ENDBRANCH  13  15
TORSDOF 4
ENDMDL
MODEL 6
REMARK VINA RESULT:     -10.1      3.370      5.552
REMARK  Name = 
REMARK  4 active torsions:
REMARK  status: ('A' for Active; 'I' for Inactive)
REMARK    1  A    between atoms: C_7  and  N_10
REMARK    2  A    between atoms: C_13  and  C_15
REMARK    3  A    between atoms: C_18  and  C_19
REMARK    4  A    between atoms: C_19  and  C_20
REMARK                            x       y       z     vdW  Elec       q    Type
REMARK                         _______ _______ _______ _____ _____    ______ ____
ROOT
ATOM     10  N   UNL     1      -0.286   1.054  24.186  0.00  0.00    -0.273 NA
ATOM     11  C   UNL     1      -0.393   1.676  24.717  0.00  0.00    +0.073 C 
ATOM     12  C   UNL     1      -1.178   1.665  24.971  0.00  0.00    +0.028 C 
ATOM     13  C   UNL     1      -1.557   1.036  24.595  0.00  0.00    +0.095 C 
ATOM     14  C   UNL     1      -1.006   0.658  24.110  0.00  0.00    +0.081 C 
ENDROOT
BRANCH  10   7
ATOM      1  C   UNL     1       3.188   0.764  22.727  0.00  0.00    +0.095 C 
ATOM      2  C   UNL     1       2.524   0.285  22.636  0.00  0.00    +0.226 C 
ATOM      3  O   UNL     1       2.560  -0.387  22.159  0.00  0.00    -0.275 OA
ATOM      4  N   UNL     1       1.821   0.477  23.024  0.00  0.00    -0.279 N 
ATOM      5  C   UNL     1       1.155  -0.002  22.934  0.00  0.00    +0.095 C 
ATOM      6  C   UNL     1       0.453   0.190  23.321  0.00  0.00    +0.038 C 
ATOM      7  C   UNL     1       0.416   0.862  23.799  0.00  0.00    +0.061 C 
ATOM      8  C   UNL     1       1.081   1.341  23.889  0.00  0.00    +0.038 C 
ATOM      9  C   UNL     1       1.783   1.149  23.501  0.00  0.00    +0.095 C 
ENDBRANCH  10   7
BRANCH  13  15
ATOM     15  C   UNL     1      -2.348   0.821  24.688  0.00  0.00    +0.227 A 
ATOM     16  N   UNL     1      -3.002   1.284  24.491  0.00  0.00    -0.112 NA
ATOM     17  N   UNL     1      -3.683   0.855  24.675  0.00  0.00    -0.111 NA
ATOM     18  C   UNL     1      -3.450   0.128  24.985  0.00  0.00    +0.230 A 
ATOM     26  O   UNL     1      -2.625   0.107  24.993  0.00  0.00    -0.423 OA
BRANCH  18  19
ATOM     19  C   UNL     1      -3.953  -0.473  25.243  0.00  0.00    +0.113 C 
BRANCH  19  20
ATOM     20  C   UNL     1      -3.900  -1.226  24.910  0.00  0.00    -0.013 A 
ATOM     21  C   UNL     1      -3.495  -1.826  25.308  0.00  0.00    -0.004 A 
ATOM     22  C   UNL     1      -3.442  -2.579  24.976  0.00  0.00    -0.000 A 
ATOM     23  C   UNL     1      -3.794  -2.732  24.245  0.00  0.00    -0.000 A 
ATOM     24  C   UNL     1      -4.198  -2.134  23.847  0.00  0.00    -0.000 A 
ATOM     25  C   UNL     1      -4.251  -1.380  24.180  0.00  0.00    -0.004 A 
ENDBRANCH  19  20
ENDBRANCH  18  19
ENDBRANCH  13  15
TORSDOF 4
ENDMDL
MODEL 7
REMARK VINA RESULT:     -10.0      2.997      4.402
REMARK  Name = 
REMARK  4 active torsions:
REMARK  status: ('A' for Active; 'I' for Inactive)
REMARK    1  A    between atoms: C_7  and  N_10
REMARK    2  A    between atoms: C_13  and  C_15
REMARK    3  A    between atoms: C_18  and  C_19
REMARK    4  A    between atoms: C_19  and  C_20
REMARK                            x       y       z     vdW  Elec       q    Type
REMARK                         _______ _______ _______ _____ _____    ______ ____
ROOT
ATOM     10  N   UNL     1      -1.244  -0.187  24.650  0.00  0.00    -0.273 NA
ATOM     11  C   UNL     1      -1.343  -0.729  25.264  0.00  0.00    +0.073 C 
ATOM     12  C   UNL     1      -2.136  -0.714  25.493  0.00  0.00    +0.028 C 
ATOM     13  C   UNL     1      -2.526  -0.162  25.021  0.00  0.00    +0.095 C 
ATOM     14  C   UNL     1      -1.975   0.164  24.500  0.00  0.00    +0.081 C 
ENDROOT
BRANCH  10   7
ATOM      1  C   UNL     1       1.919  -0.104  22.581  0.00  0.00    +0.095 C 
ATOM      2  C   UNL     1       1.582   0.464  23.075  0.00  0.00    +0.226 C 
ATOM      3  O   UNL     1       1.951   1.195  23.175  0.00  0.00    -0.275 OA
ATOM      4  N   UNL     1       0.875   0.301  23.469  0.00  0.00    -0.279 N 
ATOM      5  C   UNL     1       0.538   0.870  23.963  0.00  0.00    +0.095 C 
ATOM      6  C   UNL     1      -0.169   0.707  24.357  0.00  0.00    +0.038 C 
ATOM      7  C   UNL     1      -0.537  -0.024  24.256  0.00  0.00    +0.061 C 
ATOM      8  C   UNL     1      -0.200  -0.592  23.763  0.00  0.00    +0.038 C 
ATOM      9  C   UNL     1       0.506  -0.430  23.369  0.00  0.00    +0.095 C 
ENDBRANCH  10   7
BRANCH  13  15
ATOM     15  C   UNL     1      -3.327   0.031  25.061  0.00  0.00    +0.227 A 
ATOM     16  N   UNL     1      -3.902  -0.374  25.493  0.00  0.00    -0.112 NA
ATOM     17  N   UNL     1      -4.625   0.008  25.376  0.00  0.00    -0.111 NA
ATOM     18  C   UNL     1      -4.496   0.648  24.872  0.00  0.00    +0.230 A 
ATOM     26  O   UNL     1      -3.694   0.663  24.678  0.00  0.00    -0.423 OA
BRANCH  18  19
ATOM     19  C   UNL     1      -5.069   1.181  24.609  0.00  0.00    +0.113 C 
BRANCH  19  20
ATOM     20  C   UNL     1      -5.115   1.934  24.941  0.00  0.00    -0.013 A 
ATOM     21  C   UNL     1      -4.695   2.560  24.605  0.00  0.00    -0.004 A 
ATOM     22  C   UNL     1      -4.741   3.314  24.938  0.00  0.00    -0.000 A 
ATOM     23  C   UNL     1      -5.208   3.441  25.606  0.00  0.00    -0.000 A 
ATOM     24  C   UNL     1      -5.628   2.817  25.942  0.00  0.00    -0.000 A 
ATOM     25  C   UNL     1      -5.582   2.062  25.610  0.00  0.00    -0.004 A 
ENDBRANCH  19  20
ENDBRANCH  18  19
ENDBRANCH  13  15
TORSDOF 4
ENDMDL
MODEL 8
REMARK VINA RESULT:      -9.9      1.449      2.038
REMARK  Name = 
REMARK  4 active torsions:
REMARK  status: ('A' for Active; 'I' for Inactive)
REMARK    1  A    between atoms: C_7  and  N_10
REMARK    2  A    between atoms: C_13  and  C_15
REMARK    3  A    between atoms: C_18  and  C_19
REMARK    4  A    between atoms: C_19  and  C_20
REMARK                            x       y       z     vdW  Elec       q    Type
REMARK                         _______ _______ _______ _____ _____    ______ ____
ROOT
ATOM     10  N   UNL     1      -3.640  -0.338  24.749  0.00  0.00    -0.273 NA
ATOM     11  C   UNL     1      -4.385  -0.548  24.465  0.00  0.00    +0.073 C 
ATOM     12  C   UNL     1      -4.875   0.114  24.516  0.00  0.00    +0.028 C 
ATOM     13  C   UNL     1      -4.432   0.734  24.832  0.00  0.00    +0.095 C 
ATOM     14  C   UNL     1      -3.669   0.455  24.976  0.00  0.00    +0.081 C 
ENDROOT
BRANCH  10   7
ATOM      1  C   UNL     1      -0.285  -2.018  25.207  0.00  0.00    +0.095 C 
ATOM      2  C   UNL     1      -1.006  -2.317  24.942  0.00  0.00    +0.226 C 
ATOM      3  O   UNL     1      -1.070  -3.110  24.724  0.00  0.00    -0.275 OA
ATOM      4  N   UNL     1      -1.664  -1.822  24.893  0.00  0.00    -0.279 N 
ATOM      5  C   UNL     1      -2.387  -2.120  24.628  0.00  0.00    +0.095 C 
ATOM      6  C   UNL     1      -3.045  -1.626  24.579  0.00  0.00    +0.038 C 
ATOM      7  C   UNL     1      -2.981  -0.832  24.797  0.00  0.00    +0.061 C 
ATOM      8  C   UNL     1      -2.260  -0.534  25.062  0.00  0.00    +0.038 C 
ATOM      9  C   UNL     1      -1.602  -1.029  25.111  0.00  0.00    +0.095 C 
ENDBRANCH  10   7
BRANCH  13  15
ATOM     15  C   UNL     1      -4.704   1.498  24.979  0.00  0.00    +0.227 A 
ATOM     16  N   UNL     1      -5.444   1.700  25.285  0.00  0.00    -0.112 NA
ATOM     17  N   UNL     1      -5.481   2.522  25.341  0.00  0.00    -0.111 NA
ATOM     18  C   UNL     1      -4.765   2.829  25.069  0.00  0.00    +0.230 A 
ATOM     26  O   UNL     1      -4.285   2.196  24.845  0.00  0.00    -0.423 OA
BRANCH  18  19
ATOM     19  C   UNL     1      -4.565   3.629  25.028  0.00  0.00    +0.113 C 
BRANCH  19  20
ATOM     20  C   UNL     1      -3.814   3.878  25.263  0.00  0.00    -0.013 A 
ATOM     21  C   UNL     1      -3.650   3.994  26.063  0.00  0.00    -0.004 A 
ATOM     22  C   UNL     1      -2.899   4.243  26.298  0.00  0.00    -0.000 A 
ATOM     23  C   UNL     1      -2.314   4.377  25.732  0.00  0.00    -0.000 A 
ATOM     24  C   UNL     1      -2.478   4.262  24.932  0.00  0.00    -0.000 A 
ATOM     25  C   UNL     1      -3.229   4.012  24.697  0.00  0.00    -0.004 A 
ENDBRANCH  19  20
ENDBRANCH  18  19
ENDBRANCH  13  15
TORSDOF 4
ENDMDL
MODEL 9
REMARK VINA RESULT:      -9.8      1.931      5.487
REMARK  Name = 
REMARK  4 active torsions:
REMARK  status: ('A' for Active; 'I' for Inactive)
REMARK    1  A    between atoms: C_7  and  N_10
REMARK    2  A    between atoms: C_13  and  C_15
REMARK    3  A    between atoms: C_18  and  C_19
REMARK    4  A    between atoms: C_19  and  C_20
REMARK                            x       y       z     vdW  Elec       q    Type
REMARK                         _______ _______ _______ _____ _____    ______ ____
ROOT
ATOM     10  N   UNL     1      -2.485   2.021  24.809  0.00  0.00    -0.273 NA
ATOM     11  C   UNL     1      -1.748   2.326  24.598  0.00  0.00    +0.073 C 
ATOM     12  C   UNL     1      -1.232   1.692  24.486  0.00  0.00    +0.028 C 
ATOM     13  C   UNL     1      -1.651   0.995  24.628  0.00  0.00    +0.095 C 
ATOM     14  C   UNL     1      -2.425   1.199  24.827  0.00  0.00    +0.081 C 
ENDROOT
BRANCH  10   7
ATOM      1  C   UNL     1      -5.927   3.407  25.533  0.00  0.00    +0.095 C 
ATOM      2  C   UNL     1      -5.197   3.784  25.464  0.00  0.00    +0.226 C 
ATOM      3  O   UNL     1      -5.144   4.602  25.558  0.00  0.00    -0.275 OA
ATOM      4  N   UNL     1      -4.519   3.344  25.300  0.00  0.00    -0.279 N 
ATOM      5  C   UNL     1      -3.788   3.721  25.230  0.00  0.00    +0.095 C 
ATOM      6  C   UNL     1      -3.110   3.280  25.067  0.00  0.00    +0.038 C 
ATOM      7  C   UNL     1      -3.163   2.462  24.973  0.00  0.00    +0.061 C 
ATOM      8  C   UNL     1      -3.893   2.085  25.042  0.00  0.00    +0.038 C 
ATOM      9  C   UNL     1      -4.571   2.526  25.206  0.00  0.00    +0.095 C 
ENDBRANCH  10   7
BRANCH  13  15
ATOM     15  C   UNL     1      -1.349   0.229  24.578  0.00  0.00    +0.227 A 
ATOM     16  N   UNL     1      -0.654   0.006  24.194  0.00  0.00    -0.112 NA
ATOM     17  N   UNL     1      -0.564  -0.810  24.283  0.00  0.00    -0.111 NA
ATOM     18  C   UNL     1      -1.203  -1.090  24.722  0.00  0.00    +0.230 A 
ATOM     26  O   UNL     1      -1.689  -0.448  24.905  0.00  0.00    -0.423 OA
BRANCH  18  19
ATOM     19  C   UNL     1      -1.335  -1.875  24.940  0.00  0.00    +0.113 C 
BRANCH  19  20
ATOM     20  C   UNL     1      -2.074  -2.219  24.817  0.00  0.00    -0.013 A 
ATOM     21  C   UNL     1      -2.241  -2.590  24.099  0.00  0.00    -0.004 A 
ATOM     22  C   UNL     1      -2.981  -2.935  23.975  0.00  0.00    -0.000 A 
ATOM     23  C   UNL     1      -3.552  -2.908  24.569  0.00  0.00    -0.000 A 
ATOM     24  C   UNL     1      -3.385  -2.538  25.286  0.00  0.00    -0.000 A 
ATOM     25  C   UNL     1      -2.646  -2.193  25.411  0.00  0.00    -0.004 A 
ENDBRANCH  19  20
ENDBRANCH  18  19
ENDBRANCH  13  15
TORSDOF 4
ENDMDL
MODEL 10
REMARK VINA RESULT:      -9.1      2.451      4.619
REMARK  Name = 
REMARK  4 active torsions:
REMARK  status: ('A' for Active; 'I' for Inactive)
REMARK    1  A    between atoms: C_7  and  N_10
REMARK    2  A    between atoms: C_13  and  C_15
REMARK    3  A    between atoms: C_18  and  C_19
REMARK    4  A    between atoms: C_19  and  C_20
REMARK                            x       y       z     vdW  Elec       q    Type
REMARK                         _______ _______ _______ _____ _____    ______ ____
ROOT
ATOM     10  N   UNL     1      -4.251   0.575  24.848  0.00  0.00    -0.273 NA
ATOM     11  C   UNL     1      -4.662  -0.098  24.606  0.00  0.00    +0.073 C 
ATOM     12  C   UNL     1      -4.116  -0.707  24.498  0.00  0.00    +0.028 C 
ATOM     13  C   UNL     1      -3.367  -0.409  24.672  0.00  0.00    +0.095 C 
ATOM     14  C   UNL     1      -3.450   0.383  24.888  0.00  0.00    +0.081 C 
ENDROOT
BRANCH  10   7
ATOM      1  C   UNL     1      -5.160   4.209  25.357  0.00  0.00    +0.095 C 
ATOM      2  C   UNL     1      -5.577   3.519  25.530  0.00  0.00    +0.226 C 
ATOM      3  O   UNL     1      -6.325   3.564  25.874  0.00  0.00    -0.275 OA
ATOM      4  N   UNL     1      -5.245   2.783  25.360  0.00  0.00    -0.279 N 
ATOM      5  C   UNL     1      -5.663   2.092  25.533  0.00  0.00    +0.095 C 
ATOM      6  C   UNL     1      -5.331   1.356  25.362  0.00  0.00    +0.038 C 
ATOM      7  C   UNL     1      -4.583   1.311  25.018  0.00  0.00    +0.061 C 
ATOM      8  C   UNL     1      -4.166   2.001  24.845  0.00  0.00    +0.038 C 
ATOM      9  C   UNL     1      -4.497   2.737  25.016  0.00  0.00    +0.095 C 
ENDBRANCH  10   7
BRANCH  13  15
ATOM     15  C   UNL     1      -2.658  -0.830  24.637  0.00  0.00    +0.227 A 
ATOM     16  N   UNL     1      -2.580  -1.636  24.479  0.00  0.00    -0.112 NA
ATOM     17  N   UNL     1      -1.776  -1.823  24.497  0.00  0.00    -0.111 NA
ATOM     18  C   UNL     1      -1.358  -1.132  24.666  0.00  0.00    +0.230 A 
ATOM     26  O   UNL     1      -1.903  -0.519  24.753  0.00  0.00    -0.423 OA
BRANCH  18  19
ATOM     19  C   UNL     1      -0.538  -1.067  24.737  0.00  0.00    +0.113 C 
BRANCH  19  20
ATOM     20  C   UNL     1      -0.122  -0.548  24.249  0.00  0.00    -0.013 A 
ATOM     21  C   UNL     1      -0.026   0.241  24.472  0.00  0.00    -0.004 A 
ATOM     22  C   UNL     1       0.389   0.760  23.984  0.00  0.00    -0.000 A 
ATOM     23  C   UNL     1       0.710   0.490  23.273  0.00  0.00    -0.000 A 
ATOM     24  C   UNL     1       0.614  -0.298  23.050  0.00  0.00    -0.000 A 
ATOM     25  C   UNL     1       0.198  -0.818  23.538  0.00  0.00    -0.004 A 
ENDBRANCH  19  20
ENDBRANCH  18  19
ENDBRANCH  13  15
TORSDOF 4
ENDMDL
