MODEL 1
REMARK VINA RESULT:     -10.6      0.000      0.000
REMARK  Name = 
REMARK  5 active torsions:
REMARK  status: ('A' for Active; 'I' for Inactive)
REMARK    1  A    between atoms: O_2  and  C_3
REMARK    2  A    between atoms: C_6  and  C_9
REMARK    3  A    between atoms: C_12  and  C_14
REMARK    4  A    between atoms: N_19  and  C_20
REMARK    5  A    between atoms: C_20  and  C_21
REMARK                            x       y       z     vdW  Elec       q    Type
REMARK                         _______ _______ _______ _____ _____    ______ ____
ROOT
ATOM      9  C   UNL     1      -3.954   0.336  24.459  0.00  0.00    +0.203 A 
ATOM     10  N   UNL     1      -3.849   0.703  23.728  0.00  0.00    -0.056 NA
ATOM     11  O   UNL     1      -4.002   1.509  23.823  0.00  0.00    -0.336 OA
ATOM     12  C   UNL     1      -4.202   1.639  24.613  0.00  0.00    +0.251 A 
ATOM     13  N   UNL     1      -4.172   0.914  25.006  0.00  0.00    -0.190 NA
ENDROOT
BRANCH   9   6
ATOM      3  C   UNL     1      -3.666  -2.077  24.931  0.00  0.00    +0.139 A 
ATOM      4  C   UNL     1      -3.424  -1.517  25.485  0.00  0.00    +0.037 A 
ATOM      5  C   UNL     1      -3.520  -0.713  25.328  0.00  0.00    +0.006 A 
ATOM      6  C   UNL     1      -3.858  -0.468  24.616  0.00  0.00    +0.039 A 
ATOM      7  C   UNL     1      -4.100  -1.030  24.061  0.00  0.00    +0.006 A 
ATOM      8  C   UNL     1      -4.004  -1.834  24.218  0.00  0.00    +0.037 A 
BRANCH   3   2
ATOM      1  C   UNL     1      -3.191  -3.367  24.538  0.00  0.00    +0.252 C 
ATOM      2  O   UNL     1      -3.570  -2.881  25.088  0.00  0.00    -0.471 OA
ENDBRANCH   3   2
ENDBRANCH   9   6
BRANCH  12  14
ATOM     14  C   UNL     1      -4.397   2.366  24.950  0.00  0.00    +0.141 C 
ATOM     15  C   UNL     1      -5.154   2.613  25.163  0.00  0.00    +0.060 C 
ATOM     16  C   UNL     1      -5.094   3.374  25.478  0.00  0.00    +0.170 C 
ATOM     17  O   UNL     1      -5.720   3.832  25.762  0.00  0.00    -0.222 OA
ATOM     18  C   UNL     1      -4.300   3.595  25.460  0.00  0.00    +0.106 C 
ATOM     19  N   UNL     1      -3.869   2.973  25.133  0.00  0.00    -0.258 NA
BRANCH  19  20
ATOM     20  C   UNL     1      -3.054   2.960  25.012  0.00  0.00    +0.139 C 
BRANCH  20  21
ATOM     21  C   UNL     1      -2.597   3.618  25.211  0.00  0.00    +0.155 A 
ATOM     22  N   UNL     1      -2.221   3.746  25.935  0.00  0.00    -0.226 NA
ATOM     23  C   UNL     1      -1.827   4.470  25.893  0.00  0.00    +0.121 A 
ATOM     24  C   UNL     1      -1.959   4.788  25.142  0.00  0.00    +0.121 A 
ATOM     25  N   UNL     1      -2.434   4.262  24.722  0.00  0.00    -0.226 NA
ENDBRANCH  20  21
ENDBRANCH  19  20
ENDBRANCH  12  14
TORSDOF 5
ENDMDL
MODEL 2
REMARK VINA RESULT:      -9.6      1.649      4.798
REMARK  Name = 
REMARK  5 active torsions:
REMARK  status: ('A' for Active; 'I' for Inactive)
REMARK    1  A    between atoms: O_2  and  C_3
REMARK    2  A    between atoms: C_6  and  C_9
REMARK    3  A    between atoms: C_12  and  C_14
REMARK    4  A    between atoms: N_19  and  C_20
REMARK    5  A    between atoms: C_20  and  C_21
REMARK                            x       y       z     vdW  Elec       q    Type
REMARK                         _______ _______ _______ _____ _____    ______ ____
ROOT
ATOM      9  C   UNL     1      -4.269   1.137  24.474  0.00  0.00    +0.203 A 
ATOM     10  N   UNL     1      -3.914   1.143  23.729  0.00  0.00    -0.056 NA
ATOM     11  O   UNL     1      -3.603   0.391  23.588  0.00  0.00    -0.336 OA
ATOM     12  C   UNL     1      -3.767  -0.080  24.246  0.00  0.00    +0.251 A 
ATOM     13  N   UNL     1      -4.178   0.381  24.793  0.00  0.00    -0.190 NA
ENDROOT
BRANCH   9   6
ATOM      3  C   UNL     1      -5.406   3.048  25.559  0.00  0.00    +0.139 A 
ATOM      4  C   UNL     1      -4.601   3.090  25.391  0.00  0.00    +0.037 A 
ATOM      5  C   UNL     1      -4.221   2.453  25.029  0.00  0.00    +0.006 A 
ATOM      6  C   UNL     1      -4.648   1.774  24.836  0.00  0.00    +0.039 A 
ATOM      7  C   UNL     1      -5.455   1.732  25.004  0.00  0.00    +0.006 A 
ATOM      8  C   UNL     1      -5.834   2.369  25.366  0.00  0.00    +0.037 A 
BRANCH   3   2
ATOM      1  C   UNL     1      -5.791   4.425  25.555  0.00  0.00    +0.252 C 
ATOM      2  O   UNL     1      -5.786   3.685  25.921  0.00  0.00    -0.471 OA
ENDBRANCH   3   2
ENDBRANCH   9   6
BRANCH  12  14
ATOM     14  C   UNL     1      -3.556  -0.871  24.340  0.00  0.00    +0.141 C 
ATOM     15  C   UNL     1      -4.026  -1.523  24.155  0.00  0.00    +0.060 C 
ATOM     16  C   UNL     1      -3.599  -2.205  24.336  0.00  0.00    +0.170 C 
ATOM     17  O   UNL     1      -3.861  -2.982  24.237  0.00  0.00    -0.222 OA
ATOM     18  C   UNL     1      -2.865  -1.975  24.632  0.00  0.00    +0.106 C 
ATOM     19  N   UNL     1      -2.838  -1.151  24.635  0.00  0.00    -0.258 NA
BRANCH  19  20
ATOM     20  C   UNL     1      -2.204  -0.687  24.888  0.00  0.00    +0.139 C 
BRANCH  20  21
ATOM     21  C   UNL     1      -1.449  -1.016  24.943  0.00  0.00    +0.155 A 
ATOM     22  N   UNL     1      -0.883  -1.036  24.343  0.00  0.00    -0.226 NA
ATOM     23  C   UNL     1      -0.212  -1.415  24.637  0.00  0.00    +0.121 A 
ATOM     24  C   UNL     1      -0.364  -1.629  25.420  0.00  0.00    +0.121 A 
ATOM     25  N   UNL     1      -1.128  -1.383  25.609  0.00  0.00    -0.226 NA
ENDBRANCH  20  21
ENDBRANCH  19  20
ENDBRANCH  12  14
TORSDOF 5
ENDMDL
MODEL 3
REMARK VINA RESULT:      -9.4      2.626      4.335
REMARK  Name = 
REMARK  5 active torsions:
REMARK  status: ('A' for Active; 'I' for Inactive)
REMARK    1  A    between atoms: O_2  and  C_3
REMARK    2  A    between atoms: C_6  and  C_9
REMARK    3  A    between atoms: C_12  and  C_14
REMARK    4  A    between atoms: N_19  and  C_20
REMARK    5  A    between atoms: C_20  and  C_21
REMARK                            x       y       z     vdW  Elec       q    Type
REMARK                         _______ _______ _______ _____ _____    ______ ____
ROOT
ATOM      9  C   UNL     1      -3.190   2.568  24.713  0.00  0.00    +0.203 A 
ATOM     10  N   UNL     1      -2.894   3.023  24.093  0.00  0.00    -0.056 NA
ATOM     11  O   UNL     1      -2.070   3.000  24.129  0.00  0.00    -0.336 OA
ATOM     12  C   UNL     1      -1.856   2.530  24.773  0.00  0.00    +0.251 A 
ATOM     13  N   UNL     1      -2.549   2.263  25.134  0.00  0.00    -0.190 NA
ENDROOT
BRANCH   9   6
ATOM      3  C   UNL     1      -5.581   2.182  25.224  0.00  0.00    +0.139 A 
ATOM      4  C   UNL     1      -5.139   1.593  24.854  0.00  0.00    +0.037 A 
ATOM      5  C   UNL     1      -4.342   1.722  24.684  0.00  0.00    +0.006 A 
ATOM      6  C   UNL     1      -3.987   2.439  24.883  0.00  0.00    +0.039 A 
ATOM      7  C   UNL     1      -4.430   3.029  25.254  0.00  0.00    +0.006 A 
ATOM      8  C   UNL     1      -5.227   2.901  25.424  0.00  0.00    +0.037 A 
BRANCH   3   2
ATOM      1  C   UNL     1      -6.608   1.840  26.158  0.00  0.00    +0.252 C 
ATOM      2  O   UNL     1      -6.378   2.054  25.395  0.00  0.00    -0.471 OA
ENDBRANCH   3   2
ENDBRANCH   9   6
BRANCH  12  14
ATOM     14  C   UNL     1      -1.087   2.357  25.014  0.00  0.00    +0.141 C 
ATOM     15  C   UNL     1      -0.683   2.714  25.638  0.00  0.00    +0.060 C 
ATOM     16  C   UNL     1       0.068   2.375  25.683  0.00  0.00    +0.170 C 
ATOM     17  O   UNL     1       0.656   2.568  26.229  0.00  0.00    -0.222 OA
ATOM     18  C   UNL     1       0.128   1.809  25.085  0.00  0.00    +0.106 C 
ATOM     19  N   UNL     1      -0.585   1.799  24.672  0.00  0.00    -0.258 NA
BRANCH  19  20
ATOM     20  C   UNL     1      -0.766   1.314  24.029  0.00  0.00    +0.139 C 
BRANCH  20  21
ATOM     21  C   UNL     1      -0.343   0.615  23.909  0.00  0.00    +0.155 A 
ATOM     22  N   UNL     1      -0.507  -0.117  24.253  0.00  0.00    -0.226 NA
ATOM     23  C   UNL     1       0.052  -0.658  23.980  0.00  0.00    +0.121 A 
ATOM     24  C   UNL     1       0.562  -0.261  23.467  0.00  0.00    +0.121 A 
ATOM     25  N   UNL     1       0.318   0.525  23.423  0.00  0.00    -0.226 NA
ENDBRANCH  20  21
ENDBRANCH  19  20
ENDBRANCH  12  14
TORSDOF 5
ENDMDL
MODEL 4
REMARK VINA RESULT:      -9.3      2.261      3.042
REMARK  Name = 
REMARK  5 active torsions:
REMARK  status: ('A' for Active; 'I' for Inactive)
REMARK    1  A    between atoms: O_2  and  C_3
REMARK    2  A    between atoms: C_6  and  C_9
REMARK    3  A    between atoms: C_12  and  C_14
REMARK    4  A    between atoms: N_19  and  C_20
REMARK    5  A    between atoms: C_20  and  C_21
REMARK                            x       y       z     vdW  Elec       q    Type
REMARK                         _______ _______ _______ _____ _____    ______ ____
ROOT
ATOM      9  C   UNL     1      -1.804  -0.594  25.293  0.00  0.00    +0.203 A 
ATOM     10  N   UNL     1      -1.466  -0.495  26.038  0.00  0.00    -0.056 NA
ATOM     11  O   UNL     1      -0.994   0.182  26.016  0.00  0.00    -0.336 OA
ATOM     12  C   UNL     1      -1.041   0.501  25.257  0.00  0.00    +0.251 A 
ATOM     13  N   UNL     1      -1.541   0.021  24.809  0.00  0.00    -0.190 NA
ENDROOT
BRANCH   9   6
ATOM      3  C   UNL     1      -3.337  -2.418  24.621  0.00  0.00    +0.139 A 
ATOM      4  C   UNL     1      -3.632  -1.754  25.011  0.00  0.00    +0.037 A 
ATOM      5  C   UNL     1      -3.121  -1.146  25.234  0.00  0.00    +0.006 A 
ATOM      6  C   UNL     1      -2.315  -1.202  25.069  0.00  0.00    +0.039 A 
ATOM      7  C   UNL     1      -2.020  -1.867  24.679  0.00  0.00    +0.006 A 
ATOM      8  C   UNL     1      -2.531  -2.475  24.455  0.00  0.00    +0.037 A 
BRANCH   3   2
ATOM      1  C   UNL     1      -4.344  -2.929  23.745  0.00  0.00    +0.252 C 
ATOM      2  O   UNL     1      -3.848  -3.025  24.398  0.00  0.00    -0.471 OA
ENDBRANCH   3   2
ENDBRANCH   9   6
BRANCH  12  14
ATOM     14  C   UNL     1      -0.655   1.180  24.991  0.00  0.00    +0.141 C 
ATOM     15  C   UNL     1       0.085   1.206  24.629  0.00  0.00    +0.060 C 
ATOM     16  C   UNL     1       0.256   1.994  24.455  0.00  0.00    +0.170 C 
ATOM     17  O   UNL     1       0.943   2.273  24.090  0.00  0.00    -0.222 OA
ATOM     18  C   UNL     1      -0.379   2.455  24.710  0.00  0.00    +0.106 C 
ATOM     19  N   UNL     1      -0.942   1.952  25.041  0.00  0.00    -0.258 NA
BRANCH  19  20
ATOM     20  C   UNL     1      -1.665   2.181  25.365  0.00  0.00    +0.139 C 
BRANCH  20  21
ATOM     21  C   UNL     1      -1.897   2.972  25.337  0.00  0.00    +0.155 A 
ATOM     22  N   UNL     1      -2.346   3.325  24.741  0.00  0.00    -0.226 NA
ATOM     23  C   UNL     1      -2.448   4.120  24.935  0.00  0.00    +0.121 A 
ATOM     24  C   UNL     1      -2.062   4.259  25.651  0.00  0.00    +0.121 A 
ATOM     25  N   UNL     1      -1.721   3.550  25.899  0.00  0.00    -0.226 NA
ENDBRANCH  20  21
ENDBRANCH  19  20
ENDBRANCH  12  14
TORSDOF 5
ENDMDL
MODEL 5
REMARK VINA RESULT:      -9.0      1.648      5.100
REMARK  Name = 
REMARK  5 active torsions:
REMARK  status: ('A' for Active; 'I' for Inactive)
REMARK    1  A    between atoms: O_2  and  C_3
REMARK    2  A    between atoms: C_6  and  C_9
REMARK    3  A    between atoms: C_12  and  C_14
REMARK    4  A    between atoms: N_19  and  C_20
REMARK    5  A    between atoms: C_20  and  C_21
REMARK                            x       y       z     vdW  Elec       q    Type
REMARK                         _______ _______ _______ _____ _____    ______ ____
ROOT
ATOM      9  C   UNL     1      -3.680   1.809  24.481  0.00  0.00    +0.203 A 
ATOM     10  N   UNL     1      -3.504   1.753  23.677  0.00  0.00    -0.056 NA
ATOM     11  O   UNL     1      -2.950   1.149  23.579  0.00  0.00    -0.336 OA
ATOM     12  C   UNL     1      -2.784   0.832  24.323  0.00  0.00    +0.251 A 
ATOM     13  N   UNL     1      -3.235   1.240  24.880  0.00  0.00    -0.190 NA
ENDROOT
BRANCH   9   6
ATOM      3  C   UNL     1      -5.265   3.405  25.515  0.00  0.00    +0.139 A 
ATOM      4  C   UNL     1      -4.472   3.612  25.423  0.00  0.00    +0.037 A 
ATOM      5  C   UNL     1      -3.944   3.080  25.079  0.00  0.00    +0.006 A 
ATOM      6  C   UNL     1      -4.209   2.341  24.826  0.00  0.00    +0.039 A 
ATOM      7  C   UNL     1      -5.002   2.134  24.918  0.00  0.00    +0.006 A 
ATOM      8  C   UNL     1      -5.531   2.666  25.262  0.00  0.00    +0.037 A 
BRANCH   3   2
ATOM      1  C   UNL     1      -5.928   4.672  25.508  0.00  0.00    +0.252 C 
ATOM      2  O   UNL     1      -5.793   3.937  25.860  0.00  0.00    -0.471 OA
ENDBRANCH   3   2
ENDBRANCH   9   6
BRANCH  12  14
ATOM     14  C   UNL     1      -2.260   0.216  24.481  0.00  0.00    +0.141 C 
ATOM     15  C   UNL     1      -1.438   0.276  24.514  0.00  0.00    +0.060 C 
ATOM     16  C   UNL     1      -1.135  -0.472  24.688  0.00  0.00    +0.170 C 
ATOM     17  O   UNL     1      -0.336  -0.665  24.772  0.00  0.00    -0.222 OA
ATOM     18  C   UNL     1      -1.770  -0.993  24.762  0.00  0.00    +0.106 C 
ATOM     19  N   UNL     1      -2.465  -0.569  24.635  0.00  0.00    -0.258 NA
BRANCH  19  20
ATOM     20  C   UNL     1      -3.230  -0.874  24.657  0.00  0.00    +0.139 C 
BRANCH  20  21
ATOM     21  C   UNL     1      -3.348  -1.691  24.666  0.00  0.00    +0.155 A 
ATOM     22  N   UNL     1      -3.370  -2.171  25.338  0.00  0.00    -0.226 NA
ATOM     23  C   UNL     1      -3.499  -2.948  25.092  0.00  0.00    +0.121 A 
ATOM     24  C   UNL     1      -3.557  -2.948  24.269  0.00  0.00    +0.121 A 
ATOM     25  N   UNL     1      -3.464  -2.173  24.006  0.00  0.00    -0.226 NA
ENDBRANCH  20  21
ENDBRANCH  19  20
ENDBRANCH  12  14
TORSDOF 5
ENDMDL
MODEL 6
REMARK VINA RESULT:      -9.0      2.420      4.394
REMARK  Name = 
REMARK  5 active torsions:
REMARK  status: ('A' for Active; 'I' for Inactive)
REMARK    1  A    between atoms: O_2  and  C_3
REMARK    2  A    between atoms: C_6  and  C_9
REMARK    3  A    between atoms: C_12  and  C_14
REMARK    4  A    between atoms: N_19  and  C_20
REMARK    5  A    between atoms: C_20  and  C_21
REMARK                            x       y       z     vdW  Elec       q    Type
REMARK                         _______ _______ _______ _____ _____    ______ ____
ROOT
ATOM      9  C   UNL     1      -3.691   0.683  24.527  0.00  0.00    +0.203 A 
ATOM     10  N   UNL     1      -3.775   0.145  23.908  0.00  0.00    -0.056 NA
ATOM     11  O   UNL     1      -3.108  -0.342  23.900  0.00  0.00    -0.336 OA
ATOM     12  C   UNL     1      -2.612  -0.105  24.515  0.00  0.00    +0.251 A 
ATOM     13  N   UNL     1      -2.972   0.529  24.903  0.00  0.00    -0.190 NA
ENDROOT
BRANCH   9   6
ATOM      3  C   UNL     1      -5.309   2.449  25.150  0.00  0.00    +0.139 A 
ATOM      4  C   UNL     1      -4.662   2.633  24.674  0.00  0.00    +0.037 A 
ATOM      5  C   UNL     1      -4.122   2.044  24.466  0.00  0.00    +0.006 A 
ATOM      6  C   UNL     1      -4.230   1.272  24.735  0.00  0.00    +0.039 A 
ATOM      7  C   UNL     1      -4.878   1.088  25.212  0.00  0.00    +0.006 A 
ATOM      8  C   UNL     1      -5.418   1.677  25.420  0.00  0.00    +0.037 A 
BRANCH   3   2
ATOM      1  C   UNL     1      -5.577   3.779  25.602  0.00  0.00    +0.252 C 
ATOM      2  O   UNL     1      -5.848   3.038  25.358  0.00  0.00    -0.471 OA
ENDBRANCH   3   2
ENDBRANCH   9   6
BRANCH  12  14
ATOM     14  C   UNL     1      -1.885  -0.441  24.709  0.00  0.00    +0.141 C 
ATOM     15  C   UNL     1      -1.768  -1.097  25.195  0.00  0.00    +0.060 C 
ATOM     16  C   UNL     1      -0.957  -1.242  25.237  0.00  0.00    +0.170 C 
ATOM     17  O   UNL     1      -0.594  -1.848  25.665  0.00  0.00    -0.222 OA
ATOM     18  C   UNL     1      -0.573  -0.676  24.776  0.00  0.00    +0.106 C 
ATOM     19  N   UNL     1      -1.146  -0.181  24.450  0.00  0.00    -0.258 NA
BRANCH  19  20
ATOM     20  C   UNL     1      -1.005   0.461  23.952  0.00  0.00    +0.139 C 
BRANCH  20  21
ATOM     21  C   UNL     1      -0.243   0.774  23.888  0.00  0.00    +0.155 A 
ATOM     22  N   UNL     1       0.053   1.419  24.311  0.00  0.00    -0.226 NA
ATOM     23  C   UNL     1       0.834   1.540  24.075  0.00  0.00    +0.121 A 
ATOM     24  C   UNL     1       1.021   0.971  23.507  0.00  0.00    +0.121 A 
ATOM     25  N   UNL     1       0.355   0.498  23.392  0.00  0.00    -0.226 NA
ENDBRANCH  20  21
ENDBRANCH  19  20
ENDBRANCH  12  14
TORSDOF 5
ENDMDL
MODEL 7
REMARK VINA RESULT:      -8.8      1.257      2.110
REMARK  Name = 
REMARK  5 active torsions:
REMARK  status: ('A' for Active; 'I' for Inactive)
REMARK    1  A    between atoms: O_2  and  C_3
REMARK    2  A    between atoms: C_6  and  C_9
REMARK    3  A    between atoms: C_12  and  C_14
REMARK    4  A    between atoms: N_19  and  C_20
REMARK    5  A    between atoms: C_20  and  C_21
REMARK                            x       y       z     vdW  Elec       q    Type
REMARK                         _______ _______ _______ _____ _____    ______ ____
ROOT
ATOM      9  C   UNL     1      -2.807   0.325  24.380  0.00  0.00    +0.203 A 
ATOM     10  N   UNL     1      -2.544   0.636  23.662  0.00  0.00    -0.056 NA
ATOM     11  O   UNL     1      -2.423   1.446  23.765  0.00  0.00    -0.336 OA
ATOM     12  C   UNL     1      -2.610   1.635  24.546  0.00  0.00    +0.251 A 
ATOM     13  N   UNL     1      -2.848   0.942  24.926  0.00  0.00    -0.190 NA
ENDROOT
BRANCH   9   6
ATOM      3  C   UNL     1      -3.373  -2.045  24.817  0.00  0.00    +0.139 A 
ATOM      4  C   UNL     1      -3.931  -1.544  24.475  0.00  0.00    +0.037 A 
ATOM      5  C   UNL     1      -3.743  -0.754  24.330  0.00  0.00    +0.006 A 
ATOM      6  C   UNL     1      -2.995  -0.465  24.525  0.00  0.00    +0.039 A 
ATOM      7  C   UNL     1      -2.436  -0.967  24.867  0.00  0.00    +0.006 A 
ATOM      8  C   UNL     1      -2.625  -1.757  25.013  0.00  0.00    +0.037 A 
BRANCH   3   2
ATOM      1  C   UNL     1      -3.531  -3.386  24.349  0.00  0.00    +0.252 C 
ATOM      2  O   UNL     1      -3.561  -2.835  24.962  0.00  0.00    -0.471 OA
ENDBRANCH   3   2
ENDBRANCH   9   6
BRANCH  12  14
ATOM     14  C   UNL     1      -2.568   2.385  24.887  0.00  0.00    +0.141 C 
ATOM     15  C   UNL     1      -1.901   2.720  25.237  0.00  0.00    +0.060 C 
ATOM     16  C   UNL     1      -2.106   3.474  25.505  0.00  0.00    +0.170 C 
ATOM     17  O   UNL     1      -1.604   4.005  25.890  0.00  0.00    -0.222 OA
ATOM     18  C   UNL     1      -2.899   3.603  25.321  0.00  0.00    +0.106 C 
ATOM     19  N   UNL     1      -3.185   2.930  24.939  0.00  0.00    -0.258 NA
BRANCH  19  20
ATOM     20  C   UNL     1      -3.953   2.821  24.658  0.00  0.00    +0.139 C 
BRANCH  20  21
ATOM     21  C   UNL     1      -4.591   3.147  25.068  0.00  0.00    +0.155 A 
ATOM     22  N   UNL     1      -5.077   2.750  25.604  0.00  0.00    -0.226 NA
ATOM     23  C   UNL     1      -5.642   3.284  25.880  0.00  0.00    +0.121 A 
ATOM     24  C   UNL     1      -5.504   4.012  25.515  0.00  0.00    +0.121 A 
ATOM     25  N   UNL     1      -4.856   3.927  25.014  0.00  0.00    -0.226 NA
ENDBRANCH  20  21
ENDBRANCH  19  20
ENDBRANCH  12  14
TORSDOF 5
ENDMDL
