MODEL 1
REMARK VINA RESULT:     -13.6      0.000      0.000
REMARK  Name = 
REMARK  3 active torsions:
REMARK  status: ('A' for Active; 'I' for Inactive)
REMARK    1  A    between atoms: C_1  and  N_2
REMARK    2  A    between atoms: C_1  and  C_16
REMARK    3  A    between atoms: C_5  and  C_7
REMARK                            x       y       z     vdW  Elec       q    Type
REMARK                         _______ _______ _______ _____ _____    ______ ____
ROOT
ATOM      2  N   UNL     1      -4.143   0.969  24.624  0.00  0.00    -0.269 NA
ATOM      3  C   UNL     1      -4.699   1.458  24.989  0.00  0.00    +0.073 C 
ATOM      4  C   UNL     1      -4.338   2.182  25.147  0.00  0.00    +0.025 C 
ATOM      5  C   UNL     1      -3.559   2.141  24.881  0.00  0.00    +0.064 C 
ATOM      6  C   UNL     1      -3.438   1.392  24.558  0.00  0.00    +0.079 C 
ENDROOT
BRANCH   5   7
ATOM      7  C   UNL     1      -2.998   2.744  24.929  0.00  0.00    +0.089 A 
ATOM      8  N   UNL     1      -2.198   2.679  24.739  0.00  0.00    -0.243 NA
ATOM      9  C   UNL     1      -1.844   3.413  24.868  0.00  0.00    +0.087 A 
ATOM     10  C   UNL     1      -2.425   3.932  25.138  0.00  0.00    +0.048 A 
ATOM     11  S   UNL     1      -3.139   3.519  25.176  0.00  0.00    -0.071 S 
ATOM     12  C   UNL     1      -2.230   4.714  25.315  0.00  0.00    +0.008 A 
ATOM     13  C   UNL     1      -1.454   4.977  25.222  0.00  0.00    +0.001 A 
ATOM     14  C   UNL     1      -0.872   4.458  24.952  0.00  0.00    +0.002 A 
ATOM     15  C   UNL     1      -1.067   3.676  24.775  0.00  0.00    +0.020 A 
ENDBRANCH   5   7
BRANCH   2   1
ATOM      1  C   UNL     1      -4.270   0.194  24.371  0.00  0.00    +0.101 C 
BRANCH   1  16
ATOM     16  C   UNL     1      -3.986  -0.438  24.818  0.00  0.00    +0.014 A 
ATOM     17  C   UNL     1      -3.703  -0.397  25.592  0.00  0.00    +0.096 A 
ATOM     18  N   UNL     1      -3.477  -1.156  25.822  0.00  0.00    -0.244 NA
ATOM     19  C   UNL     1      -3.620  -1.666  25.190  0.00  0.00    +0.081 A 
ATOM     20  C   UNL     1      -3.934  -1.223  24.570  0.00  0.00    +0.016 A 
ATOM     21  C   UNL     1      -4.132  -1.592  23.859  0.00  0.00    +0.001 A 
ATOM     22  C   UNL     1      -4.016  -2.403  23.768  0.00  0.00    +0.000 A 
ATOM     23  C   UNL     1      -3.702  -2.847  24.389  0.00  0.00    +0.002 A 
ATOM     24  C   UNL     1      -3.504  -2.479  25.100  0.00  0.00    +0.019 A 
ENDBRANCH   1  16
ENDBRANCH   2   1
TORSDOF 3
ENDMDL
MODEL 2
REMARK VINA RESULT:     -13.3      1.173      5.122
REMARK  Name = 
REMARK  3 active torsions:
REMARK  status: ('A' for Active; 'I' for Inactive)
REMARK    1  A    between atoms: C_1  and  N_2
REMARK    2  A    between atoms: C_1  and  C_16
REMARK    3  A    between atoms: C_5  and  C_7
REMARK                            x       y       z     vdW  Elec       q    Type
REMARK                         _______ _______ _______ _____ _____    ______ ____
ROOT
ATOM      2  N   UNL     1      -4.152   2.041  24.509  0.00  0.00    -0.269 NA
ATOM      3  C   UNL     1      -4.903   1.891  24.818  0.00  0.00    +0.073 C 
ATOM      4  C   UNL     1      -4.985   1.075  24.905  0.00  0.00    +0.025 C 
ATOM      5  C   UNL     1      -4.286   0.721  24.649  0.00  0.00    +0.064 C 
ATOM      6  C   UNL     1      -3.772   1.317  24.405  0.00  0.00    +0.079 C 
ENDROOT
BRANCH   5   7
ATOM      7  C   UNL     1      -4.128  -0.089  24.639  0.00  0.00    +0.089 A 
ATOM      8  N   UNL     1      -4.340  -0.617  24.042  0.00  0.00    -0.243 NA
ATOM      9  C   UNL     1      -4.074  -1.368  24.258  0.00  0.00    +0.087 A 
ATOM     10  C   UNL     1      -3.698  -1.303  24.990  0.00  0.00    +0.048 A 
ATOM     11  S   UNL     1      -3.731  -0.514  25.226  0.00  0.00    -0.071 S 
ATOM     12  C   UNL     1      -3.374  -1.973  25.347  0.00  0.00    +0.008 A 
ATOM     13  C   UNL     1      -3.425  -2.707  24.973  0.00  0.00    +0.001 A 
ATOM     14  C   UNL     1      -3.801  -2.771  24.242  0.00  0.00    +0.002 A 
ATOM     15  C   UNL     1      -4.125  -2.102  23.884  0.00  0.00    +0.020 A 
ENDBRANCH   5   7
BRANCH   2   1
ATOM      1  C   UNL     1      -3.839   2.785  24.336  0.00  0.00    +0.101 C 
BRANCH   1  16
ATOM     16  C   UNL     1      -3.559   3.266  24.943  0.00  0.00    +0.014 A 
ATOM     17  C   UNL     1      -3.974   3.480  25.624  0.00  0.00    +0.096 A 
ATOM     18  N   UNL     1      -3.486   3.965  26.079  0.00  0.00    -0.244 NA
ATOM     19  C   UNL     1      -2.770   4.052  25.679  0.00  0.00    +0.081 A 
ATOM     20  C   UNL     1      -2.815   3.620  24.977  0.00  0.00    +0.016 A 
ATOM     21  C   UNL     1      -2.172   3.606  24.460  0.00  0.00    +0.001 A 
ATOM     22  C   UNL     1      -1.484   4.022  24.645  0.00  0.00    +0.000 A 
ATOM     23  C   UNL     1      -1.439   4.453  25.346  0.00  0.00    +0.002 A 
ATOM     24  C   UNL     1      -2.081   4.469  25.864  0.00  0.00    +0.019 A 
ENDBRANCH   1  16
ENDBRANCH   2   1
TORSDOF 3
ENDMDL
MODEL 3
REMARK VINA RESULT:     -12.6      1.238      1.743
REMARK  Name = 
REMARK  3 active torsions:
REMARK  status: ('A' for Active; 'I' for Inactive)
REMARK    1  A    between atoms: C_1  and  N_2
REMARK    2  A    between atoms: C_1  and  C_16
REMARK    3  A    between atoms: C_5  and  C_7
REMARK                            x       y       z     vdW  Elec       q    Type
REMARK                         _______ _______ _______ _____ _____    ______ ____
ROOT
ATOM      2  N   UNL     1      -2.055   0.338  25.045  0.00  0.00    -0.269 NA
ATOM      3  C   UNL     1      -1.349   0.310  24.617  0.00  0.00    +0.073 C 
ATOM      4  C   UNL     1      -1.071   1.081  24.533  0.00  0.00    +0.025 C 
ATOM      5  C   UNL     1      -1.604   1.586  24.908  0.00  0.00    +0.064 C 
ATOM      6  C   UNL     1      -2.212   1.127  25.224  0.00  0.00    +0.079 C 
ENDROOT
BRANCH   5   7
ATOM      7  C   UNL     1      -1.540   2.407  24.958  0.00  0.00    +0.089 A 
ATOM      8  N   UNL     1      -2.116   2.922  25.249  0.00  0.00    -0.243 NA
ATOM      9  C   UNL     1      -1.821   3.691  25.197  0.00  0.00    +0.087 A 
ATOM     10  C   UNL     1      -1.063   3.651  24.874  0.00  0.00    +0.048 A 
ATOM     11  S   UNL     1      -0.889   2.859  24.726  0.00  0.00    -0.071 S 
ATOM     12  C   UNL     1      -0.629   4.343  24.756  0.00  0.00    +0.008 A 
ATOM     13  C   UNL     1      -0.952   5.074  24.961  0.00  0.00    +0.001 A 
ATOM     14  C   UNL     1      -1.710   5.113  25.284  0.00  0.00    +0.002 A 
ATOM     15  C   UNL     1      -2.145   4.422  25.402  0.00  0.00    +0.020 A 
ENDBRANCH   5   7
BRANCH   2   1
ATOM      1  C   UNL     1      -2.521  -0.310  25.255  0.00  0.00    +0.101 C 
BRANCH   1  16
ATOM     16  C   UNL     1      -3.108  -0.580  24.743  0.00  0.00    +0.014 A 
ATOM     17  C   UNL     1      -3.578  -0.111  24.253  0.00  0.00    +0.096 A 
ATOM     18  N   UNL     1      -4.088  -0.608  23.837  0.00  0.00    -0.244 NA
ATOM     19  C   UNL     1      -3.933  -1.384  24.069  0.00  0.00    +0.081 A 
ATOM     20  C   UNL     1      -3.327  -1.367  24.629  0.00  0.00    +0.016 A 
ATOM     21  C   UNL     1      -3.053  -2.071  24.962  0.00  0.00    +0.001 A 
ATOM     22  C   UNL     1      -3.385  -2.791  24.736  0.00  0.00    +0.000 A 
ATOM     23  C   UNL     1      -3.991  -2.808  24.176  0.00  0.00    +0.002 A 
ATOM     24  C   UNL     1      -4.266  -2.105  23.843  0.00  0.00    +0.019 A 
ENDBRANCH   1  16
ENDBRANCH   2   1
TORSDOF 3
ENDMDL
MODEL 4
REMARK VINA RESULT:     -12.4      1.557      5.489
REMARK  Name = 
REMARK  3 active torsions:
REMARK  status: ('A' for Active; 'I' for Inactive)
REMARK    1  A    between atoms: C_1  and  N_2
REMARK    2  A    between atoms: C_1  and  C_16
REMARK    3  A    between atoms: C_5  and  C_7
REMARK                            x       y       z     vdW  Elec       q    Type
REMARK                         _______ _______ _______ _____ _____    ______ ____
ROOT
ATOM      2  N   UNL     1      -1.330   1.429  24.994  0.00  0.00    -0.269 NA
ATOM      3  C   UNL     1      -1.006   0.983  25.608  0.00  0.00    +0.073 C 
ATOM      4  C   UNL     1      -1.367   0.242  25.604  0.00  0.00    +0.025 C 
ATOM      5  C   UNL     1      -1.915   0.229  24.988  0.00  0.00    +0.064 C 
ATOM      6  C   UNL     1      -1.892   0.962  24.611  0.00  0.00    +0.079 C 
ENDROOT
BRANCH   5   7
ATOM      7  C   UNL     1      -2.401  -0.405  24.784  0.00  0.00    +0.089 A 
ATOM      8  N   UNL     1      -3.129  -0.356  24.398  0.00  0.00    -0.243 NA
ATOM      9  C   UNL     1      -3.423  -1.121  24.306  0.00  0.00    +0.087 A 
ATOM     10  C   UNL     1      -2.877  -1.644  24.636  0.00  0.00    +0.048 A 
ATOM     11  S   UNL     1      -2.246  -1.203  24.932  0.00  0.00    -0.071 S 
ATOM     12  C   UNL     1      -3.025  -2.456  24.625  0.00  0.00    +0.008 A 
ATOM     13  C   UNL     1      -3.719  -2.745  24.284  0.00  0.00    +0.001 A 
ATOM     14  C   UNL     1      -4.264  -2.221  23.954  0.00  0.00    +0.002 A 
ATOM     15  C   UNL     1      -4.116  -1.409  23.965  0.00  0.00    +0.020 A 
ENDBRANCH   5   7
BRANCH   2   1
ATOM      1  C   UNL     1      -1.128   2.204  24.798  0.00  0.00    +0.101 C 
BRANCH   1  16
ATOM     16  C   UNL     1      -1.573   2.834  25.090  0.00  0.00    +0.014 A 
ATOM     17  C   UNL     1      -2.291   2.775  25.492  0.00  0.00    +0.096 A 
ATOM     18  N   UNL     1      -2.540   3.537  25.682  0.00  0.00    -0.244 NA
ATOM     19  C   UNL     1      -1.977   4.068  25.398  0.00  0.00    +0.081 A 
ATOM     20  C   UNL     1      -1.379   3.633  25.032  0.00  0.00    +0.016 A 
ATOM     21  C   UNL     1      -0.735   4.022  24.694  0.00  0.00    +0.001 A 
ATOM     22  C   UNL     1      -0.688   4.845  24.721  0.00  0.00    +0.000 A 
ATOM     23  C   UNL     1      -1.286   5.280  25.087  0.00  0.00    +0.002 A 
ATOM     24  C   UNL     1      -1.931   4.892  25.426  0.00  0.00    +0.019 A 
ENDBRANCH   1  16
ENDBRANCH   2   1
TORSDOF 3
ENDMDL
