REMARK  Name = 
REMARK  10 active torsions:
REMARK  status: ('A' for Active; 'I' for Inactive)
REMARK    1  A    between atoms: O_2  and  C_3
REMARK    2  A    between atoms: C_3  and  C_5
REMARK    3  A    between atoms: C_10  and  C_11
REMARK    4  A    between atoms: C_11  and  C_12
REMARK    5  A    between atoms: C_14  and  C_15
REMARK    6  A    between atoms: C_18  and  C_19
REMARK    7  A    between atoms: C_19  and  N_20
REMARK    8  A    between atoms: N_20  and  C_21
REMARK    9  A    between atoms: C_21  and  C_22
REMARK   10  A    between atoms: C_25  and  N_26
REMARK                            x       y       z     vdW  Elec       q    Type
REMARK                         _______ _______ _______ _____ _____    ______ ____
ROOT
ATOM     12  C   UNL     1      -1.866   2.237   0.000  0.00  0.00    +0.026 C 
ATOM     13  C   UNL     1      -2.691   2.237   0.000  0.00  0.00    +0.005 C 
ATOM     14  C   UNL     1      -3.103   2.952   0.000  0.00  0.00    +0.006 C 
ATOM     18  C   UNL     1      -2.691   3.666   0.000  0.00  0.00    +0.039 C 
ATOM     32  C   UNL     1      -1.866   3.666   0.000  0.00  0.00    -0.033 C 
ATOM     33  C   UNL     1      -1.453   2.952   0.000  0.00  0.00    -0.048 C 
ATOM     34  C   UNL     1      -0.628   2.952   0.000  0.00  0.00    +0.026 C 
ENDROOT
BRANCH  14  15
ATOM     15  C   UNL     1      -3.928   2.952   0.000  0.00  0.00    +0.000 C 
ATOM     16  C   UNL     1      -4.341   3.666   0.000  0.00  0.00    +0.000 C 
ATOM     17  C   UNL     1      -4.341   2.237   0.000  0.00  0.00    +0.000 C 
ENDBRANCH  14  15
BRANCH  12  11
ATOM     11  C   UNL     1      -1.453   1.523   0.000  0.00  0.00    +0.070 C 
BRANCH  11  10
ATOM      5  C   UNL     1       2.070   1.110   0.000  0.00  0.00    +0.077 A 
ATOM      6  C   UNL     1       1.356   0.698   0.000  0.00  0.00    +0.027 A 
ATOM      7  C   UNL     1       0.641   1.110   0.000  0.00  0.00    +0.100 A 
ATOM      8  C   UNL     1       0.641   1.935   0.000  0.00  0.00    +0.100 A 
ATOM      9  N   UNL     1      -0.143   2.190   0.000  0.00  0.00    -0.229 NA
ATOM     10  C   UNL     1      -0.628   1.523   0.000  0.00  0.00    +0.139 A 
ATOM     35  N   UNL     1      -0.143   0.856   0.000  0.00  0.00    -0.229 NA
ATOM     36  C   UNL     1       1.356   2.348   0.000  0.00  0.00    +0.021 A 
ATOM     37  C   UNL     1       2.070   1.935   0.000  0.00  0.00    +0.008 A 
BRANCH   5   3
ATOM      3  C   UNL     1       2.784   0.698   0.000  0.00  0.00    +0.341 C 
ATOM      4  O   UNL     1       2.784  -0.127   0.000  0.00  0.00    -0.245 OA
BRANCH   3   2
ATOM      1  C   UNL     1       4.213   0.698   0.000  0.00  0.00    +0.256 C 
ATOM      2  O   UNL     1       3.499   1.110   0.000  0.00  0.00    -0.441 OA
ENDBRANCH   3   2
ENDBRANCH   5   3
ENDBRANCH  11  10
ENDBRANCH  12  11
BRANCH  18  19
ATOM     19  C   UNL     1      -3.103   4.381   0.000  0.00  0.00    +0.093 C 
BRANCH  19  20
ATOM     20  N   UNL     1      -2.691   5.095   0.000  0.00  0.00    -0.213 NA
BRANCH  20  21
ATOM     21  C   UNL     1      -3.103   5.810   0.000  0.00  0.00    +0.115 C 
BRANCH  21  22
ATOM     22  C   UNL     1      -2.691   6.524   0.000  0.00  0.00    -0.005 A 
ATOM     23  C   UNL     1      -3.103   7.239   0.000  0.00  0.00    -0.002 A 
ATOM     24  C   UNL     1      -2.691   7.953   0.000  0.00  0.00    +0.016 A 
ATOM     25  C   UNL     1      -1.866   7.953   0.000  0.00  0.00    +0.073 A 
ATOM     30  C   UNL     1      -1.453   7.239   0.000  0.00  0.00    +0.016 A 
ATOM     31  C   UNL     1      -1.866   6.524   0.000  0.00  0.00    -0.002 A 
BRANCH  25  26
ATOM     26  N   UNL     1      -1.453   8.668   0.000  0.00  0.00    -0.179 NA
ATOM     27  C   UNL     1      -0.628   8.668   0.000  0.00  0.00    +0.246 C 
ATOM     28  C   UNL     1      -0.216   9.382   0.000  0.00  0.00    +0.097 C 
ATOM     29  O   UNL     1      -0.216   7.953   0.000  0.00  0.00    -0.273 OA
ENDBRANCH  25  26
ENDBRANCH  21  22
ENDBRANCH  20  21
ENDBRANCH  19  20
ENDBRANCH  18  19
TORSDOF 10
