MODEL 1
REMARK VINA RESULT:     -13.2      0.000      0.000
REMARK  Name = 
REMARK  4 active torsions:
REMARK  status: ('A' for Active; 'I' for Inactive)
REMARK    1  A    between atoms: C_2  and  C_25
REMARK    2  A    between atoms: C_9  and  N_10
REMARK    3  A    between atoms: C_11  and  C_13
REMARK    4  A    between atoms: C_25  and  C_27
REMARK                            x       y       z     vdW  Elec       q    Type
REMARK                         _______ _______ _______ _____ _____    ______ ____
ROOT
ATOM      1  C   UNL     1      -4.277   0.257  24.676  0.00  0.00    +0.052 C 
ATOM      2  C   UNL     1      -4.983   0.489  25.035  0.00  0.00    -0.001 C 
ATOM      3  C   UNL     1      -5.099   1.277  25.246  0.00  0.00    -0.000 C 
ATOM      4  C   UNL     1      -4.509   1.834  25.099  0.00  0.00    -0.001 C 
ATOM      5  C   UNL     1      -5.214   2.066  25.458  0.00  0.00    -0.000 C 
ATOM      6  C   UNL     1      -4.624   2.624  25.310  0.00  0.00    +0.002 C 
ATOM      7  C   UNL     1      -4.034   3.181  25.162  0.00  0.00    +0.022 C 
ATOM      8  C   UNL     1      -3.328   2.949  24.803  0.00  0.00    +0.095 C 
ATOM     18  C   UNL     1      -3.213   2.160  24.591  0.00  0.00    +0.019 C 
ATOM     19  C   UNL     1      -2.507   1.928  24.232  0.00  0.00    +0.002 C 
ATOM     20  C   UNL     1      -3.803   1.602  24.739  0.00  0.00    +0.045 C 
ATOM     21  C   UNL     1      -3.687   0.814  24.528  0.00  0.00    +0.145 C 
ATOM     22  O   UNL     1      -2.982   0.582  24.169  0.00  0.00    -0.224 OA
ENDROOT
BRANCH   8   9
ATOM      9  N   UNL     1      -2.738   3.506  24.655  0.00  0.00    -0.202 NA
ATOM     10  C   UNL     1      -2.423   3.948  25.275  0.00  0.00    +0.282 C 
ATOM     11  O   UNL     1      -2.697   3.832  26.046  0.00  0.00    -0.267 OA
BRANCH  10  12
ATOM     12  C   UNL     1      -1.833   4.506  25.128  0.00  0.00    +0.136 A 
ATOM     13  N   UNL     1      -1.055   4.262  25.006  0.00  0.00    -0.239 NA
ATOM     14  C   UNL     1      -0.465   4.820  24.859  0.00  0.00    +0.099 A 
ATOM     15  C   UNL     1      -0.654   5.623  24.833  0.00  0.00    +0.021 A 
ATOM     16  C   UNL     1      -1.433   5.867  24.954  0.00  0.00    +0.003 A 
ATOM     17  C   UNL     1      -2.022   5.309  25.102  0.00  0.00    +0.024 A 
ENDBRANCH  10  12
ENDBRANCH   8   9
BRANCH   1  23
ATOM     23  C   UNL     1      -4.162  -0.533  24.464  0.00  0.00    +0.075 C 
ATOM     24  C   UNL     1      -4.315  -0.781  23.692  0.00  0.00    +0.009 C 
BRANCH  23  25
ATOM     25  C   UNL     1      -3.895  -1.074  25.026  0.00  0.00    +0.225 C 
ATOM     26  O   UNL     1      -3.755  -0.830  25.802  0.00  0.00    -0.275 OA
ATOM     27  N   UNL     1      -3.767  -1.862  24.812  0.00  0.00    -0.274 N 
ATOM     28  C   UNL     1      -3.500  -2.403  25.373  0.00  0.00    +0.125 C 
ATOM     29  C   UNL     1      -3.372  -3.190  25.160  0.00  0.00    +0.164 C 
ATOM     30  O   UNL     1      -3.512  -3.433  24.385  0.00  0.00    -0.350 OA
ATOM     31  C   UNL     1      -3.779  -2.892  23.824  0.00  0.00    +0.164 C 
ATOM     32  C   UNL     1      -3.907  -2.106  24.037  0.00  0.00    +0.125 C 
ENDBRANCH  23  25
ENDBRANCH   1  23
TORSDOF 4
ENDMDL
MODEL 2
REMARK VINA RESULT:     -12.2      1.006      5.680
REMARK  Name = 
REMARK  4 active torsions:
REMARK  status: ('A' for Active; 'I' for Inactive)
REMARK    1  A    between atoms: C_2  and  C_25
REMARK    2  A    between atoms: C_9  and  N_10
REMARK    3  A    between atoms: C_11  and  C_13
REMARK    4  A    between atoms: C_25  and  C_27
REMARK                            x       y       z     vdW  Elec       q    Type
REMARK                         _______ _______ _______ _____ _____    ______ ____
ROOT
ATOM      1  C   UNL     1      -2.812   3.077  25.483  0.00  0.00    +0.052 C 
ATOM      2  C   UNL     1      -3.572   3.391  25.406  0.00  0.00    -0.001 C 
ATOM      3  C   UNL     1      -4.188   2.917  25.130  0.00  0.00    -0.000 C 
ATOM      4  C   UNL     1      -4.045   2.130  24.932  0.00  0.00    -0.001 C 
ATOM      5  C   UNL     1      -4.803   2.443  24.855  0.00  0.00    -0.000 C 
ATOM      6  C   UNL     1      -4.661   1.655  24.656  0.00  0.00    +0.002 C 
ATOM      7  C   UNL     1      -4.519   0.867  24.459  0.00  0.00    +0.022 C 
ATOM      8  C   UNL     1      -3.759   0.553  24.536  0.00  0.00    +0.095 C 
ATOM     18  C   UNL     1      -3.143   1.027  24.812  0.00  0.00    +0.019 C 
ATOM     19  C   UNL     1      -2.384   0.713  24.889  0.00  0.00    +0.002 C 
ATOM     20  C   UNL     1      -3.285   1.815  25.010  0.00  0.00    +0.045 C 
ATOM     21  C   UNL     1      -2.670   2.289  25.286  0.00  0.00    +0.145 C 
ATOM     22  O   UNL     1      -1.911   1.975  25.363  0.00  0.00    -0.224 OA
ENDROOT
BRANCH   8   9
ATOM      9  N   UNL     1      -3.617  -0.235  24.338  0.00  0.00    -0.202 NA
ATOM     10  C   UNL     1      -4.067  -0.835  24.681  0.00  0.00    +0.282 C 
ATOM     11  O   UNL     1      -4.661  -0.647  25.223  0.00  0.00    -0.267 OA
BRANCH  10  12
ATOM     12  C   UNL     1      -3.925  -1.623  24.483  0.00  0.00    +0.136 A 
ATOM     13  N   UNL     1      -3.418  -2.080  24.944  0.00  0.00    -0.239 NA
ATOM     14  C   UNL     1      -3.276  -2.869  24.746  0.00  0.00    +0.099 A 
ATOM     15  C   UNL     1      -3.642  -3.200  24.085  0.00  0.00    +0.021 A 
ATOM     16  C   UNL     1      -4.150  -2.742  23.622  0.00  0.00    +0.003 A 
ATOM     17  C   UNL     1      -4.291  -1.954  23.821  0.00  0.00    +0.024 A 
ENDBRANCH  10  12
ENDBRANCH   8   9
BRANCH   1  23
ATOM     23  C   UNL     1      -2.196   3.551  25.759  0.00  0.00    +0.075 C 
ATOM     24  C   UNL     1      -1.563   3.213  26.167  0.00  0.00    +0.009 C 
BRANCH  23  25
ATOM     25  C   UNL     1      -2.213   4.366  25.627  0.00  0.00    +0.225 C 
ATOM     26  O   UNL     1      -2.855   4.813  25.890  0.00  0.00    -0.275 OA
ATOM     27  N   UNL     1      -1.588   4.733  25.232  0.00  0.00    -0.274 N 
ATOM     28  C   UNL     1      -1.604   5.546  25.101  0.00  0.00    +0.125 C 
ATOM     29  C   UNL     1      -0.980   5.913  24.706  0.00  0.00    +0.164 C 
ATOM     30  O   UNL     1      -0.339   5.466  24.443  0.00  0.00    -0.350 OA
ATOM     31  C   UNL     1      -0.322   4.652  24.575  0.00  0.00    +0.164 C 
ATOM     32  C   UNL     1      -0.947   4.285  24.970  0.00  0.00    +0.125 C 
ENDBRANCH  23  25
ENDBRANCH   1  23
TORSDOF 4
ENDMDL
MODEL 3
REMARK VINA RESULT:     -11.4      3.059      4.660
REMARK  Name = 
REMARK  4 active torsions:
REMARK  status: ('A' for Active; 'I' for Inactive)
REMARK    1  A    between atoms: C_2  and  C_25
REMARK    2  A    between atoms: C_9  and  N_10
REMARK    3  A    between atoms: C_11  and  C_13
REMARK    4  A    between atoms: C_25  and  C_27
REMARK                            x       y       z     vdW  Elec       q    Type
REMARK                         _______ _______ _______ _____ _____    ______ ____
ROOT
ATOM      1  C   UNL     1      -2.952   1.456  24.448  0.00  0.00    +0.052 C 
ATOM      2  C   UNL     1      -3.082   0.793  24.923  0.00  0.00    -0.001 C 
ATOM      3  C   UNL     1      -2.478   0.245  25.041  0.00  0.00    -0.000 C 
ATOM      4  C   UNL     1      -1.743   0.359  24.685  0.00  0.00    -0.001 C 
ATOM      5  C   UNL     1      -1.873  -0.302  25.159  0.00  0.00    -0.000 C 
ATOM      6  C   UNL     1      -1.137  -0.189  24.803  0.00  0.00    +0.002 C 
ATOM      7  C   UNL     1      -0.403  -0.076  24.447  0.00  0.00    +0.022 C 
ATOM      8  C   UNL     1      -0.272   0.587  23.972  0.00  0.00    +0.095 C 
ATOM     18  C   UNL     1      -0.877   1.135  23.854  0.00  0.00    +0.019 C 
ATOM     19  C   UNL     1      -0.746   1.797  23.379  0.00  0.00    +0.002 C 
ATOM     20  C   UNL     1      -1.612   1.022  24.210  0.00  0.00    +0.045 C 
ATOM     21  C   UNL     1      -2.217   1.569  24.092  0.00  0.00    +0.145 C 
ATOM     22  O   UNL     1      -2.087   2.231  23.617  0.00  0.00    -0.224 OA
ENDROOT
BRANCH   8   9
ATOM      9  N   UNL     1       0.464   0.700  23.615  0.00  0.00    -0.202 NA
ATOM     10  C   UNL     1       0.884   0.054  23.323  0.00  0.00    +0.282 C 
ATOM     11  O   UNL     1       0.569  -0.707  23.386  0.00  0.00    -0.267 OA
BRANCH  10  12
ATOM     12  C   UNL     1       1.620   0.167  22.967  0.00  0.00    +0.136 A 
ATOM     13  N   UNL     1       2.186   0.644  23.330  0.00  0.00    -0.239 NA
ATOM     14  C   UNL     1       2.922   0.757  22.974  0.00  0.00    +0.099 A 
ATOM     15  C   UNL     1       3.091   0.393  22.253  0.00  0.00    +0.021 A 
ATOM     16  C   UNL     1       2.524  -0.085  21.889  0.00  0.00    +0.003 A 
ATOM     17  C   UNL     1       1.789  -0.197  22.246  0.00  0.00    +0.024 A 
ENDBRANCH  10  12
ENDBRANCH   8   9
BRANCH   1  23
ATOM     23  C   UNL     1      -3.557   2.004  24.330  0.00  0.00    +0.075 C 
ATOM     24  C   UNL     1      -3.885   2.104  23.579  0.00  0.00    +0.009 C 
BRANCH  23  25
ATOM     25  C   UNL     1      -3.835   2.454  24.964  0.00  0.00    +0.225 C 
ATOM     26  O   UNL     1      -3.309   2.904  25.413  0.00  0.00    -0.275 OA
ATOM     27  N   UNL     1      -4.640   2.453  25.149  0.00  0.00    -0.274 N 
ATOM     28  C   UNL     1      -4.917   2.902  25.782  0.00  0.00    +0.125 C 
ATOM     29  C   UNL     1      -5.721   2.902  25.967  0.00  0.00    +0.164 C 
ATOM     30  O   UNL     1      -6.247   2.452  25.518  0.00  0.00    -0.350 OA
ATOM     31  C   UNL     1      -5.969   2.003  24.885  0.00  0.00    +0.164 C 
ATOM     32  C   UNL     1      -5.165   2.003  24.700  0.00  0.00    +0.125 C 
ENDBRANCH  23  25
ENDBRANCH   1  23
TORSDOF 4
ENDMDL
MODEL 4
REMARK VINA RESULT:     -11.2      1.587      2.472
REMARK  Name = 
REMARK  4 active torsions:
REMARK  status: ('A' for Active; 'I' for Inactive)
REMARK    1  A    between atoms: C_2  and  C_25
REMARK    2  A    between atoms: C_9  and  N_10
REMARK    3  A    between atoms: C_11  and  C_13
REMARK    4  A    between atoms: C_25  and  C_27
REMARK                            x       y       z     vdW  Elec       q    Type
REMARK                         _______ _______ _______ _____ _____    ______ ____
ROOT
ATOM      1  C   UNL     1      -2.078  -0.760  25.134  0.00  0.00    +0.052 C 
ATOM      2  C   UNL     1      -1.312  -1.030  24.982  0.00  0.00    -0.001 C 
ATOM      3  C   UNL     1      -0.715  -0.493  24.798  0.00  0.00    -0.000 C 
ATOM      4  C   UNL     1      -0.880   0.314  24.767  0.00  0.00    -0.001 C 
ATOM      5  C   UNL     1      -0.117   0.044  24.615  0.00  0.00    -0.000 C 
ATOM      6  C   UNL     1      -0.282   0.851  24.583  0.00  0.00    +0.002 C 
ATOM      7  C   UNL     1      -0.447   1.658  24.551  0.00  0.00    +0.022 C 
ATOM      8  C   UNL     1      -1.213   1.929  24.703  0.00  0.00    +0.095 C 
ATOM     18  C   UNL     1      -1.811   1.392  24.887  0.00  0.00    +0.019 C 
ATOM     19  C   UNL     1      -2.575   1.662  25.039  0.00  0.00    +0.002 C 
ATOM     20  C   UNL     1      -1.646   0.584  24.919  0.00  0.00    +0.045 C 
ATOM     21  C   UNL     1      -2.243   0.047  25.102  0.00  0.00    +0.145 C 
ATOM     22  O   UNL     1      -3.008   0.318  25.255  0.00  0.00    -0.224 OA
ENDROOT
BRANCH   8   9
ATOM      9  N   UNL     1      -1.378   2.737  24.672  0.00  0.00    -0.202 NA
ATOM     10  C   UNL     1      -0.920   3.269  25.103  0.00  0.00    +0.282 C 
ATOM     11  O   UNL     1      -0.296   2.994  25.569  0.00  0.00    -0.267 OA
BRANCH  10  12
ATOM     12  C   UNL     1      -1.086   4.077  25.072  0.00  0.00    +0.136 A 
ATOM     13  N   UNL     1      -1.774   4.372  25.417  0.00  0.00    -0.239 NA
ATOM     14  C   UNL     1      -1.939   5.180  25.385  0.00  0.00    +0.099 A 
ATOM     15  C   UNL     1      -1.415   5.693  25.007  0.00  0.00    +0.021 A 
ATOM     16  C   UNL     1      -0.726   5.398  24.661  0.00  0.00    +0.003 A 
ATOM     17  C   UNL     1      -0.562   4.590  24.694  0.00  0.00    +0.024 A 
ENDBRANCH  10  12
ENDBRANCH   8   9
BRANCH   1  23
ATOM     23  C   UNL     1      -2.676  -1.298  25.318  0.00  0.00    +0.075 C 
ATOM     24  C   UNL     1      -3.261  -1.095  25.864  0.00  0.00    +0.009 C 
BRANCH  23  25
ATOM     25  C   UNL     1      -2.689  -2.039  24.955  0.00  0.00    +0.225 C 
ATOM     26  O   UNL     1      -2.065  -2.566  25.070  0.00  0.00    -0.275 OA
ATOM     27  N   UNL     1      -3.328  -2.253  24.477  0.00  0.00    -0.274 N 
ATOM     28  C   UNL     1      -3.341  -2.993  24.115  0.00  0.00    +0.125 C 
ATOM     29  C   UNL     1      -3.978  -3.208  23.638  0.00  0.00    +0.164 C 
ATOM     30  O   UNL     1      -4.602  -2.681  23.523  0.00  0.00    -0.350 OA
ATOM     31  C   UNL     1      -4.589  -1.941  23.885  0.00  0.00    +0.164 C 
ATOM     32  C   UNL     1      -3.952  -1.726  24.363  0.00  0.00    +0.125 C 
ENDBRANCH  23  25
ENDBRANCH   1  23
TORSDOF 4
ENDMDL
MODEL 5
REMARK VINA RESULT:     -10.8      3.194      4.983
REMARK  Name = 
REMARK  4 active torsions:
REMARK  status: ('A' for Active; 'I' for Inactive)
REMARK    1  A    between atoms: C_2  and  C_25
REMARK    2  A    between atoms: C_9  and  N_10
REMARK    3  A    between atoms: C_11  and  C_13
REMARK    4  A    between atoms: C_25  and  C_27
REMARK                            x       y       z     vdW  Elec       q    Type
REMARK                         _______ _______ _______ _____ _____    ______ ____
ROOT
ATOM      1  C   UNL     1      -0.130   0.314  23.987  0.00  0.00    +0.052 C 
ATOM      2  C   UNL     1      -0.159  -0.452  24.296  0.00  0.00    -0.001 C 
ATOM      3  C   UNL     1      -0.845  -0.723  24.663  0.00  0.00    -0.000 C 
ATOM      4  C   UNL     1      -1.503  -0.229  24.723  0.00  0.00    -0.001 C 
ATOM      5  C   UNL     1      -1.532  -0.993  25.030  0.00  0.00    -0.000 C 
ATOM      6  C   UNL     1      -2.191  -0.500  25.090  0.00  0.00    +0.002 C 
ATOM      7  C   UNL     1      -2.848  -0.006  25.150  0.00  0.00    +0.022 C 
ATOM      8  C   UNL     1      -2.819   0.759  24.842  0.00  0.00    +0.095 C 
ATOM     18  C   UNL     1      -2.133   1.030  24.474  0.00  0.00    +0.019 C 
ATOM     19  C   UNL     1      -2.104   1.795  24.166  0.00  0.00    +0.002 C 
ATOM     20  C   UNL     1      -1.474   0.536  24.414  0.00  0.00    +0.045 C 
ATOM     21  C   UNL     1      -0.788   0.807  24.047  0.00  0.00    +0.145 C 
ATOM     22  O   UNL     1      -0.759   1.572  23.739  0.00  0.00    -0.224 OA
ENDROOT
BRANCH   8   9
ATOM      9  N   UNL     1      -3.478   1.253  24.902  0.00  0.00    -0.202 NA
ATOM     10  C   UNL     1      -4.207   0.943  25.130  0.00  0.00    +0.282 C 
ATOM     11  O   UNL     1      -4.278   0.137  25.299  0.00  0.00    -0.267 OA
BRANCH  10  12
ATOM     12  C   UNL     1      -4.865   1.436  25.191  0.00  0.00    +0.136 A 
ATOM     13  N   UNL     1      -4.824   2.128  25.637  0.00  0.00    -0.239 NA
ATOM     14  C   UNL     1      -5.482   2.622  25.697  0.00  0.00    +0.099 A 
ATOM     15  C   UNL     1      -6.183   2.422  25.310  0.00  0.00    +0.021 A 
ATOM     16  C   UNL     1      -6.225   1.729  24.863  0.00  0.00    +0.003 A 
ATOM     17  C   UNL     1      -5.566   1.237  24.804  0.00  0.00    +0.024 A 
ENDBRANCH  10  12
ENDBRANCH   8   9
BRANCH   1  23
ATOM     23  C   UNL     1       0.558   0.584  23.619  0.00  0.00    +0.075 C 
ATOM     24  C   UNL     1       0.934   1.265  23.895  0.00  0.00    +0.009 C 
BRANCH  23  25
ATOM     25  C   UNL     1       0.869   0.173  22.976  0.00  0.00    +0.225 C 
ATOM     26  O   UNL     1       0.380  -0.309  22.518  0.00  0.00    -0.275 OA
ATOM     27  N   UNL     1       1.670   0.244  22.789  0.00  0.00    -0.274 N 
ATOM     28  C   UNL     1       1.982  -0.166  22.146  0.00  0.00    +0.125 C 
ATOM     29  C   UNL     1       2.782  -0.096  21.959  0.00  0.00    +0.164 C 
ATOM     30  O   UNL     1       3.270   0.387  22.416  0.00  0.00    -0.350 OA
ATOM     31  C   UNL     1       2.959   0.797  23.060  0.00  0.00    +0.164 C 
ATOM     32  C   UNL     1       2.159   0.726  23.246  0.00  0.00    +0.125 C 
ENDBRANCH  23  25
ENDBRANCH   1  23
TORSDOF 4
ENDMDL
