MODEL 1
REMARK VINA RESULT:     -10.7      0.000      0.000
REMARK  Name = 
REMARK  5 active torsions:
REMARK  status: ('A' for Active; 'I' for Inactive)
REMARK    1  A    between atoms: O_2  and  C_3
REMARK    2  A    between atoms: C_8  and  C_9
REMARK    3  A    between atoms: C_12  and  C_14
REMARK    4  A    between atoms: N_17  and  C_18
REMARK    5  A    between atoms: C_18  and  C_19
REMARK                            x       y       z     vdW  Elec       q    Type
REMARK                         _______ _______ _______ _____ _____    ______ ____
ROOT
ATOM      9  C   UNL     1      -4.096  -0.143  24.671  0.00  0.00    +0.252 A 
ATOM     10  N   UNL     1      -4.729   0.178  25.093  0.00  0.00    -0.107 NA
ATOM     11  N   UNL     1      -4.674   1.000  25.047  0.00  0.00    -0.111 NA
ATOM     12  C   UNL     1      -4.008   1.187  24.597  0.00  0.00    +0.227 A 
ATOM     13  O   UNL     1      -3.651   0.480  24.365  0.00  0.00    -0.419 OA
ENDROOT
BRANCH   9   8
ATOM      3  C   UNL     1      -3.388  -1.321  25.060  0.00  0.00    +0.143 A 
ATOM      4  C   UNL     1      -3.229  -2.125  24.961  0.00  0.00    +0.037 A 
ATOM      5  C   UNL     1      -3.621  -2.553  24.376  0.00  0.00    +0.003 A 
ATOM      6  C   UNL     1      -4.171  -2.179  23.888  0.00  0.00    +0.000 A 
ATOM      7  C   UNL     1      -4.329  -1.376  23.986  0.00  0.00    +0.008 A 
ATOM      8  C   UNL     1      -3.938  -0.946  24.572  0.00  0.00    +0.089 A 
BRANCH   3   2
ATOM      1  C   UNL     1      -2.378  -1.239  26.067  0.00  0.00    +0.252 C 
ATOM      2  O   UNL     1      -2.997  -0.892  25.646  0.00  0.00    -0.471 OA
ENDBRANCH   3   2
ENDBRANCH   9   8
BRANCH  12  14
ATOM     14  C   UNL     1      -3.745   1.947  24.413  0.00  0.00    +0.096 C 
ATOM     15  C   UNL     1      -3.513   2.212  23.667  0.00  0.00    +0.028 C 
ATOM     16  C   UNL     1      -3.292   3.004  23.736  0.00  0.00    +0.073 C 
ATOM     17  N   UNL     1      -3.388   3.228  24.524  0.00  0.00    -0.272 NA
ATOM     22  C   UNL     1      -3.668   2.575  24.942  0.00  0.00    +0.081 C 
BRANCH  17  18
ATOM     18  C   UNL     1      -3.232   3.975  24.838  0.00  0.00    +0.072 C 
BRANCH  18  19
ATOM     19  C   UNL     1      -2.601   4.080  25.359  0.00  0.00    +0.016 C 
ATOM     20  C   UNL     1      -2.738   4.105  26.173  0.00  0.00    +0.001 C 
ATOM     21  C   UNL     1      -1.834   4.159  25.067  0.00  0.00    +0.001 C 
ENDBRANCH  18  19
ENDBRANCH  17  18
ENDBRANCH  12  14
TORSDOF 5
ENDMDL
MODEL 2
REMARK VINA RESULT:     -10.3      1.180      4.781
REMARK  Name = 
REMARK  5 active torsions:
REMARK  status: ('A' for Active; 'I' for Inactive)
REMARK    1  A    between atoms: O_2  and  C_3
REMARK    2  A    between atoms: C_8  and  C_9
REMARK    3  A    between atoms: C_12  and  C_14
REMARK    4  A    between atoms: N_17  and  C_18
REMARK    5  A    between atoms: C_18  and  C_19
REMARK                            x       y       z     vdW  Elec       q    Type
REMARK                         _______ _______ _______ _____ _____    ______ ____
ROOT
ATOM      9  C   UNL     1      -2.883   2.247  24.591  0.00  0.00    +0.252 A 
ATOM     10  N   UNL     1      -2.923   2.145  23.773  0.00  0.00    -0.107 NA
ATOM     11  N   UNL     1      -3.174   1.373  23.626  0.00  0.00    -0.111 NA
ATOM     12  C   UNL     1      -3.288   0.998  24.352  0.00  0.00    +0.227 A 
ATOM     13  O   UNL     1      -3.108   1.540  24.949  0.00  0.00    -0.419 OA
ENDROOT
BRANCH   9   8
ATOM      3  C   UNL     1      -3.230   3.456  25.269  0.00  0.00    +0.143 A 
ATOM      4  C   UNL     1      -3.004   4.146  25.660  0.00  0.00    +0.037 A 
ATOM      5  C   UNL     1      -2.204   4.318  25.765  0.00  0.00    +0.003 A 
ATOM      6  C   UNL     1      -1.630   3.799  25.478  0.00  0.00    +0.000 A 
ATOM      7  C   UNL     1      -1.856   3.109  25.087  0.00  0.00    +0.008 A 
ATOM      8  C   UNL     1      -2.657   2.937  24.982  0.00  0.00    +0.089 A 
BRANCH   3   2
ATOM      1  C   UNL     1      -4.604   3.790  25.474  0.00  0.00    +0.252 C 
ATOM      2  O   UNL     1      -4.031   3.284  25.165  0.00  0.00    -0.471 OA
ENDBRANCH   3   2
ENDBRANCH   9   8
BRANCH  12  14
ATOM     14  C   UNL     1      -3.539   0.220  24.462  0.00  0.00    +0.096 C 
ATOM     15  C   UNL     1      -4.248  -0.104  24.195  0.00  0.00    +0.028 C 
ATOM     16  C   UNL     1      -4.271  -0.895  24.427  0.00  0.00    +0.073 C 
ATOM     17  N   UNL     1      -3.575  -1.061  24.838  0.00  0.00    -0.272 NA
ATOM     22  C   UNL     1      -3.123  -0.372  24.859  0.00  0.00    +0.081 C 
BRANCH  17  18
ATOM     18  C   UNL     1      -3.368  -1.788  25.168  0.00  0.00    +0.072 C 
BRANCH  18  19
ATOM     19  C   UNL     1      -3.108  -2.403  24.684  0.00  0.00    +0.016 C 
ATOM     20  C   UNL     1      -3.654  -2.929  24.356  0.00  0.00    +0.001 C 
ATOM     21  C   UNL     1      -2.303  -2.492  24.526  0.00  0.00    +0.001 C 
ENDBRANCH  18  19
ENDBRANCH  17  18
ENDBRANCH  12  14
TORSDOF 5
ENDMDL
MODEL 3
REMARK VINA RESULT:      -9.9      1.997      5.162
REMARK  Name = 
REMARK  5 active torsions:
REMARK  status: ('A' for Active; 'I' for Inactive)
REMARK    1  A    between atoms: O_2  and  C_3
REMARK    2  A    between atoms: C_8  and  C_9
REMARK    3  A    between atoms: C_12  and  C_14
REMARK    4  A    between atoms: N_17  and  C_18
REMARK    5  A    between atoms: C_18  and  C_19
REMARK                            x       y       z     vdW  Elec       q    Type
REMARK                         _______ _______ _______ _____ _____    ______ ____
ROOT
ATOM      9  C   UNL     1      -1.126   2.820  25.430  0.00  0.00    +0.252 A 
ATOM     10  N   UNL     1      -0.704   2.472  26.047  0.00  0.00    -0.107 NA
ATOM     11  N   UNL     1      -0.778   1.653  25.976  0.00  0.00    -0.111 NA
ATOM     12  C   UNL     1      -1.245   1.496  25.314  0.00  0.00    +0.227 A 
ATOM     13  O   UNL     1      -1.460   2.218  24.977  0.00  0.00    -0.419 OA
ENDROOT
BRANCH   9   8
ATOM      3  C   UNL     1      -1.859   4.039  25.570  0.00  0.00    +0.143 A 
ATOM      4  C   UNL     1      -1.933   4.848  25.430  0.00  0.00    +0.037 A 
ATOM      5  C   UNL     1      -1.348   5.249  25.010  0.00  0.00    +0.003 A 
ATOM      6  C   UNL     1      -0.688   4.841  24.729  0.00  0.00    +0.000 A 
ATOM      7  C   UNL     1      -0.614   4.031  24.868  0.00  0.00    +0.008 A 
ATOM      8  C   UNL     1      -1.200   3.630  25.290  0.00  0.00    +0.089 A 
BRANCH   3   2
ATOM      1  C   UNL     1      -3.116   4.040  26.249  0.00  0.00    +0.252 C 
ATOM      2  O   UNL     1      -2.444   3.637  25.992  0.00  0.00    -0.471 OA
ENDBRANCH   3   2
ENDBRANCH   9   8
BRANCH  12  14
ATOM     14  C   UNL     1      -1.460   0.748  25.039  0.00  0.00    +0.096 C 
ATOM     15  C   UNL     1      -0.944   0.162  24.775  0.00  0.00    +0.028 C 
ATOM     16  C   UNL     1      -1.394  -0.493  24.552  0.00  0.00    +0.073 C 
ATOM     17  N   UNL     1      -2.189  -0.310  24.678  0.00  0.00    -0.272 NA
ATOM     22  C   UNL     1      -2.229   0.456  24.979  0.00  0.00    +0.081 C 
BRANCH  17  18
ATOM     18  C   UNL     1      -2.830  -0.808  24.529  0.00  0.00    +0.072 C 
BRANCH  18  19
ATOM     19  C   UNL     1      -3.015  -1.412  25.059  0.00  0.00    +0.016 C 
ATOM     20  C   UNL     1      -3.472  -1.250  25.728  0.00  0.00    +0.001 C 
ATOM     21  C   UNL     1      -2.743  -2.179  24.921  0.00  0.00    +0.001 C 
ENDBRANCH  18  19
ENDBRANCH  17  18
ENDBRANCH  12  14
TORSDOF 5
ENDMDL
