REMARK  Name = 
REMARK  8 active torsions:
REMARK  status: ('A' for Active; 'I' for Inactive)
REMARK    1  A    between atoms: C_5  and  S_8
REMARK    2  A    between atoms: S_8  and  N_11
REMARK    3  A    between atoms: N_11  and  C_12
REMARK    4  A    between atoms: C_12  and  C_13
REMARK    5  A    between atoms: C_15  and  C_16
REMARK    6  A    between atoms: C_16  and  C_17
REMARK    7  A    between atoms: N_19  and  C_20
REMARK    8  A    between atoms: C_20  and  C_21
REMARK                            x       y       z     vdW  Elec       q    Type
REMARK                         _______ _______ _______ _____ _____    ______ ____
ROOT
ATOM     13  C   UNL     1      -2.918   5.372   0.000  0.00  0.00    +0.167 C 
ATOM     14  O   UNL     1      -2.366   5.985   0.000  0.00  0.00    -0.351 OA
ATOM     15  C   UNL     1      -1.612   5.649   0.000  0.00  0.00    +0.157 C 
ATOM     23  C   UNL     1      -1.698   4.829   0.000  0.00  0.00    +0.212 C 
ATOM     24  O   UNL     1      -1.085   4.277   0.000  0.00  0.00    -0.218 OA
ATOM     25  C   UNL     1      -2.505   4.657   0.000  0.00  0.00    +0.213 C 
ATOM     26  O   UNL     1      -2.841   3.904   0.000  0.00  0.00    -0.218 OA
ENDROOT
BRANCH  13  12
ATOM     12  C   UNL     1      -3.738   5.458   0.000  0.00  0.00    +0.148 C 
BRANCH  12  11
ATOM     11  N   UNL     1      -4.223   4.791   0.000  0.00  0.00    -0.075 NA
BRANCH  11   8
ATOM      8  S   UNL     1      -5.043   4.877   0.000  0.00  0.00    +0.077 S 
ATOM      9  O   UNL     1      -5.130   4.056   0.000  0.00  0.00    -0.152 OA
ATOM     10  O   UNL     1      -4.957   5.697   0.000  0.00  0.00    -0.152 OA
BRANCH   8   5
ATOM      1  C   UNL     1      -8.325   5.222   0.000  0.00  0.00    +0.031 C 
ATOM      2  C   UNL     1      -7.505   5.136   0.000  0.00  0.00    -0.022 A 
ATOM      3  C   UNL     1      -7.020   5.803   0.000  0.00  0.00    -0.003 A 
ATOM      4  C   UNL     1      -6.199   5.717   0.000  0.00  0.00    +0.020 A 
ATOM      5  C   UNL     1      -5.864   4.963   0.000  0.00  0.00    +0.124 A 
ATOM      6  C   UNL     1      -6.349   4.296   0.000  0.00  0.00    +0.020 A 
ATOM      7  C   UNL     1      -7.169   4.382   0.000  0.00  0.00    -0.003 A 
ENDBRANCH   8   5
ENDBRANCH  11   8
ENDBRANCH  12  11
ENDBRANCH  13  12
BRANCH  15  16
ATOM     16  C   UNL     1      -0.897   6.062   0.000  0.00  0.00    +0.119 C 
BRANCH  16  17
ATOM     17  C   UNL     1      -0.183   5.649   0.000  0.00  0.00    +0.245 C 
ATOM     18  O   UNL     1      -0.183   4.824   0.000  0.00  0.00    -0.273 OA
ATOM     19  N   UNL     1       0.531   6.062   0.000  0.00  0.00    -0.191 NA
BRANCH  19  20
ATOM     20  C   UNL     1       1.246   5.649   0.000  0.00  0.00    +0.191 C 
BRANCH  20  21
ATOM     21  C   UNL     1       1.960   6.062   0.000  0.00  0.00    -0.054 C 
ATOM     22  C   UNL     1       2.675   6.474   0.000  0.00  0.00    -0.012 C 
ENDBRANCH  20  21
ENDBRANCH  19  20
ENDBRANCH  16  17
ENDBRANCH  15  16
TORSDOF 8
