MODEL 1
REMARK VINA RESULT:     -13.1      0.000      0.000
REMARK  Name = 
REMARK  5 active torsions:
REMARK  status: ('A' for Active; 'I' for Inactive)
REMARK    1  A    between atoms: C_3  and  N_4
REMARK    2  A    between atoms: N_4  and  C_5
REMARK    3  A    between atoms: C_5  and  C_6
REMARK    4  A    between atoms: C_18  and  N_19
REMARK    5  A    between atoms: N_22  and  C_25
REMARK                            x       y       z     vdW  Elec       q    Type
REMARK                         _______ _______ _______ _____ _____    ______ ____
ROOT
ATOM      1  O   UNL     1      -2.259   1.226  24.341  0.00  0.00    -0.220 OA
ATOM      2  C   UNL     1      -3.075   1.126  24.419  0.00  0.00    +0.190 C 
ATOM      3  C   UNL     1      -3.813   0.751  24.430  0.00  0.00    +0.135 C 
ATOM     13  C   UNL     1      -4.339   1.486  24.647  0.00  0.00    +0.166 C 
ATOM     14  C   UNL     1      -3.953   2.154  24.740  0.00  0.00    +0.176 C 
ATOM     15  O   UNL     1      -4.008   2.861  24.894  0.00  0.00    -0.327 OA
ATOM     16  C   UNL     1      -4.282   2.034  24.755  0.00  0.00    +0.253 C 
ATOM     17  O   UNL     1      -5.019   1.663  24.767  0.00  0.00    -0.328 OA
ATOM     18  C   UNL     1      -3.719   1.275  24.528  0.00  0.00    +0.147 C 
ENDROOT
BRANCH  18  19
ATOM     19  N   UNL     1      -3.256   1.952  24.613  0.00  0.00    -0.265 NA
ATOM     20  C   UNL     1      -3.109   2.437  23.961  0.00  0.00    +0.094 C 
ATOM     21  C   UNL     1      -2.645   3.113  24.046  0.00  0.00    +0.108 C 
ATOM     22  N   UNL     1      -2.328   3.306  24.782  0.00  0.00    -0.305 N 
ATOM     23  C   UNL     1      -2.475   2.823  25.434  0.00  0.00    +0.108 C 
ATOM     24  C   UNL     1      -2.938   2.146  25.350  0.00  0.00    +0.094 C 
BRANCH  22  25
ATOM     25  C   UNL     1      -1.864   3.983  24.868  0.00  0.00    +0.048 A 
ATOM     26  C   UNL     1      -1.060   3.958  24.684  0.00  0.00    +0.015 A 
ATOM     27  C   UNL     1      -0.595   4.634  24.770  0.00  0.00    +0.001 A 
ATOM     28  C   UNL     1      -0.935   5.336  25.039  0.00  0.00    +0.000 A 
ATOM     29  C   UNL     1      -1.739   5.362  25.222  0.00  0.00    +0.001 A 
ATOM     30  C   UNL     1      -2.203   4.686  25.137  0.00  0.00    +0.015 A 
ENDBRANCH  22  25
ENDBRANCH  18  19
BRANCH   3   4
ATOM      4  N   UNL     1      -4.020  -0.036  24.292  0.00  0.00    -0.209 NA
BRANCH   4   5
ATOM      5  C   UNL     1      -3.816  -0.619  24.839  0.00  0.00    +0.118 C 
BRANCH   5   6
ATOM      6  C   UNL     1      -3.841  -1.414  24.623  0.00  0.00    +0.034 A 
ATOM      7  C   UNL     1      -3.513  -1.987  25.119  0.00  0.00    +0.193 A 
ATOM      8  O   UNL     1      -3.160  -1.763  25.830  0.00  0.00    -0.287 OA
ATOM      9  C   UNL     1      -3.537  -2.783  24.903  0.00  0.00    +0.042 A 
ATOM     10  C   UNL     1      -3.890  -3.006  24.192  0.00  0.00    +0.003 A 
ATOM     11  C   UNL     1      -4.218  -2.433  23.696  0.00  0.00    -0.000 A 
ATOM     12  C   UNL     1      -4.193  -1.638  23.912  0.00  0.00    +0.000 A 
ENDBRANCH   5   6
ENDBRANCH   4   5
ENDBRANCH   3   4
TORSDOF 5
ENDMDL
MODEL 2
REMARK VINA RESULT:     -13.1      0.762      5.161
REMARK  Name = 
REMARK  5 active torsions:
REMARK  status: ('A' for Active; 'I' for Inactive)
REMARK    1  A    between atoms: C_3  and  N_4
REMARK    2  A    between atoms: N_4  and  C_5
REMARK    3  A    between atoms: C_5  and  C_6
REMARK    4  A    between atoms: C_18  and  N_19
REMARK    5  A    between atoms: N_22  and  C_25
REMARK                            x       y       z     vdW  Elec       q    Type
REMARK                         _______ _______ _______ _____ _____    ______ ____
ROOT
ATOM      1  O   UNL     1      -2.304   0.948  24.991  0.00  0.00    -0.220 OA
ATOM      2  C   UNL     1      -2.865   1.545  24.890  0.00  0.00    +0.190 C 
ATOM      3  C   UNL     1      -3.194   2.304  24.859  0.00  0.00    +0.135 C 
ATOM     13  C   UNL     1      -4.062   2.071  24.624  0.00  0.00    +0.166 C 
ATOM     14  C   UNL     1      -4.189   1.308  24.540  0.00  0.00    +0.176 C 
ATOM     15  O   UNL     1      -4.679   0.797  24.382  0.00  0.00    -0.327 OA
ATOM     16  C   UNL     1      -4.365   1.611  24.516  0.00  0.00    +0.253 C 
ATOM     17  O   UNL     1      -4.695   2.366  24.485  0.00  0.00    -0.328 OA
ATOM     18  C   UNL     1      -3.454   1.839  24.762  0.00  0.00    +0.147 C 
ENDROOT
BRANCH  18  19
ATOM     19  N   UNL     1      -3.527   1.021  24.688  0.00  0.00    -0.265 NA
ATOM     20  C   UNL     1      -3.769   0.567  25.334  0.00  0.00    +0.094 C 
ATOM     21  C   UNL     1      -3.842  -0.251  25.259  0.00  0.00    +0.108 C 
ATOM     22  N   UNL     1      -3.674  -0.616  24.539  0.00  0.00    -0.305 N 
ATOM     23  C   UNL     1      -3.432  -0.163  23.893  0.00  0.00    +0.108 C 
ATOM     24  C   UNL     1      -3.359   0.655  23.968  0.00  0.00    +0.094 C 
BRANCH  22  25
ATOM     25  C   UNL     1      -3.747  -1.434  24.463  0.00  0.00    +0.048 A 
ATOM     26  C   UNL     1      -3.355  -1.933  24.991  0.00  0.00    +0.015 A 
ATOM     27  C   UNL     1      -3.427  -2.752  24.917  0.00  0.00    +0.001 A 
ATOM     28  C   UNL     1      -3.891  -3.071  24.314  0.00  0.00    +0.000 A 
ATOM     29  C   UNL     1      -4.283  -2.572  23.787  0.00  0.00    +0.001 A 
ATOM     30  C   UNL     1      -4.211  -1.755  23.861  0.00  0.00    +0.015 A 
ENDBRANCH  22  25
ENDBRANCH  18  19
BRANCH   3   4
ATOM      4  N   UNL     1      -2.854   3.044  24.996  0.00  0.00    -0.209 NA
BRANCH   4   5
ATOM      5  C   UNL     1      -2.043   3.152  24.887  0.00  0.00    +0.118 C 
BRANCH   5   6
ATOM      6  C   UNL     1      -1.716   3.907  24.941  0.00  0.00    +0.034 A 
ATOM      7  C   UNL     1      -0.952   4.046  24.663  0.00  0.00    +0.193 A 
ATOM      8  O   UNL     1      -0.515   3.430  24.330  0.00  0.00    -0.287 OA
ATOM      9  C   UNL     1      -0.624   4.802  24.717  0.00  0.00    +0.042 A 
ATOM     10  C   UNL     1      -1.062   5.417  25.049  0.00  0.00    +0.003 A 
ATOM     11  C   UNL     1      -1.826   5.277  25.327  0.00  0.00    -0.000 A 
ATOM     12  C   UNL     1      -2.153   4.522  25.273  0.00  0.00    +0.000 A 
ENDBRANCH   5   6
ENDBRANCH   4   5
ENDBRANCH   3   4
TORSDOF 5
ENDMDL
MODEL 3
REMARK VINA RESULT:     -12.7      1.374      5.453
REMARK  Name = 
REMARK  5 active torsions:
REMARK  status: ('A' for Active; 'I' for Inactive)
REMARK    1  A    between atoms: C_3  and  N_4
REMARK    2  A    between atoms: N_4  and  C_5
REMARK    3  A    between atoms: C_5  and  C_6
REMARK    4  A    between atoms: C_18  and  N_19
REMARK    5  A    between atoms: N_22  and  C_25
REMARK                            x       y       z     vdW  Elec       q    Type
REMARK                         _______ _______ _______ _____ _____    ______ ____
ROOT
ATOM      1  O   UNL     1      -2.690   1.162  24.169  0.00  0.00    -0.220 OA
ATOM      2  C   UNL     1      -2.037   1.295  24.657  0.00  0.00    +0.190 C 
ATOM      3  C   UNL     1      -1.424   1.700  25.041  0.00  0.00    +0.135 C 
ATOM     13  C   UNL     1      -1.064   0.987  25.517  0.00  0.00    +0.166 C 
ATOM     14  C   UNL     1      -1.420   0.304  25.411  0.00  0.00    +0.176 C 
ATOM     15  O   UNL     1      -1.430  -0.400  25.588  0.00  0.00    -0.327 OA
ATOM     16  C   UNL     1      -1.151   0.437  25.591  0.00  0.00    +0.253 C 
ATOM     17  O   UNL     1      -0.540   0.837  25.975  0.00  0.00    -0.328 OA
ATOM     18  C   UNL     1      -1.538   1.172  25.088  0.00  0.00    +0.147 C 
ENDROOT
BRANCH  18  19
ATOM     19  N   UNL     1      -1.956   0.477  24.936  0.00  0.00    -0.265 NA
ATOM     20  C   UNL     1      -2.623   0.289  25.385  0.00  0.00    +0.094 C 
ATOM     21  C   UNL     1      -3.041  -0.405  25.233  0.00  0.00    +0.108 C 
ATOM     22  N   UNL     1      -2.792  -0.912  24.632  0.00  0.00    -0.305 N 
ATOM     23  C   UNL     1      -2.126  -0.725  24.183  0.00  0.00    +0.108 C 
ATOM     24  C   UNL     1      -1.709  -0.030  24.335  0.00  0.00    +0.094 C 
BRANCH  22  25
ATOM     25  C   UNL     1      -3.210  -1.608  24.479  0.00  0.00    +0.048 A 
ATOM     26  C   UNL     1      -2.970  -2.317  24.826  0.00  0.00    +0.015 A 
ATOM     27  C   UNL     1      -3.387  -3.012  24.674  0.00  0.00    +0.001 A 
ATOM     28  C   UNL     1      -4.043  -2.998  24.174  0.00  0.00    +0.000 A 
ATOM     29  C   UNL     1      -4.283  -2.289  23.827  0.00  0.00    +0.001 A 
ATOM     30  C   UNL     1      -3.866  -1.595  23.979  0.00  0.00    +0.015 A 
ENDBRANCH  22  25
ENDBRANCH  18  19
BRANCH   3   4
ATOM      4  N   UNL     1      -1.202   2.494  25.011  0.00  0.00    -0.209 NA
BRANCH   4   5
ATOM      5  C   UNL     1      -1.691   3.072  25.339  0.00  0.00    +0.118 C 
BRANCH   5   6
ATOM      6  C   UNL     1      -1.520   3.870  25.223  0.00  0.00    +0.034 A 
ATOM      7  C   UNL     1      -2.058   4.447  25.468  0.00  0.00    +0.193 A 
ATOM      8  O   UNL     1      -2.765   4.224  25.828  0.00  0.00    -0.287 OA
ATOM      9  C   UNL     1      -1.888   5.246  25.352  0.00  0.00    +0.042 A 
ATOM     10  C   UNL     1      -1.180   5.468  24.991  0.00  0.00    +0.003 A 
ATOM     11  C   UNL     1      -0.643   4.892  24.746  0.00  0.00    -0.000 A 
ATOM     12  C   UNL     1      -0.813   4.093  24.862  0.00  0.00    +0.000 A 
ENDBRANCH   5   6
ENDBRANCH   4   5
ENDBRANCH   3   4
TORSDOF 5
ENDMDL
MODEL 4
REMARK VINA RESULT:     -12.5      1.400      2.082
REMARK  Name = 
REMARK  5 active torsions:
REMARK  status: ('A' for Active; 'I' for Inactive)
REMARK    1  A    between atoms: C_3  and  N_4
REMARK    2  A    between atoms: N_4  and  C_5
REMARK    3  A    between atoms: C_5  and  C_6
REMARK    4  A    between atoms: C_18  and  N_19
REMARK    5  A    between atoms: N_22  and  C_25
REMARK                            x       y       z     vdW  Elec       q    Type
REMARK                         _______ _______ _______ _____ _____    ______ ____
ROOT
ATOM      1  O   UNL     1      -2.751   1.399  25.112  0.00  0.00    -0.220 OA
ATOM      2  C   UNL     1      -2.185   0.828  24.927  0.00  0.00    +0.190 C 
ATOM      3  C   UNL     1      -1.850   0.084  24.786  0.00  0.00    +0.135 C 
ATOM     13  C   UNL     1      -0.983   0.355  24.592  0.00  0.00    +0.166 C 
ATOM     14  C   UNL     1      -0.861   1.123  24.621  0.00  0.00    +0.176 C 
ATOM     15  O   UNL     1      -0.374   1.655  24.542  0.00  0.00    -0.327 OA
ATOM     16  C   UNL     1      -0.683   0.828  24.554  0.00  0.00    +0.253 C 
ATOM     17  O   UNL     1      -0.347   0.088  24.413  0.00  0.00    -0.328 OA
ATOM     18  C   UNL     1      -1.593   0.560  24.759  0.00  0.00    +0.147 C 
ENDROOT
BRANCH  18  19
ATOM     19  N   UNL     1      -1.526   1.381  24.806  0.00  0.00    -0.265 NA
ATOM     20  C   UNL     1      -1.677   1.847  24.142  0.00  0.00    +0.094 C 
ATOM     21  C   UNL     1      -1.610   2.667  24.189  0.00  0.00    +0.108 C 
ATOM     22  N   UNL     1      -1.391   3.023  24.901  0.00  0.00    -0.305 N 
ATOM     23  C   UNL     1      -1.239   2.558  25.565  0.00  0.00    +0.108 C 
ATOM     24  C   UNL     1      -1.307   1.737  25.518  0.00  0.00    +0.094 C 
BRANCH  22  25
ATOM     25  C   UNL     1      -1.324   3.844  24.949  0.00  0.00    +0.048 A 
ATOM     26  C   UNL     1      -1.935   4.289  25.279  0.00  0.00    +0.015 A 
ATOM     27  C   UNL     1      -1.869   5.110  25.328  0.00  0.00    +0.001 A 
ATOM     28  C   UNL     1      -1.190   5.485  25.046  0.00  0.00    +0.000 A 
ATOM     29  C   UNL     1      -0.579   5.040  24.717  0.00  0.00    +0.001 A 
ATOM     30  C   UNL     1      -0.645   4.220  24.668  0.00  0.00    +0.015 A 
ENDBRANCH  22  25
ENDBRANCH  18  19
BRANCH   3   4
ATOM      4  N   UNL     1      -2.185  -0.671  24.810  0.00  0.00    -0.209 NA
BRANCH   4   5
ATOM      5  C   UNL     1      -2.926  -0.804  24.472  0.00  0.00    +0.118 C 
BRANCH   5   6
ATOM      6  C   UNL     1      -3.238  -1.566  24.449  0.00  0.00    +0.034 A 
ATOM      7  C   UNL     1      -3.904  -1.726  23.989  0.00  0.00    +0.193 A 
ATOM      8  O   UNL     1      -4.257  -1.123  23.552  0.00  0.00    -0.287 OA
ATOM      9  C   UNL     1      -4.216  -2.490  23.966  0.00  0.00    +0.042 A 
ATOM     10  C   UNL     1      -3.862  -3.093  24.404  0.00  0.00    +0.003 A 
ATOM     11  C   UNL     1      -3.196  -2.933  24.864  0.00  0.00    -0.000 A 
ATOM     12  C   UNL     1      -2.884  -2.170  24.887  0.00  0.00    +0.000 A 
ENDBRANCH   5   6
ENDBRANCH   4   5
ENDBRANCH   3   4
TORSDOF 5
ENDMDL
