MODEL 1
REMARK VINA RESULT:      -9.5      0.000      0.000
REMARK  Name = 
REMARK  8 active torsions:
REMARK  status: ('A' for Active; 'I' for Inactive)
REMARK    1  A    between atoms: O_2  and  C_3
REMARK    2  A    between atoms: C_3  and  C_5
REMARK    3  A    between atoms: C_6  and  N_7
REMARK    4  A    between atoms: C_16  and  N_18
REMARK    5  A    between atoms: C_19  and  C_21
REMARK    6  A    between atoms: C_24  and  O_25
REMARK    7  A    between atoms: O_25  and  C_26
REMARK    8  A    between atoms: C_26  and  C_27
REMARK                            x       y       z     vdW  Elec       q    Type
REMARK                         _______ _______ _______ _____ _____    ______ ____
ROOT
ATOM      7  N   UNL     1      -3.802   1.733  25.127  0.00  0.00    -0.162 NA
ATOM      8  C   UNL     1      -3.016   1.553  24.951  0.00  0.00    +0.328 C 
ATOM      9  O   UNL     1      -2.466   2.159  24.854  0.00  0.00    -0.250 OA
ATOM     10  N   UNL     1      -2.781   0.766  24.871  0.00  0.00    -0.261 N 
ATOM     11  C   UNL     1      -3.375   0.202  24.978  0.00  0.00    +0.095 C 
ATOM     12  C   UNL     1      -3.318  -0.619  24.936  0.00  0.00    +0.024 C 
ATOM     13  C   UNL     1      -2.652  -1.081  24.775  0.00  0.00    +0.037 C 
ATOM     14  C   UNL     1      -1.881  -0.834  24.618  0.00  0.00    +0.174 C 
ATOM     15  O   UNL     1      -1.335  -1.436  24.478  0.00  0.00    -0.221 OA
ATOM     16  C   UNL     1      -1.584  -0.066  24.582  0.00  0.00    +0.146 C 
ATOM     17  C   UNL     1      -1.985   0.646  24.695  0.00  0.00    +0.119 C 
ENDROOT
BRANCH   7   6
ATOM      5  C   UNL     1      -4.833   2.704  25.317  0.00  0.00    +0.091 A 
ATOM      6  C   UNL     1      -4.037   2.520  25.207  0.00  0.00    +0.081 A 
ATOM     36  C   UNL     1      -3.475   3.124  25.176  0.00  0.00    +0.017 A 
ATOM     37  C   UNL     1      -3.710   3.910  25.256  0.00  0.00    +0.001 A 
ATOM     38  C   UNL     1      -4.507   4.093  25.366  0.00  0.00    +0.000 A 
ATOM     39  C   UNL     1      -5.069   3.490  25.396  0.00  0.00    +0.008 A 
BRANCH   5   3
ATOM      3  C   UNL     1      -5.396   2.101  25.347  0.00  0.00    +0.343 C 
ATOM      4  O   UNL     1      -5.523   1.691  26.052  0.00  0.00    -0.245 OA
BRANCH   3   2
ATOM      1  C   UNL     1      -6.586   1.586  24.748  0.00  0.00    +0.256 C 
ATOM      2  O   UNL     1      -5.831   1.907  24.673  0.00  0.00    -0.441 OA
ENDBRANCH   3   2
ENDBRANCH   5   3
ENDBRANCH   7   6
BRANCH  16  18
ATOM     18  N   UNL     1      -0.779  -0.001  24.411  0.00  0.00    -0.199 NA
ATOM     19  C   UNL     1      -0.536   0.319  23.690  0.00  0.00    +0.265 C 
ATOM     20  O   UNL     1      -1.096   0.573  23.141  0.00  0.00    -0.268 OA
BRANCH  19  21
ATOM     21  C   UNL     1       0.268   0.384  23.518  0.00  0.00    +0.055 A 
ATOM     22  C   UNL     1       0.726   0.955  23.898  0.00  0.00    +0.008 A 
ATOM     23  C   UNL     1       1.531   1.020  23.726  0.00  0.00    +0.037 A 
ATOM     24  C   UNL     1       1.877   0.514  23.176  0.00  0.00    +0.139 A 
ATOM     34  C   UNL     1       1.420  -0.059  22.796  0.00  0.00    +0.037 A 
ATOM     35  C   UNL     1       0.615  -0.124  22.967  0.00  0.00    +0.008 A 
BRANCH  24  25
ATOM     25  O   UNL     1       2.682   0.579  23.005  0.00  0.00    -0.470 OA
BRANCH  25  26
ATOM     26  C   UNL     1       3.161  -0.092  23.014  0.00  0.00    +0.236 C 
BRANCH  26  27
ATOM     27  C   UNL     1       3.977  -0.016  23.109  0.00  0.00    +0.071 A 
ATOM     28  C   UNL     1       4.440   0.612  22.841  0.00  0.00    +0.154 A 
ATOM     29  C   UNL     1       4.168   1.274  22.429  0.00  0.00    +0.075 C 
ATOM     30  O   UNL     1       5.222   0.463  23.055  0.00  0.00    -0.358 OA
ATOM     31  N   UNL     1       5.242  -0.257  23.457  0.00  0.00    -0.082 NA
ATOM     32  C   UNL     1       4.474  -0.553  23.490  0.00  0.00    +0.100 A 
ATOM     33  C   UNL     1       4.241  -1.262  23.842  0.00  0.00    +0.055 C 
ENDBRANCH  26  27
ENDBRANCH  25  26
ENDBRANCH  24  25
ENDBRANCH  19  21
ENDBRANCH  16  18
TORSDOF 8
ENDMDL
MODEL 2
REMARK VINA RESULT:      -6.7      1.610      2.529
REMARK  Name = 
REMARK  8 active torsions:
REMARK  status: ('A' for Active; 'I' for Inactive)
REMARK    1  A    between atoms: O_2  and  C_3
REMARK    2  A    between atoms: C_3  and  C_5
REMARK    3  A    between atoms: C_6  and  N_7
REMARK    4  A    between atoms: C_16  and  N_18
REMARK    5  A    between atoms: C_19  and  C_21
REMARK    6  A    between atoms: C_24  and  O_25
REMARK    7  A    between atoms: O_25  and  C_26
REMARK    8  A    between atoms: C_26  and  C_27
REMARK                            x       y       z     vdW  Elec       q    Type
REMARK                         _______ _______ _______ _____ _____    ______ ____
ROOT
ATOM      7  N   UNL     1      -4.106   2.746  25.212  0.00  0.00    -0.162 NA
ATOM      8  C   UNL     1      -3.361   2.557  24.913  0.00  0.00    +0.328 C 
ATOM      9  O   UNL     1      -3.244   1.841  24.521  0.00  0.00    -0.250 OA
ATOM     10  N   UNL     1      -2.733   3.084  25.004  0.00  0.00    -0.261 N 
ATOM     11  C   UNL     1      -2.910   3.785  25.405  0.00  0.00    +0.095 C 
ATOM     12  C   UNL     1      -2.409   4.415  25.583  0.00  0.00    +0.024 C 
ATOM     13  C   UNL     1      -1.607   4.501  25.406  0.00  0.00    +0.037 C 
ATOM     14  C   UNL     1      -1.110   3.978  25.006  0.00  0.00    +0.174 C 
ATOM     15  O   UNL     1      -0.329   4.227  24.916  0.00  0.00    -0.221 OA
ATOM     16  C   UNL     1      -1.290   3.240  24.685  0.00  0.00    +0.146 C 
ATOM     17  C   UNL     1      -2.013   2.842  24.685  0.00  0.00    +0.119 C 
ENDROOT
BRANCH   7   6
ATOM      5  C   UNL     1      -5.486   2.421  25.392  0.00  0.00    +0.091 A 
ATOM      6  C   UNL     1      -4.734   2.218  25.120  0.00  0.00    +0.081 A 
ATOM     36  C   UNL     1      -4.609   1.488  24.757  0.00  0.00    +0.017 A 
ATOM     37  C   UNL     1      -5.237   0.961  24.665  0.00  0.00    +0.001 A 
ATOM     38  C   UNL     1      -5.989   1.164  24.937  0.00  0.00    +0.000 A 
ATOM     39  C   UNL     1      -6.114   1.894  25.300  0.00  0.00    +0.008 A 
BRANCH   5   3
ATOM      3  C   UNL     1      -5.611   3.151  25.755  0.00  0.00    +0.343 C 
ATOM      4  O   UNL     1      -5.501   3.231  26.570  0.00  0.00    -0.245 OA
BRANCH   3   2
ATOM      1  C   UNL     1      -6.168   4.464  25.675  0.00  0.00    +0.256 C 
ATOM      2  O   UNL     1      -5.845   3.802  25.305  0.00  0.00    -0.441 OA
ENDBRANCH   3   2
ENDBRANCH   5   3
ENDBRANCH   7   6
BRANCH  16  18
ATOM     18  N   UNL     1      -0.665   2.848  24.316  0.00  0.00    -0.199 NA
ATOM     19  C   UNL     1      -0.355   2.160  24.651  0.00  0.00    +0.265 C 
ATOM     20  O   UNL     1      -0.670   1.865  25.354  0.00  0.00    -0.268 OA
BRANCH  19  21
ATOM     21  C   UNL     1       0.270   1.768  24.282  0.00  0.00    +0.055 A 
ATOM     22  C   UNL     1       1.010   2.128  24.230  0.00  0.00    +0.008 A 
ATOM     23  C   UNL     1       1.635   1.735  23.861  0.00  0.00    +0.037 A 
ATOM     24  C   UNL     1       1.520   0.983  23.544  0.00  0.00    +0.139 A 
ATOM     34  C   UNL     1       0.780   0.622  23.596  0.00  0.00    +0.037 A 
ATOM     35  C   UNL     1       0.155   1.014  23.965  0.00  0.00    +0.008 A 
BRANCH  24  25
ATOM     25  O   UNL     1       2.145   0.591  23.175  0.00  0.00    -0.470 OA
BRANCH  25  26
ATOM     26  C   UNL     1       2.848   0.992  23.016  0.00  0.00    +0.236 C 
BRANCH  26  27
ATOM     27  C   UNL     1       3.487   0.589  22.686  0.00  0.00    +0.071 A 
ATOM     28  C   UNL     1       3.481   0.164  21.979  0.00  0.00    +0.154 A 
ATOM     29  C   UNL     1       2.832   0.067  21.478  0.00  0.00    +0.075 C 
ATOM     30  O   UNL     1       4.234  -0.147  21.861  0.00  0.00    -0.358 OA
ATOM     31  N   UNL     1       4.708   0.086  22.495  0.00  0.00    -0.082 NA
ATOM     32  C   UNL     1       4.247   0.540  23.005  0.00  0.00    +0.100 A 
ATOM     33  C   UNL     1       4.499   0.886  23.710  0.00  0.00    +0.055 C 
ENDBRANCH  26  27
ENDBRANCH  25  26
ENDBRANCH  24  25
ENDBRANCH  19  21
ENDBRANCH  16  18
TORSDOF 8
ENDMDL
MODEL 3
REMARK VINA RESULT:      -6.6     17.508     19.362
REMARK  Name = 
REMARK  8 active torsions:
REMARK  status: ('A' for Active; 'I' for Inactive)
REMARK    1  A    between atoms: O_2  and  C_3
REMARK    2  A    between atoms: C_3  and  C_5
REMARK    3  A    between atoms: C_6  and  N_7
REMARK    4  A    between atoms: C_16  and  N_18
REMARK    5  A    between atoms: C_19  and  C_21
REMARK    6  A    between atoms: C_24  and  O_25
REMARK    7  A    between atoms: O_25  and  C_26
REMARK    8  A    between atoms: C_26  and  C_27
REMARK                            x       y       z     vdW  Elec       q    Type
REMARK                         _______ _______ _______ _____ _____    ______ ____
ROOT
ATOM      7  N   UNL     1      17.197  -3.525  24.448  0.00  0.00    -0.162 NA
ATOM      8  C   UNL     1      17.082  -4.086  25.041  0.00  0.00    +0.328 C 
ATOM      9  O   UNL     1      16.910  -3.844  25.811  0.00  0.00    -0.250 OA
ATOM     10  N   UNL     1      17.139  -4.890  24.865  0.00  0.00    -0.261 N 
ATOM     11  C   UNL     1      17.313  -5.073  24.079  0.00  0.00    +0.095 C 
ATOM     12  C   UNL     1      17.405  -5.816  23.732  0.00  0.00    +0.024 C 
ATOM     13  C   UNL     1      17.346  -6.560  24.086  0.00  0.00    +0.037 C 
ATOM     14  C   UNL     1      17.181  -6.743  24.873  0.00  0.00    +0.174 C 
ATOM     15  O   UNL     1      17.160  -7.547  25.055  0.00  0.00    -0.221 OA
ATOM     16  C   UNL     1      17.033  -6.230  25.501  0.00  0.00    +0.146 C 
ATOM     17  C   UNL     1      17.014  -5.405  25.497  0.00  0.00    +0.119 C 
ENDROOT
BRANCH   7   6
ATOM      5  C   UNL     1      16.834  -2.197  24.065  0.00  0.00    +0.091 A 
ATOM      6  C   UNL     1      17.140  -2.721  24.624  0.00  0.00    +0.081 A 
ATOM     36  C   UNL     1      17.389  -2.441  25.359  0.00  0.00    +0.017 A 
ATOM     37  C   UNL     1      17.332  -1.637  25.535  0.00  0.00    +0.001 A 
ATOM     38  C   UNL     1      17.026  -1.113  24.976  0.00  0.00    +0.000 A 
ATOM     39  C   UNL     1      16.777  -1.393  24.241  0.00  0.00    +0.008 A 
BRANCH   5   3
ATOM      3  C   UNL     1      16.585  -2.476  23.330  0.00  0.00    +0.343 C 
ATOM      4  O   UNL     1      17.141  -2.646  22.743  0.00  0.00    -0.245 OA
BRANCH   3   2
ATOM      1  C   UNL     1      15.495  -2.536  22.409  0.00  0.00    +0.256 C 
ATOM      2  O   UNL     1      15.781  -2.586  23.180  0.00  0.00    -0.441 OA
ENDBRANCH   3   2
ENDBRANCH   5   3
ENDBRANCH   7   6
BRANCH  16  18
ATOM     18  N   UNL     1      16.884  -6.588  26.229  0.00  0.00    -0.199 NA
ATOM     19  C   UNL     1      16.116  -6.606  26.530  0.00  0.00    +0.265 C 
ATOM     20  O   UNL     1      15.498  -6.266  26.104  0.00  0.00    -0.268 OA
BRANCH  19  21
ATOM     21  C   UNL     1      15.967  -6.965  27.258  0.00  0.00    +0.055 A 
ATOM     22  C   UNL     1      15.735  -7.756  27.289  0.00  0.00    +0.008 A 
ATOM     23  C   UNL     1      15.587  -8.114  28.017  0.00  0.00    +0.037 A 
ATOM     24  C   UNL     1      15.670  -7.681  28.714  0.00  0.00    +0.139 A 
ATOM     34  C   UNL     1      15.901  -6.890  28.684  0.00  0.00    +0.037 A 
ATOM     35  C   UNL     1      16.050  -6.532  27.956  0.00  0.00    +0.008 A 
BRANCH  24  25
ATOM     25  O   UNL     1      15.521  -8.040  29.442  0.00  0.00    -0.470 OA
BRANCH  25  26
ATOM     26  C   UNL     1      14.768  -8.329  29.614  0.00  0.00    +0.236 C 
BRANCH  26  27
ATOM     27  C   UNL     1      14.582  -8.569  30.381  0.00  0.00    +0.071 A 
ATOM     28  C   UNL     1      14.019  -8.224  30.874  0.00  0.00    +0.154 A 
ATOM     29  C   UNL     1      13.541  -7.577  30.687  0.00  0.00    +0.075 C 
ATOM     30  O   UNL     1      14.016  -8.637  31.588  0.00  0.00    -0.358 OA
ATOM     31  N   UNL     1      14.578  -9.238  31.535  0.00  0.00    -0.082 NA
ATOM     32  C   UNL     1      14.928  -9.196  30.790  0.00  0.00    +0.100 A 
ATOM     33  C   UNL     1      15.520  -9.694  30.503  0.00  0.00    +0.055 C 
ENDBRANCH  26  27
ENDBRANCH  25  26
ENDBRANCH  24  25
ENDBRANCH  19  21
ENDBRANCH  16  18
TORSDOF 8
ENDMDL
MODEL 4
REMARK VINA RESULT:      -6.2      1.260      2.490
REMARK  Name = 
REMARK  8 active torsions:
REMARK  status: ('A' for Active; 'I' for Inactive)
REMARK    1  A    between atoms: O_2  and  C_3
REMARK    2  A    between atoms: C_3  and  C_5
REMARK    3  A    between atoms: C_6  and  N_7
REMARK    4  A    between atoms: C_16  and  N_18
REMARK    5  A    between atoms: C_19  and  C_21
REMARK    6  A    between atoms: C_24  and  O_25
REMARK    7  A    between atoms: O_25  and  C_26
REMARK    8  A    between atoms: C_26  and  C_27
REMARK                            x       y       z     vdW  Elec       q    Type
REMARK                         _______ _______ _______ _____ _____    ______ ____
ROOT
ATOM      7  N   UNL     1      -3.304   0.755  24.361  0.00  0.00    -0.162 NA
ATOM      8  C   UNL     1      -2.485   0.710  24.280  0.00  0.00    +0.328 C 
ATOM      9  O   UNL     1      -2.121  -0.022  24.169  0.00  0.00    -0.250 OA
ATOM     10  N   UNL     1      -2.029   1.396  24.310  0.00  0.00    -0.261 N 
ATOM     11  C   UNL     1      -2.447   2.100  24.423  0.00  0.00    +0.095 C 
ATOM     12  C   UNL     1      -2.155   2.869  24.477  0.00  0.00    +0.024 C 
ATOM     13  C   UNL     1      -1.371   3.126  24.431  0.00  0.00    +0.037 C 
ATOM     14  C   UNL     1      -0.689   2.677  24.320  0.00  0.00    +0.174 C 
ATOM     15  O   UNL     1       0.018   3.101  24.298  0.00  0.00    -0.221 OA
ATOM     16  C   UNL     1      -0.619   1.860  24.227  0.00  0.00    +0.146 C 
ATOM     17  C   UNL     1      -1.215   1.291  24.223  0.00  0.00    +0.119 C 
ENDROOT
BRANCH   7   6
ATOM      5  C   UNL     1      -4.528   0.069  24.634  0.00  0.00    +0.091 A 
ATOM      6  C   UNL     1      -3.761   0.068  24.331  0.00  0.00    +0.081 A 
ATOM     36  C   UNL     1      -3.449  -0.620  23.999  0.00  0.00    +0.017 A 
ATOM     37  C   UNL     1      -3.905  -1.306  23.969  0.00  0.00    +0.001 A 
ATOM     38  C   UNL     1      -4.673  -1.305  24.272  0.00  0.00    +0.000 A 
ATOM     39  C   UNL     1      -4.985  -0.618  24.604  0.00  0.00    +0.008 A 
BRANCH   5   3
ATOM      3  C   UNL     1      -4.840   0.757  24.966  0.00  0.00    +0.343 C 
ATOM      4  O   UNL     1      -4.710   0.925  25.764  0.00  0.00    -0.245 OA
BRANCH   3   2
ATOM      1  C   UNL     1      -5.794   1.815  24.858  0.00  0.00    +0.256 C 
ATOM      2  O   UNL     1      -5.282   1.277  24.501  0.00  0.00    -0.441 OA
ENDBRANCH   3   2
ENDBRANCH   5   3
ENDBRANCH   7   6
BRANCH  16  18
ATOM     18  N   UNL     1       0.149   1.575  24.125  0.00  0.00    -0.199 NA
ATOM     19  C   UNL     1       0.350   1.173  23.434  0.00  0.00    +0.265 C 
ATOM     20  O   UNL     1      -0.214   1.054  22.845  0.00  0.00    -0.268 OA
BRANCH  19  21
ATOM     21  C   UNL     1       1.118   0.888  23.332  0.00  0.00    +0.055 A 
ATOM     22  C   UNL     1       1.764   1.373  23.497  0.00  0.00    +0.008 A 
ATOM     23  C   UNL     1       2.531   1.089  23.396  0.00  0.00    +0.037 A 
ATOM     24  C   UNL     1       2.653   0.318  23.128  0.00  0.00    +0.139 A 
ATOM     34  C   UNL     1       2.008  -0.168  22.962  0.00  0.00    +0.037 A 
ATOM     35  C   UNL     1       1.240   0.116  23.064  0.00  0.00    +0.008 A 
BRANCH  24  25
ATOM     25  O   UNL     1       3.421   0.034  23.026  0.00  0.00    -0.470 OA
BRANCH  25  26
ATOM     26  C   UNL     1       3.929  -0.024  23.673  0.00  0.00    +0.236 C 
BRANCH  26  27
ATOM     27  C   UNL     1       4.701  -0.295  23.569  0.00  0.00    +0.071 A 
ATOM     28  C   UNL     1       4.956  -1.075  23.650  0.00  0.00    +0.154 A 
ATOM     29  C   UNL     1       4.484  -1.721  23.850  0.00  0.00    +0.075 C 
ATOM     30  O   UNL     1       5.766  -1.096  23.497  0.00  0.00    -0.358 OA
ATOM     31  N   UNL     1       6.012  -0.329  23.321  0.00  0.00    -0.082 NA
ATOM     32  C   UNL     1       5.354   0.166  23.366  0.00  0.00    +0.100 A 
ATOM     33  C   UNL     1       5.349   0.981  23.230  0.00  0.00    +0.055 C 
ENDBRANCH  26  27
ENDBRANCH  25  26
ENDBRANCH  24  25
ENDBRANCH  19  21
ENDBRANCH  16  18
TORSDOF 8
ENDMDL
