REMARK  Name = 
REMARK  6 active torsions:
REMARK  status: ('A' for Active; 'I' for Inactive)
REMARK    1  A    between atoms: C_2  and  C_4
REMARK    2  A    between atoms: C_6  and  C_7
REMARK    3  A    between atoms: C_7  and  C_8
REMARK    4  A    between atoms: C_22  and  C_23
REMARK    5  A    between atoms: C_23  and  N_24
REMARK    6  A    between atoms: C_25  and  C_27
REMARK                            x       y       z     vdW  Elec       q    Type
REMARK                         _______ _______ _______ _____ _____    ______ ____
ROOT
ATOM      4  C   UNL     1      -4.180  -4.187   0.000  0.00  0.00    +0.006 C 
ATOM      5  C   UNL     1      -4.895  -3.774   0.000  0.00  0.00    +0.005 C 
ATOM      6  C   UNL     1      -4.895  -2.949   0.000  0.00  0.00    +0.027 C 
ATOM     19  C   UNL     1      -4.180  -2.537   0.000  0.00  0.00    -0.048 C 
ATOM     20  C   UNL     1      -4.180  -1.712   0.000  0.00  0.00    +0.026 C 
ATOM     21  C   UNL     1      -3.466  -2.949   0.000  0.00  0.00    -0.033 C 
ATOM     22  C   UNL     1      -3.466  -3.774   0.000  0.00  0.00    +0.043 C 
ENDROOT
BRANCH   4   2
ATOM      1  C   UNL     1      -3.466  -5.424   0.000  0.00  0.00    +0.000 C 
ATOM      2  C   UNL     1      -4.180  -5.012   0.000  0.00  0.00    +0.000 C 
ATOM      3  C   UNL     1      -4.895  -5.424   0.000  0.00  0.00    +0.000 C 
ENDBRANCH   4   2
BRANCH   6   7
ATOM      7  C   UNL     1      -5.609  -2.537   0.000  0.00  0.00    +0.089 C 
BRANCH   7   8
ATOM      8  C   UNL     1      -5.609  -1.712   0.000  0.00  0.00    +0.226 C 
ATOM      9  O   UNL     1      -4.895  -1.299   0.000  0.00  0.00    -0.275 OA
ATOM     10  N   UNL     1      -6.324  -1.299   0.000  0.00  0.00    -0.276 N 
ATOM     11  C   UNL     1      -7.038  -1.712   0.000  0.00  0.00    +0.115 C 
ATOM     12  C   UNL     1      -7.753  -1.299   0.000  0.00  0.00    +0.115 C 
ATOM     13  N   UNL     1      -7.753  -0.474   0.000  0.00  0.00    -0.276 N 
ATOM     14  C   UNL     1      -7.038  -0.062   0.000  0.00  0.00    +0.115 C 
ATOM     15  C   UNL     1      -6.324  -0.474   0.000  0.00  0.00    +0.115 C 
ATOM     16  C   UNL     1      -8.467  -0.062   0.000  0.00  0.00    +0.226 C 
ATOM     17  C   UNL     1      -8.467   0.763   0.000  0.00  0.00    +0.095 C 
ATOM     18  O   UNL     1      -9.181  -0.474   0.000  0.00  0.00    -0.275 OA
ENDBRANCH   7   8
ENDBRANCH   6   7
BRANCH  22  23
ATOM     23  C   UNL     1      -2.751  -4.187   0.000  0.00  0.00    +0.120 C 
BRANCH  23  24
ATOM     24  N   UNL     1      -2.751  -5.012   0.000  0.00  0.00    -0.199 NA
ATOM     25  C   UNL     1      -2.037  -5.424   0.000  0.00  0.00    +0.299 C 
ATOM     26  O   UNL     1      -1.322  -5.012   0.000  0.00  0.00    -0.265 OA
BRANCH  25  27
ATOM     27  C   UNL     1      -2.037  -6.249   0.000  0.00  0.00    +0.200 A 
ATOM     28  C   UNL     1      -1.369  -6.734   0.000  0.00  0.00    +0.046 A 
ATOM     29  C   UNL     1      -1.624  -7.519   0.000  0.00  0.00    +0.044 A 
ATOM     30  C   UNL     1      -2.449  -7.519   0.000  0.00  0.00    +0.180 A 
ATOM     31  O   UNL     1      -2.704  -6.734   0.000  0.00  0.00    -0.446 OA
ENDBRANCH  25  27
ENDBRANCH  23  24
ENDBRANCH  22  23
TORSDOF 6
