MODEL 1
REMARK VINA RESULT:      -9.0      0.000      0.000
REMARK  Name = 
REMARK  4 active torsions:
REMARK  status: ('A' for Active; 'I' for Inactive)
REMARK    1  A    between atoms: N_2  and  C_4
REMARK    2  A    between atoms: C_7  and  C_8
REMARK    3  A    between atoms: C_8  and  N_9
REMARK    4  A    between atoms: C_10  and  C_12
REMARK                            x       y       z     vdW  Elec       q    Type
REMARK                         _______ _______ _______ _____ _____    ______ ____
ROOT
ATOM      8  C   UNL     1      -2.830   0.839  24.839  0.00  0.00    +0.148 C 
ENDROOT
BRANCH   8   7
ATOM      4  C   UNL     1      -1.109   2.101  24.858  0.00  0.00    +0.121 C 
ATOM      5  C   UNL     1      -0.805   1.422  24.499  0.00  0.00    +0.161 C 
ATOM      6  O   UNL     1      -1.413   0.867  24.449  0.00  0.00    -0.350 OA
ATOM      7  C   UNL     1      -2.092   1.203  24.776  0.00  0.00    +0.168 C 
ATOM     18  C   UNL     1      -1.904   1.965  25.028  0.00  0.00    +0.198 C 
ATOM     19  O   UNL     1      -2.421   2.498  25.388  0.00  0.00    -0.219 OA
BRANCH   4   2
ATOM      1  C   UNL     1      -0.675   3.404  24.462  0.00  0.00    +0.090 C 
ATOM      2  N   UNL     1      -0.690   2.793  25.017  0.00  0.00    -0.267 NA
ATOM      3  C   UNL     1      -0.285   2.876  25.731  0.00  0.00    +0.090 C 
ENDBRANCH   4   2
ENDBRANCH   8   7
BRANCH   8   9
ATOM      9  N   UNL     1      -2.907   0.032  24.681  0.00  0.00    -0.199 NA
ATOM     10  C   UNL     1      -3.633  -0.343  24.796  0.00  0.00    +0.265 C 
ATOM     11  O   UNL     1      -4.282   0.089  25.068  0.00  0.00    -0.268 OA
BRANCH  10  12
ATOM     12  C   UNL     1      -3.711  -1.149  24.639  0.00  0.00    +0.055 A 
ATOM     13  C   UNL     1      -3.398  -1.703  25.163  0.00  0.00    +0.005 A 
ATOM     14  C   UNL     1      -3.475  -2.509  25.006  0.00  0.00    +0.000 A 
ATOM     15  C   UNL     1      -3.866  -2.761  24.324  0.00  0.00    +0.000 A 
ATOM     16  C   UNL     1      -4.179  -2.206  23.800  0.00  0.00    +0.000 A 
ATOM     17  C   UNL     1      -4.101  -1.401  23.957  0.00  0.00    +0.005 A 
ENDBRANCH  10  12
ENDBRANCH   8   9
TORSDOF 4
ENDMDL
MODEL 2
REMARK VINA RESULT:      -9.0      0.979      1.149
REMARK  Name = 
REMARK  4 active torsions:
REMARK  status: ('A' for Active; 'I' for Inactive)
REMARK    1  A    between atoms: N_2  and  C_4
REMARK    2  A    between atoms: C_7  and  C_8
REMARK    3  A    between atoms: C_8  and  N_9
REMARK    4  A    between atoms: C_10  and  C_12
REMARK                            x       y       z     vdW  Elec       q    Type
REMARK                         _______ _______ _______ _____ _____    ______ ____
ROOT
ATOM      8  C   UNL     1      -3.691   1.137  24.643  0.00  0.00    +0.148 C 
ENDROOT
BRANCH   8   7
ATOM      4  C   UNL     1      -2.356   2.784  24.883  0.00  0.00    +0.121 C 
ATOM      5  C   UNL     1      -1.900   2.276  24.418  0.00  0.00    +0.161 C 
ATOM      6  O   UNL     1      -2.345   1.598  24.272  0.00  0.00    -0.350 OA
ATOM      7  C   UNL     1      -3.075   1.686  24.646  0.00  0.00    +0.168 C 
ATOM     18  C   UNL     1      -3.082   2.419  25.023  0.00  0.00    +0.198 C 
ATOM     19  O   UNL     1      -3.705   2.732  25.464  0.00  0.00    -0.219 OA
BRANCH   4   2
ATOM      1  C   UNL     1      -1.619   3.587  25.809  0.00  0.00    +0.090 C 
ATOM      2  N   UNL     1      -2.125   3.527  25.159  0.00  0.00    -0.267 NA
ATOM      3  C   UNL     1      -2.398   4.209  24.785  0.00  0.00    +0.090 C 
ENDBRANCH   4   2
ENDBRANCH   8   7
BRANCH   8   9
ATOM      9  N   UNL     1      -3.523   0.329  24.602  0.00  0.00    -0.199 NA
ATOM     10  C   UNL     1      -4.138  -0.221  24.630  0.00  0.00    +0.265 C 
ATOM     11  O   UNL     1      -4.919   0.036  24.699  0.00  0.00    -0.268 OA
BRANCH  10  12
ATOM     12  C   UNL     1      -3.971  -1.028  24.589  0.00  0.00    +0.055 A 
ATOM     13  C   UNL     1      -3.582  -1.401  25.213  0.00  0.00    +0.005 A 
ATOM     14  C   UNL     1      -3.415  -2.207  25.173  0.00  0.00    +0.000 A 
ATOM     15  C   UNL     1      -3.637  -2.641  24.506  0.00  0.00    +0.000 A 
ATOM     16  C   UNL     1      -4.026  -2.268  23.882  0.00  0.00    +0.000 A 
ATOM     17  C   UNL     1      -4.193  -1.462  23.923  0.00  0.00    +0.005 A 
ENDBRANCH  10  12
ENDBRANCH   8   9
TORSDOF 4
ENDMDL
MODEL 3
REMARK VINA RESULT:      -9.0      2.294      2.777
REMARK  Name = 
REMARK  4 active torsions:
REMARK  status: ('A' for Active; 'I' for Inactive)
REMARK    1  A    between atoms: N_2  and  C_4
REMARK    2  A    between atoms: C_7  and  C_8
REMARK    3  A    between atoms: C_8  and  N_9
REMARK    4  A    between atoms: C_10  and  C_12
REMARK                            x       y       z     vdW  Elec       q    Type
REMARK                         _______ _______ _______ _____ _____    ______ ____
ROOT
ATOM      8  C   UNL     1      -4.142   0.983  24.333  0.00  0.00    +0.148 C 
ENDROOT
BRANCH   8   7
ATOM      4  C   UNL     1      -4.918   2.654  25.411  0.00  0.00    +0.121 C 
ATOM      5  C   UNL     1      -5.412   2.049  25.677  0.00  0.00    +0.161 C 
ATOM      6  O   UNL     1      -5.182   1.350  25.306  0.00  0.00    -0.350 OA
ATOM      7  C   UNL     1      -4.545   1.522  24.810  0.00  0.00    +0.168 C 
ATOM     18  C   UNL     1      -4.382   2.328  24.875  0.00  0.00    +0.198 C 
ATOM     19  O   UNL     1      -3.788   2.737  24.474  0.00  0.00    -0.219 OA
BRANCH   4   2
ATOM      1  C   UNL     1      -5.625   3.895  25.472  0.00  0.00    +0.090 C 
ATOM      2  N   UNL     1      -4.953   3.445  25.641  0.00  0.00    -0.267 NA
ATOM      3  C   UNL     1      -4.318   3.789  26.039  0.00  0.00    +0.090 C 
ENDBRANCH   4   2
ENDBRANCH   8   7
BRANCH   8   9
ATOM      9  N   UNL     1      -4.129   0.183  24.535  0.00  0.00    -0.199 NA
ATOM     10  C   UNL     1      -3.734  -0.358  24.053  0.00  0.00    +0.265 C 
ATOM     11  O   UNL     1      -3.351  -0.099  23.369  0.00  0.00    -0.268 OA
BRANCH  10  12
ATOM     12  C   UNL     1      -3.721  -1.157  24.255  0.00  0.00    +0.055 A 
ATOM     13  C   UNL     1      -4.190  -1.695  23.842  0.00  0.00    +0.005 A 
ATOM     14  C   UNL     1      -4.177  -2.495  24.044  0.00  0.00    +0.000 A 
ATOM     15  C   UNL     1      -3.694  -2.757  24.660  0.00  0.00    +0.000 A 
ATOM     16  C   UNL     1      -3.224  -2.219  25.073  0.00  0.00    +0.000 A 
ATOM     17  C   UNL     1      -3.237  -1.420  24.871  0.00  0.00    +0.005 A 
ENDBRANCH  10  12
ENDBRANCH   8   9
TORSDOF 4
ENDMDL
MODEL 4
REMARK VINA RESULT:      -8.6      2.369      4.463
REMARK  Name = 
REMARK  4 active torsions:
REMARK  status: ('A' for Active; 'I' for Inactive)
REMARK    1  A    between atoms: N_2  and  C_4
REMARK    2  A    between atoms: C_7  and  C_8
REMARK    3  A    between atoms: C_8  and  N_9
REMARK    4  A    between atoms: C_10  and  C_12
REMARK                            x       y       z     vdW  Elec       q    Type
REMARK                         _______ _______ _______ _____ _____    ______ ____
ROOT
ATOM      8  C   UNL     1      -4.582   0.200  24.807  0.00  0.00    +0.148 C 
ENDROOT
BRANCH   8   7
ATOM      4  C   UNL     1      -3.384  -1.561  24.944  0.00  0.00    +0.121 C 
ATOM      5  C   UNL     1      -3.235  -1.209  25.676  0.00  0.00    +0.161 C 
ATOM      6  O   UNL     1      -3.665  -0.507  25.713  0.00  0.00    -0.350 OA
ATOM      7  C   UNL     1      -4.081  -0.425  25.005  0.00  0.00    +0.168 C 
ATOM     18  C   UNL     1      -3.907  -1.076  24.530  0.00  0.00    +0.198 C 
ATOM     19  O   UNL     1      -4.204  -1.218  23.773  0.00  0.00    -0.219 OA
BRANCH   4   2
ATOM      1  C   UNL     1      -3.541  -2.947  24.632  0.00  0.00    +0.090 C 
ATOM      2  N   UNL     1      -3.067  -2.273  24.675  0.00  0.00    -0.267 NA
ATOM      3  C   UNL     1      -2.274  -2.313  24.449  0.00  0.00    +0.090 C 
ENDBRANCH   4   2
ENDBRANCH   8   7
BRANCH   8   9
ATOM      9  N   UNL     1      -4.308   0.978  24.850  0.00  0.00    -0.199 NA
ATOM     10  C   UNL     1      -4.836   1.606  24.763  0.00  0.00    +0.265 C 
ATOM     11  O   UNL     1      -5.638   1.457  24.633  0.00  0.00    -0.268 OA
BRANCH  10  12
ATOM     12  C   UNL     1      -4.564   2.383  24.806  0.00  0.00    +0.055 A 
ATOM     13  C   UNL     1      -4.736   2.845  25.467  0.00  0.00    +0.005 A 
ATOM     14  C   UNL     1      -4.464   3.622  25.510  0.00  0.00    +0.000 A 
ATOM     15  C   UNL     1      -4.017   3.938  24.891  0.00  0.00    +0.000 A 
ATOM     16  C   UNL     1      -3.845   3.476  24.231  0.00  0.00    +0.000 A 
ATOM     17  C   UNL     1      -4.117   2.699  24.188  0.00  0.00    +0.005 A 
ENDBRANCH  10  12
ENDBRANCH   8   9
TORSDOF 4
ENDMDL
MODEL 5
REMARK VINA RESULT:      -8.5      1.436      4.777
REMARK  Name = 
REMARK  4 active torsions:
REMARK  status: ('A' for Active; 'I' for Inactive)
REMARK    1  A    between atoms: N_2  and  C_4
REMARK    2  A    between atoms: C_7  and  C_8
REMARK    3  A    between atoms: C_8  and  N_9
REMARK    4  A    between atoms: C_10  and  C_12
REMARK                            x       y       z     vdW  Elec       q    Type
REMARK                         _______ _______ _______ _____ _____    ______ ____
ROOT
ATOM      8  C   UNL     1      -1.251   1.207  25.441  0.00  0.00    +0.148 C 
ENDROOT
BRANCH   8   7
ATOM      4  C   UNL     1      -2.263  -0.592  24.897  0.00  0.00    +0.121 C 
ATOM      5  C   UNL     1      -2.530  -0.075  24.311  0.00  0.00    +0.161 C 
ATOM      6  O   UNL     1      -2.184   0.661  24.444  0.00  0.00    -0.350 OA
ATOM      7  C   UNL     1      -1.703   0.600  25.111  0.00  0.00    +0.168 C 
ATOM     18  C   UNL     1      -1.752  -0.174  25.391  0.00  0.00    +0.198 C 
ATOM     19  O   UNL     1      -1.358  -0.478  26.050  0.00  0.00    -0.219 OA
BRANCH   4   2
ATOM      1  C   UNL     1      -3.153  -1.597  25.388  0.00  0.00    +0.090 C 
ATOM      2  N   UNL     1      -2.471  -1.387  24.974  0.00  0.00    -0.267 NA
ATOM      3  C   UNL     1      -1.997  -1.972  24.637  0.00  0.00    +0.090 C 
ENDBRANCH   4   2
ENDBRANCH   8   7
BRANCH   8   9
ATOM      9  N   UNL     1      -1.452   1.995  25.296  0.00  0.00    -0.199 NA
ATOM     10  C   UNL     1      -1.015   2.602  25.645  0.00  0.00    +0.265 C 
ATOM     11  O   UNL     1      -0.378   2.421  26.138  0.00  0.00    -0.268 OA
BRANCH  10  12
ATOM     12  C   UNL     1      -1.215   3.389  25.500  0.00  0.00    +0.055 A 
ATOM     13  C   UNL     1      -1.929   3.691  25.779  0.00  0.00    +0.005 A 
ATOM     14  C   UNL     1      -2.129   4.478  25.635  0.00  0.00    +0.000 A 
ATOM     15  C   UNL     1      -1.613   4.964  25.211  0.00  0.00    +0.000 A 
ATOM     16  C   UNL     1      -0.899   4.661  24.932  0.00  0.00    +0.000 A 
ATOM     17  C   UNL     1      -0.699   3.874  25.076  0.00  0.00    +0.005 A 
ENDBRANCH  10  12
ENDBRANCH   8   9
TORSDOF 4
ENDMDL
