REMARK  Name = 
REMARK  4 active torsions:
REMARK  status: ('A' for Active; 'I' for Inactive)
REMARK    1  A    between atoms: C_4  and  C_15
REMARK    2  A    between atoms: N_5  and  C_6
REMARK    3  A    between atoms: C_6  and  C_7
REMARK    4  A    between atoms: C_17  and  C_20
REMARK                            x       y       z     vdW  Elec       q    Type
REMARK                         _______ _______ _______ _____ _____    ______ ____
ROOT
ATOM      1  O   UNL     1       2.726  -1.174   0.000  0.00  0.00    -0.222 OA
ATOM      2  C   UNL     1       1.941  -1.429   0.000  0.00  0.00    +0.170 C 
ATOM      3  C   UNL     1       1.687  -2.213   0.000  0.00  0.00    +0.060 C 
ATOM      4  C   UNL     1       0.862  -2.213   0.000  0.00  0.00    +0.140 C 
ATOM      5  N   UNL     1       0.607  -1.429   0.000  0.00  0.00    -0.260 NA
ATOM     14  C   UNL     1       1.274  -0.944   0.000  0.00  0.00    +0.106 C 
ENDROOT
BRANCH   4  15
ATOM     15  C   UNL     1       0.377  -2.881   0.000  0.00  0.00    +0.251 A 
ATOM     16  N   UNL     1       0.631  -3.665   0.000  0.00  0.00    -0.194 NA
ATOM     17  C   UNL     1      -0.036  -4.150   0.000  0.00  0.00    +0.180 A 
ATOM     18  N   UNL     1      -0.703  -3.665   0.000  0.00  0.00    -0.061 NA
ATOM     19  O   UNL     1      -0.448  -2.881   0.000  0.00  0.00    -0.336 OA
BRANCH  17  20
ATOM     20  C   UNL     1      -0.036  -4.975   0.000  0.00  0.00    +0.062 C 
ATOM     21  C   UNL     1       0.377  -5.690   0.000  0.00  0.00    +0.008 C 
ATOM     22  C   UNL     1      -0.448  -5.690   0.000  0.00  0.00    +0.008 C 
ENDBRANCH  17  20
ENDBRANCH   4  15
BRANCH   5   6
ATOM      6  C   UNL     1      -0.178  -1.174   0.000  0.00  0.00    +0.100 C 
BRANCH   6   7
ATOM      7  C   UNL     1      -0.350  -0.367   0.000  0.00  0.00    -0.006 A 
ATOM      8  C   UNL     1      -1.134  -0.112   0.000  0.00  0.00    -0.002 A 
ATOM      9  C   UNL     1      -1.306   0.695   0.000  0.00  0.00    +0.011 A 
ATOM     10  C   UNL     1      -0.693   1.247   0.000  0.00  0.00    +0.058 A 
ATOM     11 CL   UNL     1      -0.864   2.054   0.000  0.00  0.00    -0.082 Cl
ATOM     12  C   UNL     1       0.092   0.992   0.000  0.00  0.00    +0.011 A 
ATOM     13  C   UNL     1       0.264   0.185   0.000  0.00  0.00    -0.002 A 
ENDBRANCH   6   7
ENDBRANCH   5   6
TORSDOF 4
