MODEL 1
REMARK VINA RESULT:      -9.8      0.000      0.000
REMARK  Name = 
REMARK  3 active torsions:
REMARK  status: ('A' for Active; 'I' for Inactive)
REMARK    1  A    between atoms: O_2  and  C_3
REMARK    2  A    between atoms: C_3  and  C_4
REMARK    3  A    between atoms: C_9  and  C_11
REMARK                            x       y       z     vdW  Elec       q    Type
REMARK                         _______ _______ _______ _____ _____    ______ ____
ROOT
ATOM      4  C   UNL     1      -1.742   3.170  25.179  0.00  0.00    +0.256 C 
ATOM      5  O   UNL     1      -1.036   2.910  25.518  0.00  0.00    -0.272 OA
ATOM      6  N   UNL     1      -2.318   2.623  24.955  0.00  0.00    -0.277 N 
ATOM      7  C   UNL     1      -3.047   2.800  24.612  0.00  0.00    +0.094 C 
ATOM      8  C   UNL     1      -3.445   2.089  24.480  0.00  0.00    +0.031 C 
ATOM      9  C   UNL     1      -2.962   1.474  24.742  0.00  0.00    +0.080 C 
ATOM     10  C   UNL     1      -2.266   1.804  25.036  0.00  0.00    +0.101 C 
ENDROOT
BRANCH   9  11
ATOM     11  C   UNL     1      -3.144   0.669  24.714  0.00  0.00    +0.140 A 
ATOM     12  N   UNL     1      -3.541   0.282  24.104  0.00  0.00    -0.229 NA
ATOM     13  C   UNL     1      -3.603  -0.515  24.305  0.00  0.00    +0.100 A 
ATOM     14  C   UNL     1      -3.245  -0.621  25.041  0.00  0.00    +0.100 A 
ATOM     15  N   UNL     1      -2.961   0.111  25.294  0.00  0.00    -0.229 NA
ATOM     16  C   UNL     1      -3.223  -1.371  25.384  0.00  0.00    +0.020 A 
ATOM     17  C   UNL     1      -3.560  -2.014  24.993  0.00  0.00    -0.003 A 
ATOM     18  C   UNL     1      -3.919  -1.908  24.258  0.00  0.00    -0.020 A 
ATOM     19  C   UNL     1      -4.256  -2.550  23.867  0.00  0.00    +0.031 C 
ATOM     20  C   UNL     1      -3.941  -1.158  23.914  0.00  0.00    +0.016 A 
ENDBRANCH   9  11
BRANCH   4   3
ATOM      3  C   UNL     1      -1.872   3.976  25.065  0.00  0.00    +0.227 C 
BRANCH   3   2
ATOM      1  C   UNL     1      -1.378   5.317  25.091  0.00  0.00    +0.175 C 
ATOM      2  O   UNL     1      -1.306   4.524  25.309  0.00  0.00    -0.342 OA
ENDBRANCH   3   2
ENDBRANCH   4   3
TORSDOF 3
ENDMDL
MODEL 2
REMARK VINA RESULT:      -9.8      2.271      2.442
REMARK  Name = 
REMARK  3 active torsions:
REMARK  status: ('A' for Active; 'I' for Inactive)
REMARK    1  A    between atoms: O_2  and  C_3
REMARK    2  A    between atoms: C_3  and  C_4
REMARK    3  A    between atoms: C_9  and  C_11
REMARK                            x       y       z     vdW  Elec       q    Type
REMARK                         _______ _______ _______ _____ _____    ______ ____
ROOT
ATOM      4  C   UNL     1      -5.420   2.657  25.603  0.00  0.00    +0.256 C 
ATOM      5  O   UNL     1      -5.938   2.415  26.199  0.00  0.00    -0.272 OA
ATOM      6  N   UNL     1      -4.947   2.103  25.217  0.00  0.00    -0.277 N 
ATOM      7  C   UNL     1      -4.407   2.262  24.615  0.00  0.00    +0.094 C 
ATOM      8  C   UNL     1      -4.057   1.549  24.391  0.00  0.00    +0.031 C 
ATOM      9  C   UNL     1      -4.382   0.949  24.855  0.00  0.00    +0.080 C 
ATOM     10  C   UNL     1      -4.932   1.291  25.366  0.00  0.00    +0.101 C 
ENDROOT
BRANCH   9  11
ATOM     11  C   UNL     1      -4.190   0.147  24.816  0.00  0.00    +0.140 A 
ATOM     12  N   UNL     1      -4.367  -0.364  24.193  0.00  0.00    -0.229 NA
ATOM     13  C   UNL     1      -4.074  -1.110  24.385  0.00  0.00    +0.100 A 
ATOM     14  C   UNL     1      -3.715  -1.061  25.126  0.00  0.00    +0.100 A 
ATOM     15  N   UNL     1      -3.787  -0.284  25.393  0.00  0.00    -0.229 NA
ATOM     16  C   UNL     1      -3.370  -1.731  25.462  0.00  0.00    +0.020 A 
ATOM     17  C   UNL     1      -3.383  -2.449  25.057  0.00  0.00    -0.003 A 
ATOM     18  C   UNL     1      -3.742  -2.498  24.316  0.00  0.00    -0.020 A 
ATOM     19  C   UNL     1      -3.755  -3.216  23.911  0.00  0.00    +0.031 C 
ATOM     20  C   UNL     1      -4.087  -1.829  23.979  0.00  0.00    +0.016 A 
ENDBRANCH   9  11
BRANCH   4   3
ATOM      3  C   UNL     1      -5.376   3.454  25.395  0.00  0.00    +0.227 C 
BRANCH   3   2
ATOM      1  C   UNL     1      -5.851   4.795  25.525  0.00  0.00    +0.175 C 
ATOM      2  O   UNL     1      -5.874   4.003  25.756  0.00  0.00    -0.342 OA
ENDBRANCH   3   2
ENDBRANCH   4   3
TORSDOF 3
ENDMDL
MODEL 3
REMARK VINA RESULT:      -9.4      1.734      4.902
REMARK  Name = 
REMARK  3 active torsions:
REMARK  status: ('A' for Active; 'I' for Inactive)
REMARK    1  A    between atoms: O_2  and  C_3
REMARK    2  A    between atoms: C_3  and  C_4
REMARK    3  A    between atoms: C_9  and  C_11
REMARK                            x       y       z     vdW  Elec       q    Type
REMARK                         _______ _______ _______ _____ _____    ______ ____
ROOT
ATOM      4  C   UNL     1      -3.230  -0.830  24.949  0.00  0.00    +0.256 C 
ATOM      5  O   UNL     1      -2.841  -1.030  25.649  0.00  0.00    -0.272 OA
ATOM      6  N   UNL     1      -3.224  -0.049  24.681  0.00  0.00    -0.277 N 
ATOM      7  C   UNL     1      -3.586   0.231  23.995  0.00  0.00    +0.094 C 
ATOM      8  C   UNL     1      -3.440   1.042  23.944  0.00  0.00    +0.031 C 
ATOM      9  C   UNL     1      -2.988   1.262  24.598  0.00  0.00    +0.080 C 
ATOM     10  C   UNL     1      -2.854   0.588  25.054  0.00  0.00    +0.101 C 
ENDROOT
BRANCH   9  11
ATOM     11  C   UNL     1      -2.717   2.023  24.767  0.00  0.00    +0.140 A 
ATOM     12  N   UNL     1      -2.000   2.348  24.521  0.00  0.00    -0.229 NA
ATOM     13  C   UNL     1      -1.957   3.118  24.813  0.00  0.00    +0.100 A 
ATOM     14  C   UNL     1      -2.647   3.269  25.240  0.00  0.00    +0.100 A 
ATOM     15  N   UNL     1      -3.117   2.593  25.211  0.00  0.00    -0.229 NA
ATOM     16  C   UNL     1      -2.757   4.004  25.598  0.00  0.00    +0.020 A 
ATOM     17  C   UNL     1      -2.178   4.587  25.532  0.00  0.00    -0.003 A 
ATOM     18  C   UNL     1      -1.488   4.436  25.105  0.00  0.00    -0.020 A 
ATOM     19  C   UNL     1      -0.908   5.019  25.038  0.00  0.00    +0.031 C 
ATOM     20  C   UNL     1      -1.377   3.702  24.746  0.00  0.00    +0.016 A 
ENDBRANCH   9  11
BRANCH   4   3
ATOM      3  C   UNL     1      -3.624  -1.411  24.516  0.00  0.00    +0.227 C 
BRANCH   3   2
ATOM      1  C   UNL     1      -3.861  -2.793  24.242  0.00  0.00    +0.175 C 
ATOM      2  O   UNL     1      -3.558  -2.204  24.734  0.00  0.00    -0.342 OA
ENDBRANCH   3   2
ENDBRANCH   4   3
TORSDOF 3
ENDMDL
MODEL 4
REMARK VINA RESULT:      -8.9      1.416      1.596
REMARK  Name = 
REMARK  3 active torsions:
REMARK  status: ('A' for Active; 'I' for Inactive)
REMARK    1  A    between atoms: O_2  and  C_3
REMARK    2  A    between atoms: C_3  and  C_4
REMARK    3  A    between atoms: C_9  and  C_11
REMARK                            x       y       z     vdW  Elec       q    Type
REMARK                         _______ _______ _______ _____ _____    ______ ____
ROOT
ATOM      4  C   UNL     1      -3.625   2.804  24.422  0.00  0.00    +0.256 C 
ATOM      5  O   UNL     1      -2.850   2.845  24.140  0.00  0.00    -0.272 OA
ATOM      6  N   UNL     1      -3.967   2.072  24.585  0.00  0.00    -0.277 N 
ATOM      7  C   UNL     1      -4.732   1.945  24.868  0.00  0.00    +0.094 C 
ATOM      8  C   UNL     1      -4.842   1.132  24.952  0.00  0.00    +0.031 C 
ATOM      9  C   UNL     1      -4.144   0.755  24.720  0.00  0.00    +0.080 C 
ATOM     10  C   UNL     1      -3.604   1.336  24.494  0.00  0.00    +0.101 C 
ENDROOT
BRANCH   9  11
ATOM     11  C   UNL     1      -4.011  -0.059  24.717  0.00  0.00    +0.140 A 
ATOM     12  N   UNL     1      -4.204  -0.579  24.106  0.00  0.00    -0.229 NA
ATOM     13  C   UNL     1      -3.974  -1.337  24.335  0.00  0.00    +0.100 A 
ATOM     14  C   UNL     1      -3.639  -1.286  25.087  0.00  0.00    +0.100 A 
ATOM     15  N   UNL     1      -3.662  -0.496  25.323  0.00  0.00    -0.229 NA
ATOM     16  C   UNL     1      -3.356  -1.966  25.459  0.00  0.00    +0.020 A 
ATOM     17  C   UNL     1      -3.409  -2.696  25.080  0.00  0.00    -0.003 A 
ATOM     18  C   UNL     1      -3.744  -2.747  24.328  0.00  0.00    -0.020 A 
ATOM     19  C   UNL     1      -3.797  -3.477  23.948  0.00  0.00    +0.031 C 
ATOM     20  C   UNL     1      -4.027  -2.068  23.955  0.00  0.00    +0.016 A 
ENDBRANCH   9  11
BRANCH   4   3
ATOM      3  C   UNL     1      -4.057   3.497  24.540  0.00  0.00    +0.227 C 
BRANCH   3   2
ATOM      1  C   UNL     1      -4.071   4.904  24.788  0.00  0.00    +0.175 C 
ATOM      2  O   UNL     1      -3.676   4.228  24.526  0.00  0.00    -0.342 OA
ENDBRANCH   3   2
ENDBRANCH   4   3
TORSDOF 3
ENDMDL
MODEL 5
REMARK VINA RESULT:      -8.8      2.611      3.590
REMARK  Name = 
REMARK  3 active torsions:
REMARK  status: ('A' for Active; 'I' for Inactive)
REMARK    1  A    between atoms: O_2  and  C_3
REMARK    2  A    between atoms: C_3  and  C_4
REMARK    3  A    between atoms: C_9  and  C_11
REMARK                            x       y       z     vdW  Elec       q    Type
REMARK                         _______ _______ _______ _____ _____    ______ ____
ROOT
ATOM      4  C   UNL     1      -0.598   0.415  24.034  0.00  0.00    +0.256 C 
ATOM      5  O   UNL     1      -0.615  -0.156  24.630  0.00  0.00    -0.272 OA
ATOM      6  N   UNL     1      -1.227   0.941  23.949  0.00  0.00    -0.277 N 
ATOM      7  C   UNL     1      -1.287   1.538  23.382  0.00  0.00    +0.094 C 
ATOM      8  C   UNL     1      -2.005   1.929  23.498  0.00  0.00    +0.031 C 
ATOM      9  C   UNL     1      -2.388   1.573  24.137  0.00  0.00    +0.080 C 
ATOM     10  C   UNL     1      -1.908   0.963  24.415  0.00  0.00    +0.101 C 
ENDROOT
BRANCH   9  11
ATOM     11  C   UNL     1      -3.123   1.790  24.443  0.00  0.00    +0.140 A 
ATOM     12  N   UNL     1      -3.803   1.324  24.448  0.00  0.00    -0.229 NA
ATOM     13  C   UNL     1      -4.406   1.757  24.806  0.00  0.00    +0.100 A 
ATOM     14  C   UNL     1      -4.099   2.492  25.023  0.00  0.00    +0.100 A 
ATOM     15  N   UNL     1      -3.306   2.512  24.799  0.00  0.00    -0.229 NA
ATOM     16  C   UNL     1      -4.582   3.046  25.397  0.00  0.00    +0.020 A 
ATOM     17  C   UNL     1      -5.372   2.867  25.553  0.00  0.00    -0.003 A 
ATOM     18  C   UNL     1      -5.679   2.133  25.336  0.00  0.00    -0.020 A 
ATOM     19  C   UNL     1      -6.469   1.953  25.493  0.00  0.00    +0.031 C 
ATOM     20  C   UNL     1      -5.197   1.578  24.963  0.00  0.00    +0.016 A 
ENDBRANCH   9  11
BRANCH   4   3
ATOM      3  C   UNL     1       0.049   0.459  23.524  0.00  0.00    +0.227 C 
BRANCH   3   2
ATOM      1  C   UNL     1       1.211  -0.137  22.945  0.00  0.00    +0.175 C 
ATOM      2  O   UNL     1       0.580  -0.170  23.477  0.00  0.00    -0.342 OA
ENDBRANCH   3   2
ENDBRANCH   4   3
TORSDOF 3
ENDMDL
MODEL 6
REMARK VINA RESULT:      -8.5      2.401      4.888
REMARK  Name = 
REMARK  3 active torsions:
REMARK  status: ('A' for Active; 'I' for Inactive)
REMARK    1  A    between atoms: O_2  and  C_3
REMARK    2  A    between atoms: C_3  and  C_4
REMARK    3  A    between atoms: C_9  and  C_11
REMARK                            x       y       z     vdW  Elec       q    Type
REMARK                         _______ _______ _______ _____ _____    ______ ____
ROOT
ATOM      4  C   UNL     1      -3.603  -1.500  25.187  0.00  0.00    +0.256 C 
ATOM      5  O   UNL     1      -3.573  -1.575  26.009  0.00  0.00    -0.272 OA
ATOM      6  N   UNL     1      -3.780  -0.770  24.845  0.00  0.00    -0.277 N 
ATOM      7  C   UNL     1      -3.829  -0.612  24.037  0.00  0.00    +0.094 C 
ATOM      8  C   UNL     1      -4.019   0.185  23.944  0.00  0.00    +0.031 C 
ATOM      9  C   UNL     1      -4.087   0.520  24.696  0.00  0.00    +0.080 C 
ATOM     10  C   UNL     1      -3.939  -0.070  25.252  0.00  0.00    +0.101 C 
ENDROOT
BRANCH   9  11
ATOM     11  C   UNL     1      -4.271   1.308  24.861  0.00  0.00    +0.140 A 
ATOM     12  N   UNL     1      -5.016   1.601  25.056  0.00  0.00    -0.229 NA
ATOM     13  C   UNL     1      -4.947   2.414  25.175  0.00  0.00    +0.100 A 
ATOM     14  C   UNL     1      -4.158   2.623  25.053  0.00  0.00    +0.100 A 
ATOM     15  N   UNL     1      -3.740   1.940  24.859  0.00  0.00    -0.229 NA
ATOM     16  C   UNL     1      -3.923   3.410  25.135  0.00  0.00    +0.020 A 
ATOM     17  C   UNL     1      -4.476   3.987  25.339  0.00  0.00    -0.003 A 
ATOM     18  C   UNL     1      -5.264   3.778  25.461  0.00  0.00    -0.020 A 
ATOM     19  C   UNL     1      -5.818   4.354  25.664  0.00  0.00    +0.031 C 
ATOM     20  C   UNL     1      -5.500   2.992  25.379  0.00  0.00    +0.016 A 
ENDBRANCH   9  11
BRANCH   4   3
ATOM      3  C   UNL     1      -3.455  -2.155  24.708  0.00  0.00    +0.227 C 
BRANCH   3   2
ATOM      1  C   UNL     1      -3.263  -3.563  24.562  0.00  0.00    +0.175 C 
ATOM      2  O   UNL     1      -3.400  -2.907  25.043  0.00  0.00    -0.342 OA
ENDBRANCH   3   2
ENDBRANCH   4   3
TORSDOF 3
ENDMDL
MODEL 7
REMARK VINA RESULT:      -7.5      2.358      3.007
REMARK  Name = 
REMARK  3 active torsions:
REMARK  status: ('A' for Active; 'I' for Inactive)
REMARK    1  A    between atoms: O_2  and  C_3
REMARK    2  A    between atoms: C_3  and  C_4
REMARK    3  A    between atoms: C_9  and  C_11
REMARK                            x       y       z     vdW  Elec       q    Type
REMARK                         _______ _______ _______ _____ _____    ______ ____
ROOT
ATOM      4  C   UNL     1      -3.962   3.037  25.086  0.00  0.00    +0.256 C 
ATOM      5  O   UNL     1      -3.467   3.698  25.104  0.00  0.00    -0.272 OA
ATOM      6  N   UNL     1      -3.651   2.293  24.917  0.00  0.00    -0.277 N 
ATOM      7  C   UNL     1      -4.076   1.586  24.881  0.00  0.00    +0.094 C 
ATOM      8  C   UNL     1      -3.547   0.980  24.696  0.00  0.00    +0.031 C 
ATOM      9  C   UNL     1      -2.795   1.312  24.620  0.00  0.00    +0.080 C 
ATOM     10  C   UNL     1      -2.859   2.123  24.756  0.00  0.00    +0.101 C 
ENDROOT
BRANCH   9  11
ATOM     11  C   UNL     1      -2.101   0.904  24.438  0.00  0.00    +0.140 A 
ATOM     12  N   UNL     1      -1.510   1.158  23.923  0.00  0.00    -0.229 NA
ATOM     13  C   UNL     1      -0.921   0.582  23.906  0.00  0.00    +0.100 A 
ATOM     14  C   UNL     1      -1.148  -0.029  24.412  0.00  0.00    +0.100 A 
ATOM     15  N   UNL     1      -1.877   0.169  24.740  0.00  0.00    -0.229 NA
ATOM     16  C   UNL     1      -0.660  -0.688  24.507  0.00  0.00    +0.020 A 
ATOM     17  C   UNL     1       0.054  -0.736  24.097  0.00  0.00    -0.003 A 
ATOM     18  C   UNL     1       0.281  -0.125  23.592  0.00  0.00    -0.020 A 
ATOM     19  C   UNL     1       0.995  -0.172  23.182  0.00  0.00    +0.031 C 
ATOM     20  C   UNL     1      -0.206   0.534  23.496  0.00  0.00    +0.016 A 
ENDBRANCH   9  11
BRANCH   4   3
ATOM      3  C   UNL     1      -4.768   3.124  25.237  0.00  0.00    +0.227 C 
BRANCH   3   2
ATOM      1  C   UNL     1      -5.879   3.945  25.602  0.00  0.00    +0.175 C 
ATOM      2  O   UNL     1      -5.074   3.862  25.440  0.00  0.00    -0.342 OA
ENDBRANCH   3   2
ENDBRANCH   4   3
TORSDOF 3
ENDMDL
MODEL 8
REMARK VINA RESULT:      -7.3      3.305      3.715
REMARK  Name = 
REMARK  3 active torsions:
REMARK  status: ('A' for Active; 'I' for Inactive)
REMARK    1  A    between atoms: O_2  and  C_3
REMARK    2  A    between atoms: C_3  and  C_4
REMARK    3  A    between atoms: C_9  and  C_11
REMARK                            x       y       z     vdW  Elec       q    Type
REMARK                         _______ _______ _______ _____ _____    ______ ____
ROOT
ATOM      4  C   UNL     1       1.510   0.046  22.957  0.00  0.00    +0.256 C 
ATOM      5  O   UNL     1       1.606  -0.651  22.525  0.00  0.00    -0.272 OA
ATOM      6  N   UNL     1       0.840   0.153  23.426  0.00  0.00    -0.277 N 
ATOM      7  C   UNL     1       0.670   0.816  23.885  0.00  0.00    +0.094 C 
ATOM      8  C   UNL     1      -0.053   0.688  24.261  0.00  0.00    +0.031 C 
ATOM      9  C   UNL     1      -0.330  -0.056  24.034  0.00  0.00    +0.080 C 
ATOM     10  C   UNL     1       0.222  -0.387  23.518  0.00  0.00    +0.101 C 
ENDROOT
BRANCH   9  11
ATOM     11  C   UNL     1      -1.035  -0.407  24.280  0.00  0.00    +0.140 A 
ATOM     12  N   UNL     1      -1.189  -1.216  24.311  0.00  0.00    -0.229 NA
ATOM     13  C   UNL     1      -1.959  -1.319  24.588  0.00  0.00    +0.100 A 
ATOM     14  C   UNL     1      -2.281  -0.573  24.729  0.00  0.00    +0.100 A 
ATOM     15  N   UNL     1      -1.711  -0.009  24.538  0.00  0.00    -0.229 NA
ATOM     16  C   UNL     1      -3.053  -0.504  25.012  0.00  0.00    +0.020 A 
ATOM     17  C   UNL     1      -3.502  -1.181  25.155  0.00  0.00    -0.003 A 
ATOM     18  C   UNL     1      -3.180  -1.927  25.014  0.00  0.00    -0.020 A 
ATOM     19  C   UNL     1      -3.629  -2.604  25.157  0.00  0.00    +0.031 C 
ATOM     20  C   UNL     1      -2.408  -1.997  24.731  0.00  0.00    +0.016 A 
ENDBRANCH   9  11
BRANCH   4   3
ATOM      3  C   UNL     1       2.085   0.636  22.919  0.00  0.00    +0.227 C 
BRANCH   3   2
ATOM      1  C   UNL     1       3.454   0.986  22.704  0.00  0.00    +0.175 C 
ATOM      2  O   UNL     1       2.817   0.477  22.573  0.00  0.00    -0.342 OA
ENDBRANCH   3   2
ENDBRANCH   4   3
TORSDOF 3
ENDMDL
