REMARK  Name = 
REMARK  8 active torsions:
REMARK  status: ('A' for Active; 'I' for Inactive)
REMARK    1  A    between atoms: C_2  and  C_4
REMARK    2  A    between atoms: C_6  and  C_7
REMARK    3  A    between atoms: C_7  and  C_8
REMARK    4  A    between atoms: C_25  and  C_26
REMARK    5  A    between atoms: C_26  and  N_27
REMARK    6  A    between atoms: N_27  and  S_28
REMARK    7  A    between atoms: S_28  and  C_31
REMARK    8  A    between atoms: C_31  and  C_32
REMARK                            x       y       z     vdW  Elec       q    Type
REMARK                         _______ _______ _______ _____ _____    ______ ____
ROOT
ATOM      4  C   UNL     1       3.572  -2.888   0.000  0.00  0.00    +0.006 C 
ATOM      5  C   UNL     1       4.287  -3.300   0.000  0.00  0.00    +0.005 C 
ATOM      6  C   UNL     1       4.287  -4.125   0.000  0.00  0.00    +0.027 C 
ATOM     22  C   UNL     1       3.572  -4.537   0.000  0.00  0.00    -0.048 C 
ATOM     23  C   UNL     1       3.572  -5.362   0.000  0.00  0.00    +0.026 C 
ATOM     24  C   UNL     1       2.858  -4.125   0.000  0.00  0.00    -0.033 C 
ATOM     25  C   UNL     1       2.858  -3.300   0.000  0.00  0.00    +0.041 C 
ENDROOT
BRANCH   4   2
ATOM      1  C   UNL     1       2.858  -1.650   0.000  0.00  0.00    +0.000 C 
ATOM      2  C   UNL     1       3.572  -2.062   0.000  0.00  0.00    +0.000 C 
ATOM      3  C   UNL     1       4.287  -1.650   0.000  0.00  0.00    +0.000 C 
ENDBRANCH   4   2
BRANCH   6   7
ATOM      7  C   UNL     1       5.001  -4.537   0.000  0.00  0.00    +0.089 C 
BRANCH   7   8
ATOM      8  C   UNL     1       5.001  -5.362   0.000  0.00  0.00    +0.226 C 
ATOM      9  O   UNL     1       4.287  -5.775   0.000  0.00  0.00    -0.275 OA
ATOM     10  N   UNL     1       5.716  -5.775   0.000  0.00  0.00    -0.276 N 
ATOM     11  C   UNL     1       6.430  -5.362   0.000  0.00  0.00    +0.115 C 
ATOM     12  C   UNL     1       7.145  -5.775   0.000  0.00  0.00    +0.114 C 
ATOM     13  N   UNL     1       7.145  -6.600   0.000  0.00  0.00    -0.290 N 
ATOM     14  C   UNL     1       6.430  -7.013   0.000  0.00  0.00    +0.114 C 
ATOM     15  C   UNL     1       5.716  -6.600   0.000  0.00  0.00    +0.115 C 
ATOM     16  C   UNL     1       7.859  -7.013   0.000  0.00  0.00    +0.132 A 
ATOM     17  N   UNL     1       8.574  -6.600   0.000  0.00  0.00    -0.229 NA
ATOM     18  C   UNL     1       9.288  -7.013   0.000  0.00  0.00    +0.100 A 
ATOM     19  C   UNL     1       9.288  -7.838   0.000  0.00  0.00    +0.021 A 
ATOM     20  C   UNL     1       8.574  -8.250   0.000  0.00  0.00    +0.004 A 
ATOM     21  C   UNL     1       7.859  -7.838   0.000  0.00  0.00    +0.034 A 
ENDBRANCH   7   8
ENDBRANCH   6   7
BRANCH  25  26
ATOM     26  C   UNL     1       2.143  -2.888   0.000  0.00  0.00    +0.119 C 
BRANCH  26  27
ATOM     27  N   UNL     1       2.143  -2.062   0.000  0.00  0.00    -0.081 NA
BRANCH  27  28
ATOM     28  S   UNL     1       1.429  -1.650   0.000  0.00  0.00    +0.062 S 
ATOM     29  O   UNL     1       1.841  -0.935   0.000  0.00  0.00    -0.156 OA
ATOM     30  O   UNL     1       1.016  -2.365   0.000  0.00  0.00    -0.156 OA
BRANCH  28  31
ATOM     31  C   UNL     1       0.715  -1.238   0.000  0.00  0.00    +0.197 C 
BRANCH  31  32
ATOM     32  C   UNL     1       0.715  -0.412   0.000  0.00  0.00    +0.003 A 
ATOM     33  C   UNL     1       0.000   0.000   0.000  0.00  0.00    -0.003 A 
ATOM     34  C   UNL     1       0.000   0.825   0.000  0.00  0.00    -0.000 A 
ATOM     35  C   UNL     1       0.715   1.238   0.000  0.00  0.00    -0.000 A 
ATOM     36  C   UNL     1       1.429   0.825   0.000  0.00  0.00    -0.000 A 
ATOM     37  C   UNL     1       1.429   0.000   0.000  0.00  0.00    -0.003 A 
ENDBRANCH  31  32
ENDBRANCH  28  31
ENDBRANCH  27  28
ENDBRANCH  26  27
ENDBRANCH  25  26
TORSDOF 8
