MODEL 1
REMARK VINA RESULT:     -10.1      0.000      0.000
REMARK  Name = 
REMARK  6 active torsions:
REMARK  status: ('A' for Active; 'I' for Inactive)
REMARK    1  A    between atoms: C_2  and  N_4
REMARK    2  A    between atoms: N_7  and  C_8
REMARK    3  A    between atoms: C_8  and  C_9
REMARK    4  A    between atoms: C_16  and  C_17
REMARK    5  A    between atoms: C_19  and  C_24
REMARK    6  A    between atoms: C_27  and  N_30
REMARK                            x       y       z     vdW  Elec       q    Type
REMARK                         _______ _______ _______ _____ _____    ______ ____
ROOT
ATOM      9  C   UNL     1       0.685   1.570  24.178  0.00  0.00    +0.079 C 
ATOM     10  C   UNL     1       0.430   1.777  24.883  0.00  0.00    +0.018 C 
ATOM     11  C   UNL     1      -0.182   2.286  25.032  0.00  0.00    +0.010 C 
ATOM     12  C   UNL     1      -0.320   2.395  25.911  0.00  0.00    +0.018 C 
ATOM     13  C   UNL     1      -0.025   2.153  25.380  0.00  0.00    +0.072 C 
ATOM     14  N   UNL     1       0.063   2.087  24.338  0.00  0.00    -0.272 NA
ATOM     15  C   UNL     1      -0.496   2.557  23.790  0.00  0.00    +0.078 C 
ATOM     16  C   UNL     1      -0.716   2.735  24.499  0.00  0.00    +0.056 C 
ENDROOT
BRANCH  16  17
ATOM     17  C   UNL     1      -1.328   3.244  24.719  0.00  0.00    +0.063 A 
ATOM     18  C   UNL     1      -2.094   2.950  24.813  0.00  0.00    +0.034 A 
ATOM     19  C   UNL     1      -2.705   3.458  25.032  0.00  0.00    +0.084 A 
ATOM     20  N   UNL     1      -2.552   4.259  25.158  0.00  0.00    -0.231 NA
ATOM     21  C   UNL     1      -1.786   4.552  25.064  0.00  0.00    +0.139 A 
ATOM     22  C   UNL     1      -1.632   5.352  25.190  0.00  0.00    +0.074 C 
ATOM     23  N   UNL     1      -1.174   4.043  24.845  0.00  0.00    -0.235 NA
BRANCH  19  24
ATOM     24  C   UNL     1      -3.471   3.166  25.126  0.00  0.00    +0.018 A 
ATOM     25  C   UNL     1      -3.913   3.374  25.792  0.00  0.00    +0.003 A 
ATOM     26  C   UNL     1      -4.678   3.083  25.886  0.00  0.00    +0.015 A 
ATOM     27  C   UNL     1      -5.003   2.582  25.315  0.00  0.00    +0.048 A 
ATOM     28  C   UNL     1      -4.561   2.375  24.651  0.00  0.00    +0.015 A 
ATOM     29  C   UNL     1      -3.795   2.666  24.556  0.00  0.00    +0.003 A 
BRANCH  27  30
ATOM     30  N   UNL     1      -5.769   2.291  25.411  0.00  0.00    -0.304 N 
ATOM     31  C   UNL     1      -6.137   2.333  26.148  0.00  0.00    +0.112 C 
ATOM     32  C   UNL     1      -6.167   1.958  24.770  0.00  0.00    +0.112 C 
ENDBRANCH  27  30
ENDBRANCH  19  24
ENDBRANCH  16  17
BRANCH   9   8
ATOM      8  C   UNL     1       1.186   1.156  23.669  0.00  0.00    +0.133 C 
BRANCH   8   7
ATOM      4  N   UNL     1       3.297   1.109  23.120  0.00  0.00    -0.189 NA
ATOM      5  C   UNL     1       2.503   0.895  23.182  0.00  0.00    +0.339 C 
ATOM      6  O   UNL     1       2.233   0.206  22.819  0.00  0.00    -0.249 OA
ATOM      7  N   UNL     1       1.980   1.371  23.607  0.00  0.00    -0.186 NA
BRANCH   4   2
ATOM      1  C   UNL     1       3.712   0.522  21.885  0.00  0.00    +0.023 C 
ATOM      2  C   UNL     1       3.821   0.634  22.695  0.00  0.00    +0.097 C 
ATOM      3  C   UNL     1       4.454   0.271  23.080  0.00  0.00    +0.023 C 
ENDBRANCH   4   2
ENDBRANCH   8   7
ENDBRANCH   9   8
TORSDOF 6
ENDMDL
MODEL 2
REMARK VINA RESULT:      -9.6      2.351      3.084
REMARK  Name = 
REMARK  6 active torsions:
REMARK  status: ('A' for Active; 'I' for Inactive)
REMARK    1  A    between atoms: C_2  and  N_4
REMARK    2  A    between atoms: N_7  and  C_8
REMARK    3  A    between atoms: C_8  and  C_9
REMARK    4  A    between atoms: C_16  and  C_17
REMARK    5  A    between atoms: C_19  and  C_24
REMARK    6  A    between atoms: C_27  and  N_30
REMARK                            x       y       z     vdW  Elec       q    Type
REMARK                         _______ _______ _______ _____ _____    ______ ____
ROOT
ATOM      9  C   UNL     1       0.346  -0.219  23.716  0.00  0.00    +0.079 C 
ATOM     10  C   UNL     1       0.041  -0.230  24.432  0.00  0.00    +0.018 C 
ATOM     11  C   UNL     1      -0.733  -0.388  24.613  0.00  0.00    +0.010 C 
ATOM     12  C   UNL     1      -0.883  -0.351  25.496  0.00  0.00    +0.018 C 
ATOM     13  C   UNL     1      -0.524  -0.315  24.952  0.00  0.00    +0.072 C 
ATOM     14  N   UNL     1      -0.441  -0.379  23.908  0.00  0.00    -0.272 NA
ATOM     15  C   UNL     1      -1.166  -0.581  23.393  0.00  0.00    +0.078 C 
ATOM     16  C   UNL     1      -1.426  -0.582  24.111  0.00  0.00    +0.056 C 
ENDROOT
BRANCH  16  17
ATOM     17  C   UNL     1      -2.197  -0.733  24.362  0.00  0.00    +0.063 A 
ATOM     18  C   UNL     1      -2.728  -0.109  24.463  0.00  0.00    +0.034 A 
ATOM     19  C   UNL     1      -3.499  -0.261  24.714  0.00  0.00    +0.084 A 
ATOM     20  N   UNL     1      -3.739  -1.036  24.864  0.00  0.00    -0.231 NA
ATOM     21  C   UNL     1      -3.209  -1.659  24.763  0.00  0.00    +0.139 A 
ATOM     22  C   UNL     1      -3.448  -2.434  24.914  0.00  0.00    +0.074 C 
ATOM     23  N   UNL     1      -2.437  -1.507  24.512  0.00  0.00    -0.235 NA
BRANCH  19  24
ATOM     24  C   UNL     1      -4.030   0.362  24.815  0.00  0.00    +0.018 A 
ATOM     25  C   UNL     1      -4.019   1.002  24.293  0.00  0.00    +0.003 A 
ATOM     26  C   UNL     1      -4.550   1.625  24.394  0.00  0.00    +0.015 A 
ATOM     27  C   UNL     1      -5.092   1.608  25.016  0.00  0.00    +0.048 A 
ATOM     28  C   UNL     1      -5.103   0.969  25.536  0.00  0.00    +0.015 A 
ATOM     29  C   UNL     1      -4.572   0.345  25.436  0.00  0.00    +0.003 A 
BRANCH  27  30
ATOM     30  N   UNL     1      -5.623   2.232  25.116  0.00  0.00    -0.304 N 
ATOM     31  C   UNL     1      -5.347   2.977  25.339  0.00  0.00    +0.112 C 
ATOM     32  C   UNL     1      -6.429   2.112  24.993  0.00  0.00    +0.112 C 
ENDBRANCH  27  30
ENDBRANCH  19  24
ENDBRANCH  16  17
BRANCH   9   8
ATOM      8  C   UNL     1       0.968  -0.123  23.183  0.00  0.00    +0.133 C 
BRANCH   8   7
ATOM      4  N   UNL     1       2.950   0.788  23.155  0.00  0.00    -0.189 NA
ATOM      5  C   UNL     1       2.316   0.297  22.965  0.00  0.00    +0.339 C 
ATOM      6  O   UNL     1       2.394  -0.265  22.367  0.00  0.00    -0.249 OA
ATOM      7  N   UNL     1       1.602   0.368  23.373  0.00  0.00    -0.186 NA
BRANCH   4   2
ATOM      1  C   UNL     1       3.696   0.884  21.940  0.00  0.00    +0.023 C 
ATOM      2  C   UNL     1       3.664   0.717  22.747  0.00  0.00    +0.097 C 
ATOM      3  C   UNL     1       4.346   0.480  23.147  0.00  0.00    +0.023 C 
ENDBRANCH   4   2
ENDBRANCH   8   7
ENDBRANCH   9   8
TORSDOF 6
ENDMDL
MODEL 3
REMARK VINA RESULT:      -8.3      1.644      2.770
REMARK  Name = 
REMARK  6 active torsions:
REMARK  status: ('A' for Active; 'I' for Inactive)
REMARK    1  A    between atoms: C_2  and  N_4
REMARK    2  A    between atoms: N_7  and  C_8
REMARK    3  A    between atoms: C_8  and  C_9
REMARK    4  A    between atoms: C_16  and  C_17
REMARK    5  A    between atoms: C_19  and  C_24
REMARK    6  A    between atoms: C_27  and  N_30
REMARK                            x       y       z     vdW  Elec       q    Type
REMARK                         _______ _______ _______ _____ _____    ______ ____
ROOT
ATOM      9  C   UNL     1       1.616   0.314  23.038  0.00  0.00    +0.079 C 
ATOM     10  C   UNL     1       0.964  -0.100  22.936  0.00  0.00    +0.018 C 
ATOM     11  C   UNL     1       0.299  -0.053  23.395  0.00  0.00    +0.010 C 
ATOM     12  C   UNL     1      -0.342  -0.612  23.113  0.00  0.00    +0.018 C 
ATOM     13  C   UNL     1       0.245  -0.325  23.101  0.00  0.00    +0.072 C 
ATOM     14  N   UNL     1       0.934   0.356  23.502  0.00  0.00    -0.272 NA
ATOM     15  C   UNL     1       0.724   0.859  24.233  0.00  0.00    +0.078 C 
ATOM     16  C   UNL     1       0.104   0.434  24.099  0.00  0.00    +0.056 C 
ENDROOT
BRANCH  16  17
ATOM     17  C   UNL     1      -0.602   0.432  24.526  0.00  0.00    +0.063 A 
ATOM     18  C   UNL     1      -1.144   1.047  24.428  0.00  0.00    +0.034 A 
ATOM     19  C   UNL     1      -1.850   1.045  24.855  0.00  0.00    +0.084 A 
ATOM     20  N   UNL     1      -2.014   0.430  25.380  0.00  0.00    -0.231 NA
ATOM     21  C   UNL     1      -1.472  -0.184  25.478  0.00  0.00    +0.139 A 
ATOM     22  C   UNL     1      -1.635  -0.799  26.003  0.00  0.00    +0.074 C 
ATOM     23  N   UNL     1      -0.765  -0.182  25.051  0.00  0.00    -0.235 NA
BRANCH  19  24
ATOM     24  C   UNL     1      -2.393   1.659  24.758  0.00  0.00    +0.018 A 
ATOM     25  C   UNL     1      -3.067   1.543  24.296  0.00  0.00    +0.003 A 
ATOM     26  C   UNL     1      -3.610   2.157  24.198  0.00  0.00    +0.015 A 
ATOM     27  C   UNL     1      -3.479   2.886  24.562  0.00  0.00    +0.048 A 
ATOM     28  C   UNL     1      -2.805   3.001  25.023  0.00  0.00    +0.015 A 
ATOM     29  C   UNL     1      -2.262   2.387  25.122  0.00  0.00    +0.003 A 
BRANCH  27  30
ATOM     30  N   UNL     1      -4.022   3.499  24.464  0.00  0.00    -0.304 N 
ATOM     31  C   UNL     1      -4.636   3.596  25.007  0.00  0.00    +0.112 C 
ATOM     32  C   UNL     1      -3.953   4.014  23.824  0.00  0.00    +0.112 C 
ENDBRANCH  27  30
ENDBRANCH  19  24
ENDBRANCH  16  17
BRANCH   9   8
ATOM      8  C   UNL     1       2.384   0.537  22.839  0.00  0.00    +0.133 C 
BRANCH   8   7
ATOM      4  N   UNL     1       4.403  -0.194  23.231  0.00  0.00    -0.189 NA
ATOM      5  C   UNL     1       3.774   0.321  23.090  0.00  0.00    +0.339 C 
ATOM      6  O   UNL     1       3.906   1.134  23.060  0.00  0.00    -0.249 OA
ATOM      7  N   UNL     1       3.013   0.022  22.980  0.00  0.00    -0.186 NA
BRANCH   4   2
ATOM      1  C   UNL     1       5.716   0.061  22.731  0.00  0.00    +0.023 C 
ATOM      2  C   UNL     1       5.163   0.104  23.342  0.00  0.00    +0.097 C 
ATOM      3  C   UNL     1       5.372   0.444  24.064  0.00  0.00    +0.023 C 
ENDBRANCH   4   2
ENDBRANCH   8   7
ENDBRANCH   9   8
TORSDOF 6
ENDMDL
MODEL 4
REMARK VINA RESULT:      -7.9      3.275      4.219
REMARK  Name = 
REMARK  6 active torsions:
REMARK  status: ('A' for Active; 'I' for Inactive)
REMARK    1  A    between atoms: C_2  and  N_4
REMARK    2  A    between atoms: N_7  and  C_8
REMARK    3  A    between atoms: C_8  and  C_9
REMARK    4  A    between atoms: C_16  and  C_17
REMARK    5  A    between atoms: C_19  and  C_24
REMARK    6  A    between atoms: C_27  and  N_30
REMARK                            x       y       z     vdW  Elec       q    Type
REMARK                         _______ _______ _______ _____ _____    ______ ____
ROOT
ATOM      9  C   UNL     1       0.020   2.431  26.359  0.00  0.00    +0.079 C 
ATOM     10  C   UNL     1       0.113   2.178  25.629  0.00  0.00    +0.018 C 
ATOM     11  C   UNL     1      -0.481   1.945  25.132  0.00  0.00    +0.010 C 
ATOM     12  C   UNL     1      -0.166   1.687  24.333  0.00  0.00    +0.018 C 
ATOM     13  C   UNL     1      -0.124   1.911  24.945  0.00  0.00    +0.072 C 
ATOM     14  N   UNL     1      -0.580   2.192  25.846  0.00  0.00    -0.272 NA
ATOM     15  C   UNL     1      -1.486   2.143  25.947  0.00  0.00    +0.078 C 
ATOM     16  C   UNL     1      -1.351   1.901  25.235  0.00  0.00    +0.056 C 
ENDROOT
BRANCH  16  17
ATOM     17  C   UNL     1      -1.908   1.650  24.680  0.00  0.00    +0.063 A 
ATOM     18  C   UNL     1      -2.198   0.877  24.708  0.00  0.00    +0.034 A 
ATOM     19  C   UNL     1      -2.754   0.627  24.153  0.00  0.00    +0.084 A 
ATOM     20  N   UNL     1      -3.021   1.148  23.570  0.00  0.00    -0.231 NA
ATOM     21  C   UNL     1      -2.731   1.919  23.544  0.00  0.00    +0.139 A 
ATOM     22  C   UNL     1      -2.997   2.440  22.962  0.00  0.00    +0.074 C 
ATOM     23  N   UNL     1      -2.174   2.170  24.099  0.00  0.00    -0.235 NA
BRANCH  19  24
ATOM     24  C   UNL     1      -3.045  -0.145  24.179  0.00  0.00    +0.018 A 
ATOM     25  C   UNL     1      -2.524  -0.783  24.135  0.00  0.00    +0.003 A 
ATOM     26  C   UNL     1      -2.814  -1.555  24.162  0.00  0.00    +0.015 A 
ATOM     27  C   UNL     1      -3.625  -1.688  24.232  0.00  0.00    +0.048 A 
ATOM     28  C   UNL     1      -4.145  -1.051  24.275  0.00  0.00    +0.015 A 
ATOM     29  C   UNL     1      -3.856  -0.278  24.249  0.00  0.00    +0.003 A 
BRANCH  27  30
ATOM     30  N   UNL     1      -3.915  -2.461  24.258  0.00  0.00    -0.304 N 
ATOM     31  C   UNL     1      -4.488  -2.705  23.716  0.00  0.00    +0.112 C 
ATOM     32  C   UNL     1      -3.632  -2.989  24.824  0.00  0.00    +0.112 C 
ENDBRANCH  27  30
ENDBRANCH  19  24
ENDBRANCH  16  17
BRANCH   9   8
ATOM      8  C   UNL     1       0.301   2.716  27.081  0.00  0.00    +0.133 C 
BRANCH   8   7
ATOM      4  N   UNL     1       2.128   2.601  28.269  0.00  0.00    -0.189 NA
ATOM      5  C   UNL     1       1.333   2.696  28.068  0.00  0.00    +0.339 C 
ATOM      6  O   UNL     1       0.778   2.867  28.653  0.00  0.00    -0.249 OA
ATOM      7  N   UNL     1       1.095   2.621  27.281  0.00  0.00    -0.186 NA
BRANCH   4   2
ATOM      1  C   UNL     1       2.890   3.276  29.271  0.00  0.00    +0.023 C 
ATOM      2  C   UNL     1       2.367   2.676  29.054  0.00  0.00    +0.097 C 
ATOM      3  C   UNL     1       2.082   2.151  29.624  0.00  0.00    +0.023 C 
ENDBRANCH   4   2
ENDBRANCH   8   7
ENDBRANCH   9   8
TORSDOF 6
ENDMDL
MODEL 5
REMARK VINA RESULT:      -7.7      2.651      3.538
REMARK  Name = 
REMARK  6 active torsions:
REMARK  status: ('A' for Active; 'I' for Inactive)
REMARK    1  A    between atoms: C_2  and  N_4
REMARK    2  A    between atoms: N_7  and  C_8
REMARK    3  A    between atoms: C_8  and  C_9
REMARK    4  A    between atoms: C_16  and  C_17
REMARK    5  A    between atoms: C_19  and  C_24
REMARK    6  A    between atoms: C_27  and  N_30
REMARK                            x       y       z     vdW  Elec       q    Type
REMARK                         _______ _______ _______ _____ _____    ______ ____
ROOT
ATOM      9  C   UNL     1       0.207   2.682  26.360  0.00  0.00    +0.079 C 
ATOM     10  C   UNL     1      -0.236   3.195  25.978  0.00  0.00    +0.018 C 
ATOM     11  C   UNL     1      -0.819   3.012  25.447  0.00  0.00    +0.010 C 
ATOM     12  C   UNL     1      -1.212   3.747  25.116  0.00  0.00    +0.018 C 
ATOM     13  C   UNL     1      -0.789   3.414  25.486  0.00  0.00    +0.072 C 
ATOM     14  N   UNL     1      -0.389   2.503  25.818  0.00  0.00    -0.272 NA
ATOM     15  C   UNL     1      -0.711   1.709  25.504  0.00  0.00    +0.078 C 
ATOM     16  C   UNL     1      -1.123   2.245  25.149  0.00  0.00    +0.056 C 
ENDROOT
BRANCH  16  17
ATOM     17  C   UNL     1      -1.728   2.127  24.600  0.00  0.00    +0.063 A 
ATOM     18  C   UNL     1      -2.513   2.095  24.853  0.00  0.00    +0.034 A 
ATOM     19  C   UNL     1      -3.118   1.977  24.305  0.00  0.00    +0.084 A 
ATOM     20  N   UNL     1      -2.938   1.891  23.504  0.00  0.00    -0.231 NA
ATOM     21  C   UNL     1      -2.154   1.924  23.252  0.00  0.00    +0.139 A 
ATOM     22  C   UNL     1      -1.973   1.838  22.451  0.00  0.00    +0.074 C 
ATOM     23  N   UNL     1      -1.548   2.042  23.801  0.00  0.00    -0.235 NA
BRANCH  19  24
ATOM     24  C   UNL     1      -3.903   1.945  24.557  0.00  0.00    +0.018 A 
ATOM     25  C   UNL     1      -4.356   2.634  24.581  0.00  0.00    +0.003 A 
ATOM     26  C   UNL     1      -5.141   2.602  24.833  0.00  0.00    +0.015 A 
ATOM     27  C   UNL     1      -5.473   1.881  25.060  0.00  0.00    +0.048 A 
ATOM     28  C   UNL     1      -5.020   1.193  25.035  0.00  0.00    +0.015 A 
ATOM     29  C   UNL     1      -4.234   1.224  24.783  0.00  0.00    +0.003 A 
BRANCH  27  30
ATOM     30  N   UNL     1      -6.258   1.850  25.311  0.00  0.00    -0.304 N 
ATOM     31  C   UNL     1      -6.436   1.913  26.115  0.00  0.00    +0.112 C 
ATOM     32  C   UNL     1      -6.865   1.758  24.761  0.00  0.00    +0.112 C 
ENDBRANCH  27  30
ENDBRANCH  19  24
ENDBRANCH  16  17
BRANCH   9   8
ATOM      8  C   UNL     1       0.803   2.476  26.891  0.00  0.00    +0.133 C 
BRANCH   8   7
ATOM      4  N   UNL     1       1.165   2.555  29.042  0.00  0.00    -0.189 NA
ATOM      5  C   UNL     1       1.302   2.511  28.229  0.00  0.00    +0.339 C 
ATOM      6  O   UNL     1       2.074   2.456  27.944  0.00  0.00    -0.249 OA
ATOM      7  N   UNL     1       0.667   2.521  27.703  0.00  0.00    -0.186 NA
BRANCH   4   2
ATOM      1  C   UNL     1       2.414   3.089  29.484  0.00  0.00    +0.023 C 
ATOM      2  C   UNL     1       1.800   2.545  29.568  0.00  0.00    +0.097 C 
ATOM      3  C   UNL     1       1.820   1.991  30.179  0.00  0.00    +0.023 C 
ENDBRANCH   4   2
ENDBRANCH   8   7
ENDBRANCH   9   8
TORSDOF 6
ENDMDL
