MODEL 1
REMARK VINA RESULT:     -14.3      0.000      0.000
REMARK  Name = 
REMARK  6 active torsions:
REMARK  status: ('A' for Active; 'I' for Inactive)
REMARK    1  A    between atoms: C_2  and  C_3
REMARK    2  A    between atoms: C_3  and  S_4
REMARK    3  A    between atoms: S_4  and  N_7
REMARK    4  A    between atoms: C_16  and  C_21
REMARK    5  A    between atoms: C_24  and  O_25
REMARK    6  A    between atoms: O_25  and  C_26
REMARK                            x       y       z     vdW  Elec       q    Type
REMARK                         _______ _______ _______ _____ _____    ______ ____
ROOT
ATOM      7  N   UNL     1      -3.691   2.952  24.555  0.00  0.00    -0.159 NA
ATOM      8  C   UNL     1      -3.892   3.754  24.673  0.00  0.00    +0.097 C 
ATOM      9  C   UNL     1      -4.754   3.640  25.143  0.00  0.00    +0.041 C 
ATOM     10  C   UNL     1      -5.466   3.717  25.533  0.00  0.00    +0.011 C 
ATOM     11  C   UNL     1      -5.054   3.197  25.302  0.00  0.00    +0.056 C 
ATOM     12  C   UNL     1      -4.222   3.323  24.849  0.00  0.00    +0.101 C 
ATOM     13  C   UNL     1      -5.003   2.280  25.264  0.00  0.00    +0.041 A 
ATOM     14  C   UNL     1      -5.422   1.606  25.485  0.00  0.00    +0.013 A 
ATOM     15  C   UNL     1      -5.121   0.858  25.313  0.00  0.00    +0.006 A 
ATOM     16  C   UNL     1      -4.400   0.784  24.918  0.00  0.00    +0.056 A 
ATOM     17  C   UNL     1      -3.980   1.459  24.696  0.00  0.00    +0.261 A 
ATOM     18  O   UNL     1      -3.260   1.385  24.301  0.00  0.00    -0.267 OA
ATOM     19  N   UNL     1      -4.282   2.207  24.869  0.00  0.00    -0.299 N 
ATOM     20  C   UNL     1      -4.692   2.683  25.099  0.00  0.00    +0.110 C 
ENDROOT
BRANCH  16  21
ATOM     21  C   UNL     1      -4.100   0.036  24.745  0.00  0.00    +0.005 A 
ATOM     22  C   UNL     1      -3.608  -0.346  25.287  0.00  0.00    +0.003 A 
ATOM     23  C   UNL     1      -3.307  -1.094  25.116  0.00  0.00    +0.037 A 
ATOM     24  C   UNL     1      -3.498  -1.462  24.402  0.00  0.00    +0.147 A 
ATOM     30  C   UNL     1      -3.989  -1.081  23.860  0.00  0.00    +0.037 A 
ATOM     31  C   UNL     1      -4.290  -0.331  24.032  0.00  0.00    +0.003 A 
BRANCH  24  25
ATOM     25  O   UNL     1      -3.196  -2.211  24.230  0.00  0.00    -0.404 OA
BRANCH  25  26
ATOM     26  C   UNL     1      -3.571  -2.883  24.525  0.00  0.00    +0.575 C 
ATOM     27  F   UNL     1      -3.948  -3.555  24.820  0.00  0.00    -0.133 F 
ATOM     28  F   UNL     1      -4.059  -2.902  23.860  0.00  0.00    -0.133 F 
ATOM     29  F   UNL     1      -3.084  -2.863  25.190  0.00  0.00    -0.133 F 
ENDBRANCH  25  26
ENDBRANCH  24  25
ENDBRANCH  16  21
BRANCH   7   4
ATOM      4  S   UNL     1      -3.254   2.296  24.309  0.00  0.00    +0.044 S 
ATOM      5  O   UNL     1      -2.869   2.279  25.038  0.00  0.00    -0.157 OA
ATOM      6  O   UNL     1      -3.639   2.313  23.579  0.00  0.00    -0.157 OA
BRANCH   4   3
ATOM      3  C   UNL     1      -2.817   1.640  24.063  0.00  0.00    +0.169 C 
BRANCH   3   2
ATOM      1  C   UNL     1      -1.447   1.512  23.679  0.00  0.00    +0.002 C 
ATOM      2  C   UNL     1      -2.222   1.730  23.499  0.00  0.00    +0.027 C 
ENDBRANCH   3   2
ENDBRANCH   4   3
ENDBRANCH   7   4
TORSDOF 6
ENDMDL
MODEL 2
REMARK VINA RESULT:     -14.0      2.675      4.478
REMARK  Name = 
REMARK  6 active torsions:
REMARK  status: ('A' for Active; 'I' for Inactive)
REMARK    1  A    between atoms: C_2  and  C_3
REMARK    2  A    between atoms: C_3  and  S_4
REMARK    3  A    between atoms: S_4  and  N_7
REMARK    4  A    between atoms: C_16  and  C_21
REMARK    5  A    between atoms: C_24  and  O_25
REMARK    6  A    between atoms: O_25  and  C_26
REMARK                            x       y       z     vdW  Elec       q    Type
REMARK                         _______ _______ _______ _____ _____    ______ ____
ROOT
ATOM      7  N   UNL     1      -2.210  -1.449  24.930  0.00  0.00    -0.159 NA
ATOM      8  C   UNL     1      -2.064  -2.271  24.956  0.00  0.00    +0.097 C 
ATOM      9  C   UNL     1      -2.928  -2.603  24.608  0.00  0.00    +0.041 C 
ATOM     10  C   UNL     1      -3.569  -3.029  24.342  0.00  0.00    +0.011 C 
ATOM     11  C   UNL     1      -3.397  -2.355  24.435  0.00  0.00    +0.056 C 
ATOM     12  C   UNL     1      -2.557  -2.050  24.773  0.00  0.00    +0.101 C 
ATOM     13  C   UNL     1      -3.732  -1.505  24.336  0.00  0.00    +0.041 A 
ATOM     14  C   UNL     1      -4.411  -1.110  24.086  0.00  0.00    +0.013 A 
ATOM     15  C   UNL     1      -4.439  -0.286  24.106  0.00  0.00    +0.006 A 
ATOM     16  C   UNL     1      -3.788   0.143  24.376  0.00  0.00    +0.056 A 
ATOM     17  C   UNL     1      -3.108  -0.252  24.625  0.00  0.00    +0.261 A 
ATOM     18  O   UNL     1      -2.457   0.177  24.895  0.00  0.00    -0.267 OA
ATOM     19  N   UNL     1      -3.080  -1.076  24.605  0.00  0.00    -0.299 N 
ATOM     20  C   UNL     1      -3.270  -1.711  24.508  0.00  0.00    +0.110 C 
ENDROOT
BRANCH  16  21
ATOM     21  C   UNL     1      -3.817   0.967  24.395  0.00  0.00    +0.005 A 
ATOM     22  C   UNL     1      -4.126   1.353  25.056  0.00  0.00    +0.003 A 
ATOM     23  C   UNL     1      -4.155   2.177  25.076  0.00  0.00    +0.037 A 
ATOM     24  C   UNL     1      -3.875   2.615  24.436  0.00  0.00    +0.147 A 
ATOM     30  C   UNL     1      -3.566   2.230  23.775  0.00  0.00    +0.037 A 
ATOM     31  C   UNL     1      -3.536   1.405  23.755  0.00  0.00    +0.003 A 
BRANCH  24  25
ATOM     25  O   UNL     1      -3.904   3.440  24.456  0.00  0.00    -0.404 OA
BRANCH  25  26
ATOM     26  C   UNL     1      -3.377   3.859  24.931  0.00  0.00    +0.575 C 
ATOM     27  F   UNL     1      -2.850   4.279  25.408  0.00  0.00    -0.133 F 
ATOM     28  F   UNL     1      -3.948   3.904  25.525  0.00  0.00    -0.133 F 
ATOM     29  F   UNL     1      -2.806   3.815  24.338  0.00  0.00    -0.133 F 
ENDBRANCH  25  26
ENDBRANCH  24  25
ENDBRANCH  16  21
BRANCH   7   4
ATOM      4  S   UNL     1      -2.070  -0.640  25.014  0.00  0.00    +0.044 S 
ATOM      5  O   UNL     1      -2.367  -0.669  25.784  0.00  0.00    -0.157 OA
ATOM      6  O   UNL     1      -1.774  -0.611  24.245  0.00  0.00    -0.157 OA
BRANCH   4   3
ATOM      3  C   UNL     1      -1.931   0.169  25.099  0.00  0.00    +0.169 C 
BRANCH   3   2
ATOM      1  C   UNL     1      -0.736   0.940  25.239  0.00  0.00    +0.002 C 
ATOM      2  C   UNL     1      -1.302   0.433  25.562  0.00  0.00    +0.027 C 
ENDBRANCH   3   2
ENDBRANCH   4   3
ENDBRANCH   7   4
TORSDOF 6
ENDMDL
MODEL 3
REMARK VINA RESULT:     -13.8      1.129      2.047
REMARK  Name = 
REMARK  6 active torsions:
REMARK  status: ('A' for Active; 'I' for Inactive)
REMARK    1  A    between atoms: C_2  and  C_3
REMARK    2  A    between atoms: C_3  and  S_4
REMARK    3  A    between atoms: S_4  and  N_7
REMARK    4  A    between atoms: C_16  and  C_21
REMARK    5  A    between atoms: C_24  and  O_25
REMARK    6  A    between atoms: O_25  and  C_26
REMARK                            x       y       z     vdW  Elec       q    Type
REMARK                         _______ _______ _______ _____ _____    ______ ____
ROOT
ATOM      7  N   UNL     1      -3.624   3.366  25.122  0.00  0.00    -0.159 NA
ATOM      8  C   UNL     1      -3.360   4.149  25.247  0.00  0.00    +0.097 C 
ATOM      9  C   UNL     1      -2.384   3.995  25.254  0.00  0.00    +0.041 C 
ATOM     10  C   UNL     1      -1.571   4.036  25.284  0.00  0.00    +0.011 C 
ATOM     11  C   UNL     1      -2.062   3.543  25.196  0.00  0.00    +0.056 C 
ATOM     12  C   UNL     1      -3.003   3.708  25.192  0.00  0.00    +0.101 C 
ATOM     13  C   UNL     1      -2.160   2.640  25.058  0.00  0.00    +0.041 A 
ATOM     14  C   UNL     1      -1.712   1.953  24.969  0.00  0.00    +0.013 A 
ATOM     15  C   UNL     1      -2.087   1.228  24.850  0.00  0.00    +0.006 A 
ATOM     16  C   UNL     1      -2.911   1.190  24.819  0.00  0.00    +0.056 A 
ATOM     17  C   UNL     1      -3.359   1.877  24.908  0.00  0.00    +0.261 A 
ATOM     18  O   UNL     1      -4.183   1.839  24.878  0.00  0.00    -0.267 OA
ATOM     19  N   UNL     1      -2.984   2.602  25.028  0.00  0.00    -0.299 N 
ATOM     20  C   UNL     1      -2.496   3.053  25.110  0.00  0.00    +0.110 C 
ENDROOT
BRANCH  16  21
ATOM     21  C   UNL     1      -3.285   0.465  24.700  0.00  0.00    +0.005 A 
ATOM     22  C   UNL     1      -3.475  -0.012  25.346  0.00  0.00    +0.003 A 
ATOM     23  C   UNL     1      -3.850  -0.737  25.227  0.00  0.00    +0.037 A 
ATOM     24  C   UNL     1      -4.035  -0.985  24.463  0.00  0.00    +0.147 A 
ATOM     30  C   UNL     1      -3.845  -0.509  23.816  0.00  0.00    +0.037 A 
ATOM     31  C   UNL     1      -3.470   0.217  23.935  0.00  0.00    +0.003 A 
BRANCH  24  25
ATOM     25  O   UNL     1      -4.410  -1.711  24.343  0.00  0.00    -0.404 OA
BRANCH  25  26
ATOM     26  C   UNL     1      -3.963  -2.381  24.167  0.00  0.00    +0.575 C 
ATOM     27  F   UNL     1      -3.516  -3.051  23.988  0.00  0.00    -0.133 F 
ATOM     28  F   UNL     1      -4.089  -2.252  23.362  0.00  0.00    -0.133 F 
ATOM     29  F   UNL     1      -3.837  -2.510  24.971  0.00  0.00    -0.133 F 
ENDBRANCH  25  26
ENDBRANCH  24  25
ENDBRANCH  16  21
BRANCH   7   4
ATOM      4  S   UNL     1      -4.149   2.739  25.013  0.00  0.00    +0.044 S 
ATOM      5  O   UNL     1      -4.177   2.620  25.829  0.00  0.00    -0.157 OA
ATOM      6  O   UNL     1      -4.122   2.859  24.197  0.00  0.00    -0.157 OA
BRANCH   4   3
ATOM      3  C   UNL     1      -4.675   2.112  24.904  0.00  0.00    +0.169 C 
BRANCH   3   2
ATOM      1  C   UNL     1      -6.063   1.954  25.204  0.00  0.00    +0.002 C 
ATOM      2  C   UNL     1      -5.466   2.264  24.726  0.00  0.00    +0.027 C 
ENDBRANCH   3   2
ENDBRANCH   4   3
ENDBRANCH   7   4
TORSDOF 6
ENDMDL
MODEL 4
REMARK VINA RESULT:     -13.6      1.627      2.171
REMARK  Name = 
REMARK  6 active torsions:
REMARK  status: ('A' for Active; 'I' for Inactive)
REMARK    1  A    between atoms: C_2  and  C_3
REMARK    2  A    between atoms: C_3  and  S_4
REMARK    3  A    between atoms: S_4  and  N_7
REMARK    4  A    between atoms: C_16  and  C_21
REMARK    5  A    between atoms: C_24  and  O_25
REMARK    6  A    between atoms: O_25  and  C_26
REMARK                            x       y       z     vdW  Elec       q    Type
REMARK                         _______ _______ _______ _____ _____    ______ ____
ROOT
ATOM      7  N   UNL     1      -1.066   2.500  25.144  0.00  0.00    -0.159 NA
ATOM      8  C   UNL     1      -0.628   3.197  25.288  0.00  0.00    +0.097 C 
ATOM      9  C   UNL     1      -1.365   3.855  25.305  0.00  0.00    +0.041 C 
ATOM     10  C   UNL     1      -1.848   4.510  25.347  0.00  0.00    +0.011 C 
ATOM     11  C   UNL     1      -1.918   3.819  25.242  0.00  0.00    +0.056 C 
ATOM     12  C   UNL     1      -1.195   3.196  25.229  0.00  0.00    +0.101 C 
ATOM     13  C   UNL     1      -2.554   3.175  25.085  0.00  0.00    +0.041 A 
ATOM     14  C   UNL     1      -3.369   3.089  24.988  0.00  0.00    +0.013 A 
ATOM     15  C   UNL     1      -3.691   2.343  24.850  0.00  0.00    +0.006 A 
ATOM     16  C   UNL     1      -3.199   1.682  24.807  0.00  0.00    +0.056 A 
ATOM     17  C   UNL     1      -2.384   1.768  24.904  0.00  0.00    +0.261 A 
ATOM     18  O   UNL     1      -1.892   1.107  24.862  0.00  0.00    -0.267 OA
ATOM     19  N   UNL     1      -2.062   2.514  25.043  0.00  0.00    -0.299 N 
ATOM     20  C   UNL     1      -2.022   3.175  25.140  0.00  0.00    +0.110 C 
ENDROOT
BRANCH  16  21
ATOM     21  C   UNL     1      -3.522   0.936  24.668  0.00  0.00    +0.005 A 
ATOM     22  C   UNL     1      -3.761   0.466  25.303  0.00  0.00    +0.003 A 
ATOM     23  C   UNL     1      -4.084  -0.280  25.165  0.00  0.00    +0.037 A 
ATOM     24  C   UNL     1      -4.169  -0.556  24.392  0.00  0.00    +0.147 A 
ATOM     30  C   UNL     1      -3.930  -0.087  23.757  0.00  0.00    +0.037 A 
ATOM     31  C   UNL     1      -3.606   0.660  23.896  0.00  0.00    +0.003 A 
BRANCH  24  25
ATOM     25  O   UNL     1      -4.492  -1.303  24.254  0.00  0.00    -0.404 OA
BRANCH  25  26
ATOM     26  C   UNL     1      -3.997  -1.950  24.128  0.00  0.00    +0.575 C 
ATOM     27  F   UNL     1      -3.500  -2.596  24.000  0.00  0.00    -0.133 F 
ATOM     28  F   UNL     1      -4.064  -1.841  23.313  0.00  0.00    -0.133 F 
ATOM     29  F   UNL     1      -3.929  -2.058  24.942  0.00  0.00    -0.133 F 
ENDBRANCH  25  26
ENDBRANCH  24  25
ENDBRANCH  16  21
BRANCH   7   4
ATOM      4  S   UNL     1      -1.217   1.699  25.015  0.00  0.00    +0.044 S 
ATOM      5  O   UNL     1      -1.276   1.579  25.830  0.00  0.00    -0.157 OA
ATOM      6  O   UNL     1      -1.159   1.819  24.201  0.00  0.00    -0.157 OA
BRANCH   4   3
ATOM      3  C   UNL     1      -1.368   0.898  24.887  0.00  0.00    +0.169 C 
BRANCH   3   2
ATOM      1  C   UNL     1      -0.534  -0.192  24.489  0.00  0.00    +0.002 C 
ATOM      2  C   UNL     1      -0.794   0.335  25.069  0.00  0.00    +0.027 C 
ENDBRANCH   3   2
ENDBRANCH   4   3
ENDBRANCH   7   4
TORSDOF 6
ENDMDL
MODEL 5
REMARK VINA RESULT:     -13.3      2.978      4.696
REMARK  Name = 
REMARK  6 active torsions:
REMARK  status: ('A' for Active; 'I' for Inactive)
REMARK    1  A    between atoms: C_2  and  C_3
REMARK    2  A    between atoms: C_3  and  S_4
REMARK    3  A    between atoms: S_4  and  N_7
REMARK    4  A    between atoms: C_16  and  C_21
REMARK    5  A    between atoms: C_24  and  O_25
REMARK    6  A    between atoms: O_25  and  C_26
REMARK                            x       y       z     vdW  Elec       q    Type
REMARK                         _______ _______ _______ _____ _____    ______ ____
ROOT
ATOM      7  N   UNL     1      -3.935   0.323  24.455  0.00  0.00    -0.159 NA
ATOM      8  C   UNL     1      -4.358  -0.389  24.353  0.00  0.00    +0.097 C 
ATOM      9  C   UNL     1      -3.647  -1.038  24.576  0.00  0.00    +0.041 C 
ATOM     10  C   UNL     1      -3.181  -1.689  24.728  0.00  0.00    +0.011 C 
ATOM     11  C   UNL     1      -3.113  -0.990  24.729  0.00  0.00    +0.056 C 
ATOM     12  C   UNL     1      -3.811  -0.376  24.511  0.00  0.00    +0.101 C 
ATOM     13  C   UNL     1      -2.498  -0.326  24.888  0.00  0.00    +0.041 A 
ATOM     14  C   UNL     1      -1.711  -0.223  25.112  0.00  0.00    +0.013 A 
ATOM     15  C   UNL     1      -1.399   0.538  25.181  0.00  0.00    +0.006 A 
ATOM     16  C   UNL     1      -1.873   1.195  25.026  0.00  0.00    +0.056 A 
ATOM     17  C   UNL     1      -2.660   1.091  24.802  0.00  0.00    +0.261 A 
ATOM     18  O   UNL     1      -3.135   1.748  24.647  0.00  0.00    -0.267 OA
ATOM     19  N   UNL     1      -2.972   0.331  24.733  0.00  0.00    -0.299 N 
ATOM     20  C   UNL     1      -3.011  -0.338  24.740  0.00  0.00    +0.110 C 
ENDROOT
BRANCH  16  21
ATOM     21  C   UNL     1      -1.560   1.954  25.095  0.00  0.00    +0.005 A 
ATOM     22  C   UNL     1      -1.216   2.319  24.440  0.00  0.00    +0.003 A 
ATOM     23  C   UNL     1      -0.903   3.080  24.509  0.00  0.00    +0.037 A 
ATOM     24  C   UNL     1      -0.934   3.474  25.232  0.00  0.00    +0.147 A 
ATOM     30  C   UNL     1      -1.278   3.110  25.887  0.00  0.00    +0.037 A 
ATOM     31  C   UNL     1      -1.591   2.349  25.819  0.00  0.00    +0.003 A 
BRANCH  24  25
ATOM     25  O   UNL     1      -0.620   4.235  25.301  0.00  0.00    -0.404 OA
BRANCH  25  26
ATOM     26  C   UNL     1      -1.051   4.884  25.030  0.00  0.00    +0.575 C 
ATOM     27  F   UNL     1      -1.481   5.533  24.758  0.00  0.00    -0.133 F 
ATOM     28  F   UNL     1      -0.559   4.934  24.370  0.00  0.00    -0.133 F 
ATOM     29  F   UNL     1      -1.543   4.833  25.690  0.00  0.00    -0.133 F 
ENDBRANCH  25  26
ENDBRANCH  24  25
ENDBRANCH  16  21
BRANCH   7   4
ATOM      4  S   UNL     1      -3.787   1.135  24.475  0.00  0.00    +0.044 S 
ATOM      5  O   UNL     1      -3.556   1.113  23.683  0.00  0.00    -0.157 OA
ATOM      6  O   UNL     1      -4.019   1.158  25.267  0.00  0.00    -0.157 OA
BRANCH   4   3
ATOM      3  C   UNL     1      -3.640   1.947  24.495  0.00  0.00    +0.169 C 
BRANCH   3   2
ATOM      1  C   UNL     1      -4.515   3.074  24.573  0.00  0.00    +0.002 C 
ATOM      2  C   UNL     1      -4.165   2.470  24.133  0.00  0.00    +0.027 C 
ENDBRANCH   3   2
ENDBRANCH   4   3
ENDBRANCH   7   4
TORSDOF 6
ENDMDL
