REMARK  Name = 
REMARK  5 active torsions:
REMARK  status: ('A' for Active; 'I' for Inactive)
REMARK    1  A    between atoms: C_3  and  C_4
REMARK    2  A    between atoms: C_4  and  N_5
REMARK    3  A    between atoms: C_6  and  C_8
REMARK    4  A    between atoms: C_15  and  N_16
REMARK    5  A    between atoms: N_16  and  C_17
REMARK                            x       y       z     vdW  Elec       q    Type
REMARK                         _______ _______ _______ _____ _____    ______ ____
ROOT
ATOM      1  O   UNL     1       2.037  -0.474   0.000  0.00  0.00    -0.219 OA
ATOM      2  C   UNL     1       2.037  -1.299   0.000  0.00  0.00    +0.199 C 
ATOM      3  C   UNL     1       2.704  -1.784   0.000  0.00  0.00    +0.169 C 
ATOM     13  O   UNL     1       2.449  -2.569   0.000  0.00  0.00    -0.350 OA
ATOM     14  C   UNL     1       1.624  -2.569   0.000  0.00  0.00    +0.162 C 
ATOM     15  C   UNL     1       1.369  -1.784   0.000  0.00  0.00    +0.135 C 
ENDROOT
BRANCH   3   4
ATOM      4  C   UNL     1       3.489  -1.529   0.000  0.00  0.00    +0.148 C 
BRANCH   4   5
ATOM      5  N   UNL     1       4.102  -2.081   0.000  0.00  0.00    -0.199 NA
ATOM      6  C   UNL     1       4.886  -1.826   0.000  0.00  0.00    +0.271 C 
ATOM      7  O   UNL     1       5.058  -1.019   0.000  0.00  0.00    -0.268 OA
BRANCH   6   8
ATOM      8  C   UNL     1       5.500  -2.378   0.000  0.00  0.00    +0.084 A 
ATOM      9  C   UNL     1       6.307  -2.207   0.000  0.00  0.00    +0.012 A 
ATOM     10  C   UNL     1       6.719  -2.921   0.000  0.00  0.00    +0.008 A 
ATOM     11  C   UNL     1       6.167  -3.534   0.000  0.00  0.00    +0.036 A 
ATOM     12  S   UNL     1       5.413  -3.199   0.000  0.00  0.00    -0.082 S 
ENDBRANCH   6   8
ENDBRANCH   4   5
ENDBRANCH   3   4
BRANCH  15  16
ATOM     16  N   UNL     1       0.585  -1.529   0.000  0.00  0.00    -0.216 NA
BRANCH  16  17
ATOM     17  C   UNL     1       0.413  -0.722   0.000  0.00  0.00    +0.073 C 
ATOM     18  C   UNL     1      -0.371  -0.467   0.000  0.00  0.00    +0.023 C 
ATOM     19  C   UNL     1      -0.543   0.340   0.000  0.00  0.00    +0.068 C 
ATOM     20  C   UNL     1       0.070   0.892   0.000  0.00  0.00    +0.264 C 
ATOM     21  F   UNL     1      -0.580   1.400   0.000  0.00  0.00    -0.204 F 
ATOM     22  F   UNL     1       0.457   1.620   0.000  0.00  0.00    -0.204 F 
ATOM     23  C   UNL     1       0.855   0.637   0.000  0.00  0.00    +0.068 C 
ATOM     24  C   UNL     1       1.026  -0.170   0.000  0.00  0.00    +0.023 C 
ENDBRANCH  16  17
ENDBRANCH  15  16
TORSDOF 5
