MODEL 1
REMARK VINA RESULT:     -10.8      0.000      0.000
REMARK  Name = 
REMARK  4 active torsions:
REMARK  status: ('A' for Active; 'I' for Inactive)
REMARK    1  A    between atoms: C_5  and  C_6
REMARK    2  A    between atoms: C_6  and  N_7
REMARK    3  A    between atoms: N_19  and  C_20
REMARK    4  A    between atoms: C_20  and  C_21
REMARK                            x       y       z     vdW  Elec       q    Type
REMARK                         _______ _______ _______ _____ _____    ______ ____
ROOT
ATOM      7  N   UNL     1      -0.821   2.759  25.379  0.00  0.00    -0.258 N 
ATOM      8  C   UNL     1      -1.639   2.649  25.408  0.00  0.00    +0.117 C 
ATOM      9  C   UNL     1      -1.795   1.858  25.237  0.00  0.00    +0.117 C 
ATOM     10  C   UNL     1      -2.501   1.433  25.186  0.00  0.00    +0.117 C 
ATOM     11  N   UNL     1      -2.486   0.630  25.001  0.00  0.00    -0.259 N 
ATOM     12  C   UNL     1      -1.766   0.250  24.866  0.00  0.00    +0.117 C 
ATOM     13  C   UNL     1      -1.060   0.674  24.917  0.00  0.00    +0.117 C 
ATOM     14  N   UNL     1      -1.075   1.479  25.102  0.00  0.00    -0.261 N 
ATOM     15  C   UNL     1      -0.473   2.035  25.190  0.00  0.00    +0.308 C 
ATOM     16  O   UNL     1       0.335   1.894  25.103  0.00  0.00    -0.252 OA
ATOM     17  C   UNL     1      -3.192   0.204  24.951  0.00  0.00    +0.324 C 
ATOM     18  O   UNL     1      -3.912   0.584  25.086  0.00  0.00    -0.251 OA
ATOM     19  N   UNL     1      -3.178  -0.599  24.766  0.00  0.00    -0.184 NA
ENDROOT
BRANCH   7   6
ATOM      6  C   UNL     1      -0.422   3.468  25.515  0.00  0.00    +0.122 C 
BRANCH   6   5
ATOM      1  F   UNL     1      -1.771   6.330  24.578  0.00  0.00    -0.204 F 
ATOM      2  C   UNL     1      -1.434   5.614  24.812  0.00  0.00    +0.140 A 
ATOM      3  C   UNL     1      -1.770   5.183  25.429  0.00  0.00    +0.029 A 
ATOM      4  C   UNL     1      -1.433   4.467  25.664  0.00  0.00    -0.000 A 
ATOM      5  C   UNL     1      -0.760   4.183  25.281  0.00  0.00    -0.002 A 
ATOM     27  C   UNL     1      -0.423   4.615  24.663  0.00  0.00    -0.000 A 
ATOM     28  C   UNL     1      -0.761   5.331  24.429  0.00  0.00    +0.029 A 
ENDBRANCH   6   5
ENDBRANCH   7   6
BRANCH  19  20
ATOM     20  C   UNL     1      -3.883  -1.024  24.715  0.00  0.00    +0.143 C 
BRANCH  20  21
ATOM     21  C   UNL     1      -3.873  -1.813  24.477  0.00  0.00    -0.001 A 
ATOM     22  C   UNL     1      -4.248  -2.038  23.777  0.00  0.00    -0.003 A 
ATOM     23  C   UNL     1      -4.239  -2.827  23.539  0.00  0.00    -0.000 A 
ATOM     24  C   UNL     1      -3.854  -3.393  24.000  0.00  0.00    -0.000 A 
ATOM     25  C   UNL     1      -3.479  -3.169  24.700  0.00  0.00    -0.000 A 
ATOM     26  C   UNL     1      -3.489  -2.378  24.938  0.00  0.00    -0.003 A 
ENDBRANCH  20  21
ENDBRANCH  19  20
TORSDOF 4
ENDMDL
MODEL 2
REMARK VINA RESULT:     -10.5      2.082      6.295
REMARK  Name = 
REMARK  4 active torsions:
REMARK  status: ('A' for Active; 'I' for Inactive)
REMARK    1  A    between atoms: C_5  and  C_6
REMARK    2  A    between atoms: C_6  and  N_7
REMARK    3  A    between atoms: N_19  and  C_20
REMARK    4  A    between atoms: C_20  and  C_21
REMARK                            x       y       z     vdW  Elec       q    Type
REMARK                         _______ _______ _______ _____ _____    ______ ____
ROOT
ATOM      7  N   UNL     1      -4.052  -0.349  24.953  0.00  0.00    -0.258 N 
ATOM      8  C   UNL     1      -3.248  -0.234  25.099  0.00  0.00    +0.117 C 
ATOM      9  C   UNL     1      -3.091   0.573  25.041  0.00  0.00    +0.117 C 
ATOM     10  C   UNL     1      -2.396   1.009  25.129  0.00  0.00    +0.117 C 
ATOM     11  N   UNL     1      -2.407   1.828  25.036  0.00  0.00    -0.259 N 
ATOM     12  C   UNL     1      -3.114   2.212  24.854  0.00  0.00    +0.117 C 
ATOM     13  C   UNL     1      -3.809   1.778  24.765  0.00  0.00    +0.117 C 
ATOM     14  N   UNL     1      -3.798   0.958  24.859  0.00  0.00    -0.261 N 
ATOM     15  C   UNL     1      -4.392   0.388  24.805  0.00  0.00    +0.308 C 
ATOM     16  O   UNL     1      -5.186   0.531  24.633  0.00  0.00    -0.252 OA
ATOM     17  C   UNL     1      -1.712   2.263  25.125  0.00  0.00    +0.324 C 
ATOM     18  O   UNL     1      -1.005   1.878  25.307  0.00  0.00    -0.251 OA
ATOM     19  N   UNL     1      -1.723   3.082  25.032  0.00  0.00    -0.184 NA
ENDROOT
BRANCH   7   6
ATOM      6  C   UNL     1      -4.447  -1.073  24.956  0.00  0.00    +0.122 C 
BRANCH   6   5
ATOM      1  F   UNL     1      -2.937  -3.783  23.830  0.00  0.00    -0.204 F 
ATOM      2  C   UNL     1      -3.314  -3.105  24.112  0.00  0.00    +0.140 A 
ATOM      3  C   UNL     1      -3.215  -2.874  24.897  0.00  0.00    +0.029 A 
ATOM      4  C   UNL     1      -3.593  -2.196  25.179  0.00  0.00    -0.000 A 
ATOM      5  C   UNL     1      -4.070  -1.750  24.675  0.00  0.00    -0.002 A 
ATOM     27  C   UNL     1      -4.169  -1.982  23.889  0.00  0.00    -0.000 A 
ATOM     28  C   UNL     1      -3.791  -2.659  23.608  0.00  0.00    +0.029 A 
ENDBRANCH   6   5
ENDBRANCH   7   6
BRANCH  19  20
ATOM     20  C   UNL     1      -1.028   3.518  25.120  0.00  0.00    +0.143 C 
BRANCH  20  21
ATOM     21  C   UNL     1      -1.036   4.335  25.014  0.00  0.00    -0.001 A 
ATOM     22  C   UNL     1      -1.678   4.780  25.280  0.00  0.00    -0.003 A 
ATOM     23  C   UNL     1      -1.686   5.598  25.173  0.00  0.00    -0.000 A 
ATOM     24  C   UNL     1      -1.052   5.971  24.800  0.00  0.00    -0.000 A 
ATOM     25  C   UNL     1      -0.410   5.527  24.534  0.00  0.00    -0.000 A 
ATOM     26  C   UNL     1      -0.402   4.709  24.641  0.00  0.00    -0.003 A 
ENDBRANCH  20  21
ENDBRANCH  19  20
TORSDOF 4
ENDMDL
MODEL 3
REMARK VINA RESULT:     -10.4      3.410      5.874
REMARK  Name = 
REMARK  4 active torsions:
REMARK  status: ('A' for Active; 'I' for Inactive)
REMARK    1  A    between atoms: C_5  and  C_6
REMARK    2  A    between atoms: C_6  and  N_7
REMARK    3  A    between atoms: N_19  and  C_20
REMARK    4  A    between atoms: C_20  and  C_21
REMARK                            x       y       z     vdW  Elec       q    Type
REMARK                         _______ _______ _______ _____ _____    ______ ____
ROOT
ATOM      7  N   UNL     1      -1.944   0.589  24.713  0.00  0.00    -0.258 N 
ATOM      8  C   UNL     1      -1.603   0.067  24.171  0.00  0.00    +0.117 C 
ATOM      9  C   UNL     1      -0.823   0.304  24.047  0.00  0.00    +0.117 C 
ATOM     10  C   UNL     1      -0.222  -0.001  23.571  0.00  0.00    +0.117 C 
ATOM     11  N   UNL     1       0.519   0.360  23.559  0.00  0.00    -0.259 N 
ATOM     12  C   UNL     1       0.660   1.027  24.023  0.00  0.00    +0.117 C 
ATOM     13  C   UNL     1       0.060   1.333  24.499  0.00  0.00    +0.117 C 
ATOM     14  N   UNL     1      -0.682   0.971  24.511  0.00  0.00    -0.261 N 
ATOM     15  C   UNL     1      -1.375   1.147  24.923  0.00  0.00    +0.308 C 
ATOM     16  O   UNL     1      -1.480   1.772  25.451  0.00  0.00    -0.252 OA
ATOM     17  C   UNL     1       1.119   0.055  23.083  0.00  0.00    +0.324 C 
ATOM     18  O   UNL     1       0.978  -0.613  22.619  0.00  0.00    -0.251 OA
ATOM     19  N   UNL     1       1.860   0.416  23.071  0.00  0.00    -0.184 NA
ENDROOT
BRANCH   7   6
ATOM      6  C   UNL     1      -2.719   0.556  24.995  0.00  0.00    +0.122 C 
BRANCH   6   5
ATOM      1  F   UNL     1      -4.726  -1.881  24.035  0.00  0.00    -0.204 F 
ATOM      2  C   UNL     1      -4.225  -1.271  24.275  0.00  0.00    +0.140 A 
ATOM      3  C   UNL     1      -4.200  -0.565  23.849  0.00  0.00    +0.029 A 
ATOM      4  C   UNL     1      -3.698   0.044  24.088  0.00  0.00    -0.000 A 
ATOM      5  C   UNL     1      -3.221  -0.052  24.754  0.00  0.00    -0.002 A 
ATOM     27  C   UNL     1      -3.246  -0.759  25.181  0.00  0.00    -0.000 A 
ATOM     28  C   UNL     1      -3.748  -1.368  24.941  0.00  0.00    +0.029 A 
ENDBRANCH   6   5
ENDBRANCH   7   6
BRANCH  19  20
ATOM     20  C   UNL     1       2.461   0.110  22.595  0.00  0.00    +0.143 C 
BRANCH  20  21
ATOM     21  C   UNL     1       3.250   0.275  22.769  0.00  0.00    -0.001 A 
ATOM     22  C   UNL     1       3.728  -0.306  23.108  0.00  0.00    -0.003 A 
ATOM     23  C   UNL     1       4.517  -0.142  23.282  0.00  0.00    -0.000 A 
ATOM     24  C   UNL     1       4.829   0.604  23.118  0.00  0.00    -0.000 A 
ATOM     25  C   UNL     1       4.352   1.186  22.780  0.00  0.00    -0.000 A 
ATOM     26  C   UNL     1       3.562   1.021  22.605  0.00  0.00    -0.003 A 
ENDBRANCH  20  21
ENDBRANCH  19  20
TORSDOF 4
ENDMDL
MODEL 4
REMARK VINA RESULT:     -10.0      2.209      6.050
REMARK  Name = 
REMARK  4 active torsions:
REMARK  status: ('A' for Active; 'I' for Inactive)
REMARK    1  A    between atoms: C_5  and  C_6
REMARK    2  A    between atoms: C_6  and  N_7
REMARK    3  A    between atoms: N_19  and  C_20
REMARK    4  A    between atoms: C_20  and  C_21
REMARK                            x       y       z     vdW  Elec       q    Type
REMARK                         _______ _______ _______ _____ _____    ______ ____
ROOT
ATOM      7  N   UNL     1      -1.546  -1.172  24.971  0.00  0.00    -0.258 N 
ATOM      8  C   UNL     1      -2.159  -0.650  25.151  0.00  0.00    +0.117 C 
ATOM      9  C   UNL     1      -1.852   0.115  25.145  0.00  0.00    +0.117 C 
ATOM     10  C   UNL     1      -2.199   0.851  25.282  0.00  0.00    +0.117 C 
ATOM     11  N   UNL     1      -1.745   1.537  25.236  0.00  0.00    -0.259 N 
ATOM     12  C   UNL     1      -0.942   1.489  25.052  0.00  0.00    +0.117 C 
ATOM     13  C   UNL     1      -0.594   0.754  24.914  0.00  0.00    +0.117 C 
ATOM     14  N   UNL     1      -1.050   0.067  24.961  0.00  0.00    -0.261 N 
ATOM     15  C   UNL     1      -0.860  -0.729  24.854  0.00  0.00    +0.308 C 
ATOM     16  O   UNL     1      -0.116  -1.029  24.662  0.00  0.00    -0.252 OA
ATOM     17  C   UNL     1      -2.092   2.273  25.374  0.00  0.00    +0.324 C 
ATOM     18  O   UNL     1      -2.895   2.322  25.558  0.00  0.00    -0.251 OA
ATOM     19  N   UNL     1      -1.637   2.959  25.328  0.00  0.00    -0.184 NA
ENDROOT
BRANCH   7   6
ATOM      6  C   UNL     1      -1.608  -1.993  24.919  0.00  0.00    +0.122 C 
BRANCH   6   5
ATOM      1  F   UNL     1      -4.492  -3.384  24.119  0.00  0.00    -0.204 F 
ATOM      2  C   UNL     1      -3.771  -3.036  24.320  0.00  0.00    +0.140 A 
ATOM      3  C   UNL     1      -3.607  -2.850  25.106  0.00  0.00    +0.029 A 
ATOM      4  C   UNL     1      -2.886  -2.502  25.306  0.00  0.00    -0.000 A 
ATOM      5  C   UNL     1      -2.329  -2.341  24.720  0.00  0.00    -0.002 A 
ATOM     27  C   UNL     1      -2.493  -2.527  23.932  0.00  0.00    -0.000 A 
ATOM     28  C   UNL     1      -3.214  -2.875  23.733  0.00  0.00    +0.029 A 
ENDBRANCH   6   5
ENDBRANCH   7   6
BRANCH  19  20
ATOM     20  C   UNL     1      -1.984   3.695  25.465  0.00  0.00    +0.143 C 
BRANCH  20  21
ATOM     21  C   UNL     1      -1.601   4.384  25.225  0.00  0.00    -0.001 A 
ATOM     22  C   UNL     1      -0.819   4.352  24.963  0.00  0.00    -0.003 A 
ATOM     23  C   UNL     1      -0.435   5.041  24.723  0.00  0.00    -0.000 A 
ATOM     24  C   UNL     1      -0.833   5.764  24.745  0.00  0.00    -0.000 A 
ATOM     25  C   UNL     1      -1.614   5.797  25.007  0.00  0.00    -0.000 A 
ATOM     26  C   UNL     1      -1.998   5.107  25.247  0.00  0.00    -0.003 A 
ENDBRANCH  20  21
ENDBRANCH  19  20
TORSDOF 4
ENDMDL
MODEL 5
REMARK VINA RESULT:      -9.6      3.302      4.664
REMARK  Name = 
REMARK  4 active torsions:
REMARK  status: ('A' for Active; 'I' for Inactive)
REMARK    1  A    between atoms: C_5  and  C_6
REMARK    2  A    between atoms: C_6  and  N_7
REMARK    3  A    between atoms: N_19  and  C_20
REMARK    4  A    between atoms: C_20  and  C_21
REMARK                            x       y       z     vdW  Elec       q    Type
REMARK                         _______ _______ _______ _____ _____    ______ ____
ROOT
ATOM      7  N   UNL     1      -3.854   2.687  24.235  0.00  0.00    -0.258 N 
ATOM      8  C   UNL     1      -3.377   2.239  24.738  0.00  0.00    +0.117 C 
ATOM      9  C   UNL     1      -2.723   1.982  24.307  0.00  0.00    +0.117 C 
ATOM     10  C   UNL     1      -2.071   1.521  24.516  0.00  0.00    +0.117 C 
ATOM     11  N   UNL     1      -1.491   1.350  23.955  0.00  0.00    -0.259 N 
ATOM     12  C   UNL     1      -1.563   1.638  23.186  0.00  0.00    +0.117 C 
ATOM     13  C   UNL     1      -2.215   2.098  22.976  0.00  0.00    +0.117 C 
ATOM     14  N   UNL     1      -2.795   2.270  23.538  0.00  0.00    -0.261 N 
ATOM     15  C   UNL     1      -3.494   2.706  23.493  0.00  0.00    +0.308 C 
ATOM     16  O   UNL     1      -3.782   3.093  22.824  0.00  0.00    -0.252 OA
ATOM     17  C   UNL     1      -0.838   0.890  24.163  0.00  0.00    +0.324 C 
ATOM     18  O   UNL     1      -0.766   0.601  24.933  0.00  0.00    -0.251 OA
ATOM     19  N   UNL     1      -0.258   0.718  23.603  0.00  0.00    -0.184 NA
ENDROOT
BRANCH   7   6
ATOM      6  C   UNL     1      -4.565   3.052  24.438  0.00  0.00    +0.122 C 
BRANCH   6   5
ATOM      1  F   UNL     1      -6.627   1.588  26.559  0.00  0.00    -0.204 F 
ATOM      2  C   UNL     1      -6.111   1.953  26.028  0.00  0.00    +0.140 A 
ATOM      3  C   UNL     1      -6.054   1.679  25.253  0.00  0.00    +0.029 A 
ATOM      4  C   UNL     1      -5.538   2.044  24.722  0.00  0.00    -0.000 A 
ATOM      5  C   UNL     1      -5.081   2.685  24.968  0.00  0.00    -0.002 A 
ATOM     27  C   UNL     1      -5.138   2.961  25.744  0.00  0.00    -0.000 A 
ATOM     28  C   UNL     1      -5.654   2.595  26.274  0.00  0.00    +0.029 A 
ENDBRANCH   6   5
ENDBRANCH   7   6
BRANCH  19  20
ATOM     20  C   UNL     1       0.394   0.258  23.811  0.00  0.00    +0.143 C 
BRANCH  20  21
ATOM     21  C   UNL     1       1.031   0.186  23.293  0.00  0.00    -0.001 A 
ATOM     22  C   UNL     1       0.979  -0.318  22.642  0.00  0.00    -0.003 A 
ATOM     23  C   UNL     1       1.616  -0.390  22.123  0.00  0.00    -0.000 A 
ATOM     24  C   UNL     1       2.306   0.043  22.256  0.00  0.00    -0.000 A 
ATOM     25  C   UNL     1       2.359   0.547  22.906  0.00  0.00    -0.000 A 
ATOM     26  C   UNL     1       1.721   0.619  23.425  0.00  0.00    -0.003 A 
ENDBRANCH  20  21
ENDBRANCH  19  20
TORSDOF 4
ENDMDL
MODEL 6
REMARK VINA RESULT:      -8.9      3.156      4.719
REMARK  Name = 
REMARK  4 active torsions:
REMARK  status: ('A' for Active; 'I' for Inactive)
REMARK    1  A    between atoms: C_5  and  C_6
REMARK    2  A    between atoms: C_6  and  N_7
REMARK    3  A    between atoms: N_19  and  C_20
REMARK    4  A    between atoms: C_20  and  C_21
REMARK                            x       y       z     vdW  Elec       q    Type
REMARK                         _______ _______ _______ _____ _____    ______ ____
ROOT
ATOM      7  N   UNL     1       0.193  -0.222  23.670  0.00  0.00    -0.258 N 
ATOM      8  C   UNL     1      -0.095   0.445  23.277  0.00  0.00    +0.117 C 
ATOM      9  C   UNL     1      -0.785   0.686  23.657  0.00  0.00    +0.117 C 
ATOM     10  C   UNL     1      -1.306   1.309  23.514  0.00  0.00    +0.117 C 
ATOM     11  N   UNL     1      -1.965   1.416  23.997  0.00  0.00    -0.259 N 
ATOM     12  C   UNL     1      -2.104   0.900  24.625  0.00  0.00    +0.117 C 
ATOM     13  C   UNL     1      -1.584   0.276  24.769  0.00  0.00    +0.117 C 
ATOM     14  N   UNL     1      -0.924   0.169  24.285  0.00  0.00    -0.261 N 
ATOM     15  C   UNL     1      -0.320  -0.391  24.293  0.00  0.00    +0.308 C 
ATOM     16  O   UNL     1      -0.241  -1.013  24.829  0.00  0.00    -0.252 OA
ATOM     17  C   UNL     1      -2.486   2.040  23.853  0.00  0.00    +0.324 C 
ATOM     18  O   UNL     1      -2.347   2.557  23.226  0.00  0.00    -0.251 OA
ATOM     19  N   UNL     1      -3.145   2.147  24.337  0.00  0.00    -0.184 NA
ENDROOT
BRANCH   7   6
ATOM      6  C   UNL     1       0.875  -0.643  23.473  0.00  0.00    +0.122 C 
BRANCH   6   5
ATOM      1  F   UNL     1       3.382   0.878  21.959  0.00  0.00    -0.204 F 
ATOM      2  C   UNL     1       2.755   0.498  22.339  0.00  0.00    +0.140 A 
ATOM      3  C   UNL     1       2.625   0.619  23.143  0.00  0.00    +0.029 A 
ATOM      4  C   UNL     1       1.998   0.239  23.523  0.00  0.00    -0.000 A 
ATOM      5  C   UNL     1       1.501  -0.263  23.095  0.00  0.00    -0.002 A 
ATOM     27  C   UNL     1       1.632  -0.385  22.289  0.00  0.00    -0.000 A 
ATOM     28  C   UNL     1       2.259  -0.004  21.911  0.00  0.00    +0.029 A 
ENDBRANCH   6   5
ENDBRANCH   7   6
BRANCH  19  20
ATOM     20  C   UNL     1      -3.667   2.771  24.193  0.00  0.00    +0.143 C 
BRANCH  20  21
ATOM     21  C   UNL     1      -4.327   2.876  24.675  0.00  0.00    -0.001 A 
ATOM     22  C   UNL     1      -4.961   2.348  24.628  0.00  0.00    -0.003 A 
ATOM     23  C   UNL     1      -5.621   2.453  25.110  0.00  0.00    -0.000 A 
ATOM     24  C   UNL     1      -5.650   3.086  25.638  0.00  0.00    -0.000 A 
ATOM     25  C   UNL     1      -5.018   3.614  25.686  0.00  0.00    -0.000 A 
ATOM     26  C   UNL     1      -4.356   3.508  25.203  0.00  0.00    -0.003 A 
ENDBRANCH  20  21
ENDBRANCH  19  20
TORSDOF 4
ENDMDL
