MODEL 1
REMARK VINA RESULT:     -10.0      0.000      0.000
REMARK  Name = 
REMARK  5 active torsions:
REMARK  status: ('A' for Active; 'I' for Inactive)
REMARK    1  A    between atoms: N_2  and  C_4
REMARK    2  A    between atoms: C_7  and  C_10
REMARK    3  A    between atoms: C_13  and  C_15
REMARK    4  A    between atoms: N_19  and  C_20
REMARK    5  A    between atoms: C_20  and  C_21
REMARK                            x       y       z     vdW  Elec       q    Type
REMARK                         _______ _______ _______ _____ _____    ______ ____
ROOT
ATOM     10  C   UNL     1      -3.983   0.562  24.849  0.00  0.00    +0.205 A 
ATOM     11  N   UNL     1      -4.532   0.847  25.394  0.00  0.00    -0.056 NA
ATOM     12  O   UNL     1      -4.609   1.660  25.278  0.00  0.00    -0.336 OA
ATOM     13  C   UNL     1      -4.106   1.879  24.661  0.00  0.00    +0.251 A 
ATOM     14  N   UNL     1      -3.719   1.200  24.396  0.00  0.00    -0.190 NA
ENDROOT
BRANCH  10   7
ATOM      4  C   UNL     1      -3.252  -1.791  24.612  0.00  0.00    +0.132 A 
ATOM      5  C   UNL     1      -3.840  -1.491  24.120  0.00  0.00    +0.034 A 
ATOM      6  C   UNL     1      -4.084  -0.706  24.198  0.00  0.00    +0.008 A 
ATOM      7  C   UNL     1      -3.739  -0.222  24.770  0.00  0.00    +0.058 A 
ATOM      8  C   UNL     1      -3.149  -0.523  25.264  0.00  0.00    +0.103 A 
ATOM      9  N   UNL     1      -2.906  -1.307  25.185  0.00  0.00    -0.229 NA
BRANCH   4   2
ATOM      1  C   UNL     1      -2.212  -2.749  24.398  0.00  0.00    +0.114 C 
ATOM      2  N   UNL     1      -3.008  -2.575  24.534  0.00  0.00    -0.290 N 
ATOM      3  C   UNL     1      -3.559  -3.186  24.590  0.00  0.00    +0.114 C 
ENDBRANCH   4   2
ENDBRANCH  10   7
BRANCH  13  15
ATOM     15  C   UNL     1      -4.008   2.641  24.362  0.00  0.00    +0.138 C 
ATOM     16  C   UNL     1      -4.487   3.005  23.799  0.00  0.00    +0.027 C 
ATOM     17  C   UNL     1      -4.188   3.763  23.663  0.00  0.00    +0.019 C 
ATOM     18  C   UNL     1      -3.525   3.865  24.142  0.00  0.00    +0.073 C 
ATOM     19  N   UNL     1      -3.414   3.172  24.575  0.00  0.00    -0.262 NA
BRANCH  19  20
ATOM     20  C   UNL     1      -2.813   3.035  25.123  0.00  0.00    +0.106 C 
BRANCH  20  21
ATOM     21  C   UNL     1      -2.179   3.560  25.180  0.00  0.00    +0.023 A 
ATOM     22  C   UNL     1      -2.198   4.307  25.532  0.00  0.00    +0.004 A 
ATOM     23  C   UNL     1      -1.446   4.639  25.465  0.00  0.00    +0.007 A 
ATOM     24  C   UNL     1      -0.962   4.098  25.072  0.00  0.00    +0.035 A 
ATOM     25  S   UNL     1      -1.415   3.432  24.896  0.00  0.00    -0.089 S 
ENDBRANCH  20  21
ENDBRANCH  19  20
ENDBRANCH  13  15
TORSDOF 5
ENDMDL
MODEL 2
REMARK VINA RESULT:      -9.6      1.945      2.591
REMARK  Name = 
REMARK  5 active torsions:
REMARK  status: ('A' for Active; 'I' for Inactive)
REMARK    1  A    between atoms: N_2  and  C_4
REMARK    2  A    between atoms: C_7  and  C_10
REMARK    3  A    between atoms: C_13  and  C_15
REMARK    4  A    between atoms: N_19  and  C_20
REMARK    5  A    between atoms: C_20  and  C_21
REMARK                            x       y       z     vdW  Elec       q    Type
REMARK                         _______ _______ _______ _____ _____    ______ ____
ROOT
ATOM     10  C   UNL     1      -1.575   0.306  24.581  0.00  0.00    +0.205 A 
ATOM     11  N   UNL     1      -1.108   0.593  23.965  0.00  0.00    -0.056 NA
ATOM     12  O   UNL     1      -0.674   1.234  24.252  0.00  0.00    -0.336 OA
ATOM     13  C   UNL     1      -0.873   1.343  25.045  0.00  0.00    +0.251 A 
ATOM     14  N   UNL     1      -1.431   0.770  25.249  0.00  0.00    -0.190 NA
ENDROOT
BRANCH  10   7
ATOM      4  C   UNL     1      -3.138  -1.609  24.451  0.00  0.00    +0.132 A 
ATOM      5  C   UNL     1      -3.424  -0.838  24.388  0.00  0.00    +0.034 A 
ATOM      6  C   UNL     1      -2.903  -0.200  24.431  0.00  0.00    +0.008 A 
ATOM      7  C   UNL     1      -2.096  -0.332  24.538  0.00  0.00    +0.058 A 
ATOM      8  C   UNL     1      -1.810  -1.104  24.601  0.00  0.00    +0.103 A 
ATOM      9  N   UNL     1      -2.331  -1.742  24.558  0.00  0.00    -0.229 NA
BRANCH   4   2
ATOM      1  C   UNL     1      -3.546  -2.906  24.893  0.00  0.00    +0.114 C 
ATOM      2  N   UNL     1      -3.659  -2.247  24.408  0.00  0.00    -0.290 N 
ATOM      3  C   UNL     1      -4.293  -2.228  23.880  0.00  0.00    +0.114 C 
ENDBRANCH   4   2
ENDBRANCH  10   7
BRANCH  13  15
ATOM     15  C   UNL     1      -0.569   1.923  25.546  0.00  0.00    +0.138 C 
ATOM     16  C   UNL     1      -0.030   1.801  26.157  0.00  0.00    +0.027 C 
ATOM     17  C   UNL     1       0.121   2.530  26.513  0.00  0.00    +0.019 C 
ATOM     18  C   UNL     1      -0.325   3.102  26.121  0.00  0.00    +0.073 C 
ATOM     19  N   UNL     1      -0.752   2.728  25.524  0.00  0.00    -0.262 NA
BRANCH  19  20
ATOM     20  C   UNL     1      -1.270   3.093  24.997  0.00  0.00    +0.106 C 
BRANCH  20  21
ATOM     21  C   UNL     1      -1.439   3.897  25.075  0.00  0.00    +0.023 A 
ATOM     22  C   UNL     1      -0.954   4.521  24.834  0.00  0.00    +0.004 A 
ATOM     23  C   UNL     1      -1.337   5.228  25.019  0.00  0.00    +0.007 A 
ATOM     24  C   UNL     1      -2.059   5.041  25.374  0.00  0.00    +0.035 A 
ATOM     25  S   UNL     1      -2.121   4.220  25.409  0.00  0.00    -0.089 S 
ENDBRANCH  20  21
ENDBRANCH  19  20
ENDBRANCH  13  15
TORSDOF 5
ENDMDL
MODEL 3
REMARK VINA RESULT:      -9.1      2.138      5.573
REMARK  Name = 
REMARK  5 active torsions:
REMARK  status: ('A' for Active; 'I' for Inactive)
REMARK    1  A    between atoms: N_2  and  C_4
REMARK    2  A    between atoms: C_7  and  C_10
REMARK    3  A    between atoms: C_13  and  C_15
REMARK    4  A    between atoms: N_19  and  C_20
REMARK    5  A    between atoms: C_20  and  C_21
REMARK                            x       y       z     vdW  Elec       q    Type
REMARK                         _______ _______ _______ _____ _____    ______ ____
ROOT
ATOM     10  C   UNL     1      -1.272   1.563  24.380  0.00  0.00    +0.205 A 
ATOM     11  N   UNL     1      -1.180   1.308  23.602  0.00  0.00    -0.056 NA
ATOM     12  O   UNL     1      -1.049   0.493  23.614  0.00  0.00    -0.336 OA
ATOM     13  C   UNL     1      -1.060   0.245  24.401  0.00  0.00    +0.251 A 
ATOM     14  N   UNL     1      -1.198   0.906  24.875  0.00  0.00    -0.190 NA
ENDROOT
BRANCH  10   7
ATOM      4  C   UNL     1      -1.697   3.890  25.108  0.00  0.00    +0.132 A 
ATOM      5  C   UNL     1      -0.969   3.536  25.264  0.00  0.00    +0.034 A 
ATOM      6  C   UNL     1      -0.827   2.760  25.022  0.00  0.00    +0.008 A 
ATOM      7  C   UNL     1      -1.414   2.339  24.623  0.00  0.00    +0.058 A 
ATOM      8  C   UNL     1      -2.143   2.694  24.467  0.00  0.00    +0.103 A 
ATOM      9  N   UNL     1      -2.284   3.470  24.709  0.00  0.00    -0.229 NA
BRANCH   4   2
ATOM      1  C   UNL     1      -1.333   5.273  25.109  0.00  0.00    +0.114 C 
ATOM      2  N   UNL     1      -1.838   4.666  25.350  0.00  0.00    -0.290 N 
ATOM      3  C   UNL     1      -2.484   4.836  25.835  0.00  0.00    +0.114 C 
ENDBRANCH   4   2
ENDBRANCH  10   7
BRANCH  13  15
ATOM     15  C   UNL     1      -0.953  -0.528  24.667  0.00  0.00    +0.138 C 
ATOM     16  C   UNL     1      -0.233  -0.873  24.875  0.00  0.00    +0.027 C 
ATOM     17  C   UNL     1      -0.382  -1.650  25.109  0.00  0.00    +0.019 C 
ATOM     18  C   UNL     1      -1.193  -1.785  25.045  0.00  0.00    +0.073 C 
ATOM     19  N   UNL     1      -1.545  -1.092  24.772  0.00  0.00    -0.262 NA
BRANCH  19  20
ATOM     20  C   UNL     1      -2.350  -0.982  24.628  0.00  0.00    +0.106 C 
BRANCH  20  21
ATOM     21  C   UNL     1      -2.873  -1.616  24.708  0.00  0.00    +0.023 A 
ATOM     22  C   UNL     1      -3.072  -2.158  24.118  0.00  0.00    +0.004 A 
ATOM     23  C   UNL     1      -3.610  -2.696  24.437  0.00  0.00    +0.007 A 
ATOM     24  C   UNL     1      -3.745  -2.485  25.223  0.00  0.00    +0.035 A 
ATOM     25  S   UNL     1      -3.290  -1.819  25.391  0.00  0.00    -0.089 S 
ENDBRANCH  20  21
ENDBRANCH  19  20
ENDBRANCH  13  15
TORSDOF 5
ENDMDL
MODEL 4
REMARK VINA RESULT:      -8.7      2.884      3.699
REMARK  Name = 
REMARK  5 active torsions:
REMARK  status: ('A' for Active; 'I' for Inactive)
REMARK    1  A    between atoms: N_2  and  C_4
REMARK    2  A    between atoms: C_7  and  C_10
REMARK    3  A    between atoms: C_13  and  C_15
REMARK    4  A    between atoms: N_19  and  C_20
REMARK    5  A    between atoms: C_20  and  C_21
REMARK                            x       y       z     vdW  Elec       q    Type
REMARK                         _______ _______ _______ _____ _____    ______ ____
ROOT
ATOM     10  C   UNL     1      -1.078   0.245  24.530  0.00  0.00    +0.205 A 
ATOM     11  N   UNL     1      -1.108   0.219  25.354  0.00  0.00    -0.056 NA
ATOM     12  O   UNL     1      -1.896   0.301  25.584  0.00  0.00    -0.336 OA
ATOM     13  C   UNL     1      -2.354   0.378  24.902  0.00  0.00    +0.251 A 
ATOM     14  N   UNL     1      -1.848   0.343  24.250  0.00  0.00    -0.190 NA
ENDROOT
BRANCH  10   7
ATOM      4  C   UNL     1       0.962   0.062  23.141  0.00  0.00    +0.132 A 
ATOM      5  C   UNL     1       0.666   0.804  23.342  0.00  0.00    +0.034 A 
ATOM      6  C   UNL     1      -0.014   0.865  23.805  0.00  0.00    +0.008 A 
ATOM      7  C   UNL     1      -0.398   0.184  24.067  0.00  0.00    +0.058 A 
ATOM      8  C   UNL     1      -0.101  -0.560  23.865  0.00  0.00    +0.103 A 
ATOM      9  N   UNL     1       0.579  -0.621  23.402  0.00  0.00    -0.229 NA
BRANCH   4   2
ATOM      1  C   UNL     1       1.602  -0.346  21.929  0.00  0.00    +0.114 C 
ATOM      2  N   UNL     1       1.642   0.000  22.678  0.00  0.00    -0.290 N 
ATOM      3  C   UNL     1       2.362   0.284  22.962  0.00  0.00    +0.114 C 
ENDBRANCH   4   2
ENDBRANCH  10   7
BRANCH  13  15
ATOM     15  C   UNL     1      -3.173   0.473  24.875  0.00  0.00    +0.138 C 
ATOM     16  C   UNL     1      -3.729  -0.134  24.823  0.00  0.00    +0.027 C 
ATOM     17  C   UNL     1      -4.479   0.209  24.811  0.00  0.00    +0.019 C 
ATOM     18  C   UNL     1      -4.386   1.027  24.856  0.00  0.00    +0.073 C 
ATOM     19  N   UNL     1      -3.579   1.190  24.896  0.00  0.00    -0.262 NA
BRANCH  19  20
ATOM     20  C   UNL     1      -3.238   1.939  24.947  0.00  0.00    +0.106 C 
BRANCH  20  21
ATOM     21  C   UNL     1      -3.704   2.613  24.839  0.00  0.00    +0.023 A 
ATOM     22  C   UNL     1      -3.879   2.970  24.116  0.00  0.00    +0.004 A 
ATOM     23  C   UNL     1      -4.359   3.624  24.264  0.00  0.00    +0.007 A 
ATOM     24  C   UNL     1      -4.480   3.671  25.080  0.00  0.00    +0.035 A 
ATOM     25  S   UNL     1      -4.076   3.046  25.434  0.00  0.00    -0.089 S 
ENDBRANCH  20  21
ENDBRANCH  19  20
ENDBRANCH  13  15
TORSDOF 5
ENDMDL
MODEL 5
REMARK VINA RESULT:      -8.7      1.913      2.727
REMARK  Name = 
REMARK  5 active torsions:
REMARK  status: ('A' for Active; 'I' for Inactive)
REMARK    1  A    between atoms: N_2  and  C_4
REMARK    2  A    between atoms: C_7  and  C_10
REMARK    3  A    between atoms: C_13  and  C_15
REMARK    4  A    between atoms: N_19  and  C_20
REMARK    5  A    between atoms: C_20  and  C_21
REMARK                            x       y       z     vdW  Elec       q    Type
REMARK                         _______ _______ _______ _____ _____    ______ ____
ROOT
ATOM     10  C   UNL     1      -1.561   1.309  24.446  0.00  0.00    +0.205 A 
ATOM     11  N   UNL     1      -1.472   1.731  23.743  0.00  0.00    -0.056 NA
ATOM     12  O   UNL     1      -1.690   2.514  23.885  0.00  0.00    -0.336 OA
ATOM     13  C   UNL     1      -1.914   2.576  24.677  0.00  0.00    +0.251 A 
ATOM     14  N   UNL     1      -1.834   1.832  25.024  0.00  0.00    -0.190 NA
ENDROOT
BRANCH  10   7
ATOM      4  C   UNL     1      -1.091  -1.099  24.769  0.00  0.00    +0.132 A 
ATOM      5  C   UNL     1      -1.834  -0.796  24.957  0.00  0.00    +0.034 A 
ATOM      6  C   UNL     1      -1.991   0.007  24.850  0.00  0.00    +0.008 A 
ATOM      7  C   UNL     1      -1.404   0.506  24.554  0.00  0.00    +0.058 A 
ATOM      8  C   UNL     1      -0.660   0.202  24.365  0.00  0.00    +0.103 A 
ATOM      9  N   UNL     1      -0.504  -0.601  24.473  0.00  0.00    -0.229 NA
BRANCH   4   2
ATOM      1  C   UNL     1      -1.439  -2.469  24.549  0.00  0.00    +0.114 C 
ATOM      2  N   UNL     1      -0.935  -1.902  24.876  0.00  0.00    -0.290 N 
ATOM      3  C   UNL     1      -0.275  -2.140  25.311  0.00  0.00    +0.114 C 
ENDBRANCH   4   2
ENDBRANCH  10   7
BRANCH  13  15
ATOM     15  C   UNL     1      -2.172   3.262  25.055  0.00  0.00    +0.138 C 
ATOM     16  C   UNL     1      -1.693   3.814  25.437  0.00  0.00    +0.027 C 
ATOM     17  C   UNL     1      -2.179   4.410  25.737  0.00  0.00    +0.019 C 
ATOM     18  C   UNL     1      -2.959   4.225  25.539  0.00  0.00    +0.073 C 
ATOM     19  N   UNL     1      -2.954   3.516  25.118  0.00  0.00    -0.262 NA
BRANCH  19  20
ATOM     20  C   UNL     1      -3.616   3.130  24.813  0.00  0.00    +0.106 C 
BRANCH  20  21
ATOM     21  C   UNL     1      -4.362   3.274  25.136  0.00  0.00    +0.023 A 
ATOM     22  C   UNL     1      -4.808   3.962  25.039  0.00  0.00    +0.004 A 
ATOM     23  C   UNL     1      -5.514   3.869  25.454  0.00  0.00    +0.007 A 
ATOM     24  C   UNL     1      -5.505   3.123  25.808  0.00  0.00    +0.035 A 
ATOM     25  S   UNL     1      -4.794   2.756  25.611  0.00  0.00    -0.089 S 
ENDBRANCH  20  21
ENDBRANCH  19  20
ENDBRANCH  13  15
TORSDOF 5
ENDMDL
MODEL 6
REMARK VINA RESULT:      -8.6      1.988      5.117
REMARK  Name = 
REMARK  5 active torsions:
REMARK  status: ('A' for Active; 'I' for Inactive)
REMARK    1  A    between atoms: N_2  and  C_4
REMARK    2  A    between atoms: C_7  and  C_10
REMARK    3  A    between atoms: C_13  and  C_15
REMARK    4  A    between atoms: N_19  and  C_20
REMARK    5  A    between atoms: C_20  and  C_21
REMARK                            x       y       z     vdW  Elec       q    Type
REMARK                         _______ _______ _______ _____ _____    ______ ____
ROOT
ATOM     10  C   UNL     1      -2.740   1.541  24.459  0.00  0.00    +0.205 A 
ATOM     11  N   UNL     1      -2.304   1.569  23.759  0.00  0.00    -0.056 NA
ATOM     12  O   UNL     1      -1.791   0.922  23.752  0.00  0.00    -0.336 OA
ATOM     13  C   UNL     1      -1.910   0.495  24.448  0.00  0.00    +0.251 A 
ATOM     14  N   UNL     1      -2.497   0.877  24.885  0.00  0.00    -0.190 NA
ENDROOT
BRANCH  10   7
ATOM      4  C   UNL     1      -4.474   3.163  25.158  0.00  0.00    +0.132 A 
ATOM      5  C   UNL     1      -4.684   2.502  24.712  0.00  0.00    +0.034 A 
ATOM      6  C   UNL     1      -4.106   1.961  24.479  0.00  0.00    +0.008 A 
ATOM      7  C   UNL     1      -3.318   2.081  24.692  0.00  0.00    +0.058 A 
ATOM      8  C   UNL     1      -3.109   2.743  25.138  0.00  0.00    +0.103 A 
ATOM      9  N   UNL     1      -3.687   3.284  25.371  0.00  0.00    -0.229 NA
BRANCH   4   2
ATOM      1  C   UNL     1      -4.911   4.514  25.323  0.00  0.00    +0.114 C 
ATOM      2  N   UNL     1      -5.052   3.703  25.391  0.00  0.00    -0.290 N 
ATOM      3  C   UNL     1      -5.772   3.435  25.691  0.00  0.00    +0.114 C 
ENDBRANCH   4   2
ENDBRANCH  10   7
BRANCH  13  15
ATOM     15  C   UNL     1      -1.513  -0.194  24.669  0.00  0.00    +0.138 C 
ATOM     16  C   UNL     1      -0.748  -0.235  24.973  0.00  0.00    +0.027 C 
ATOM     17  C   UNL     1      -0.573  -1.029  25.116  0.00  0.00    +0.019 C 
ATOM     18  C   UNL     1      -1.231  -1.477  24.900  0.00  0.00    +0.073 C 
ATOM     19  N   UNL     1      -1.811  -0.961  24.624  0.00  0.00    -0.262 NA
BRANCH  19  20
ATOM     20  C   UNL     1      -2.559  -1.176  24.350  0.00  0.00    +0.106 C 
BRANCH  20  21
ATOM     21  C   UNL     1      -2.889  -1.899  24.575  0.00  0.00    +0.023 A 
ATOM     22  C   UNL     1      -3.331  -2.038  25.258  0.00  0.00    +0.004 A 
ATOM     23  C   UNL     1      -3.550  -2.834  25.262  0.00  0.00    +0.007 A 
ATOM     24  C   UNL     1      -3.242  -3.186  24.582  0.00  0.00    +0.035 A 
ATOM     25  S   UNL     1      -2.834  -2.608  24.158  0.00  0.00    -0.089 S 
ENDBRANCH  20  21
ENDBRANCH  19  20
ENDBRANCH  13  15
TORSDOF 5
ENDMDL
MODEL 7
REMARK VINA RESULT:      -8.5      1.553      5.082
REMARK  Name = 
REMARK  5 active torsions:
REMARK  status: ('A' for Active; 'I' for Inactive)
REMARK    1  A    between atoms: N_2  and  C_4
REMARK    2  A    between atoms: C_7  and  C_10
REMARK    3  A    between atoms: C_13  and  C_15
REMARK    4  A    between atoms: N_19  and  C_20
REMARK    5  A    between atoms: C_20  and  C_21
REMARK                            x       y       z     vdW  Elec       q    Type
REMARK                         _______ _______ _______ _____ _____    ______ ____
ROOT
ATOM     10  C   UNL     1      -2.893   1.977  24.489  0.00  0.00    +0.205 A 
ATOM     11  N   UNL     1      -3.261   1.744  23.789  0.00  0.00    -0.056 NA
ATOM     12  O   UNL     1      -3.498   0.958  23.875  0.00  0.00    -0.336 OA
ATOM     13  C   UNL     1      -3.276   0.705  24.628  0.00  0.00    +0.251 A 
ATOM     14  N   UNL     1      -2.901   1.335  25.008  0.00  0.00    -0.190 NA
ENDROOT
BRANCH  10   7
ATOM      4  C   UNL     1      -1.930   4.209  24.953  0.00  0.00    +0.132 A 
ATOM      5  C   UNL     1      -2.738   4.082  25.049  0.00  0.00    +0.034 A 
ATOM      6  C   UNL     1      -3.059   3.338  24.894  0.00  0.00    +0.008 A 
ATOM      7  C   UNL     1      -2.572   2.721  24.644  0.00  0.00    +0.058 A 
ATOM      8  C   UNL     1      -1.762   2.850  24.548  0.00  0.00    +0.103 A 
ATOM      9  N   UNL     1      -1.441   3.594  24.703  0.00  0.00    -0.229 NA
BRANCH   4   2
ATOM      1  C   UNL     1      -2.095   5.566  25.373  0.00  0.00    +0.114 C 
ATOM      2  N   UNL     1      -1.608   4.953  25.108  0.00  0.00    -0.290 N 
ATOM      3  C   UNL     1      -0.802   5.086  24.998  0.00  0.00    +0.114 C 
ENDBRANCH   4   2
ENDBRANCH  10   7
BRANCH  13  15
ATOM     15  C   UNL     1      -3.404  -0.045  24.945  0.00  0.00    +0.138 C 
ATOM     16  C   UNL     1      -4.075  -0.286  25.359  0.00  0.00    +0.027 C 
ATOM     17  C   UNL     1      -3.970  -1.076  25.575  0.00  0.00    +0.019 C 
ATOM     18  C   UNL     1      -3.235  -1.322  25.293  0.00  0.00    +0.073 C 
ATOM     19  N   UNL     1      -2.885  -0.684  24.904  0.00  0.00    -0.262 NA
BRANCH  19  20
ATOM     20  C   UNL     1      -2.146  -0.687  24.539  0.00  0.00    +0.106 C 
BRANCH  20  21
ATOM     21  C   UNL     1      -1.628  -1.317  24.661  0.00  0.00    +0.023 A 
ATOM     22  C   UNL     1      -1.715  -2.082  24.361  0.00  0.00    +0.004 A 
ATOM     23  C   UNL     1      -1.073  -2.531  24.619  0.00  0.00    +0.007 A 
ATOM     24  C   UNL     1      -0.589  -2.044  25.077  0.00  0.00    +0.035 A 
ATOM     25  S   UNL     1      -0.931  -1.295  25.103  0.00  0.00    -0.089 S 
ENDBRANCH  20  21
ENDBRANCH  19  20
ENDBRANCH  13  15
TORSDOF 5
ENDMDL
