MODEL 1
REMARK VINA RESULT:     -12.3      0.000      0.000
REMARK  Name = 
REMARK  4 active torsions:
REMARK  status: ('A' for Active; 'I' for Inactive)
REMARK    1  A    between atoms: O_2  and  C_3
REMARK    2  A    between atoms: C_6  and  C_9
REMARK    3  A    between atoms: C_12  and  C_14
REMARK    4  A    between atoms: N_19  and  C_20
REMARK                            x       y       z     vdW  Elec       q    Type
REMARK                         _______ _______ _______ _____ _____    ______ ____
ROOT
ATOM     14  C   UNL     1      -4.459   2.501  24.996  0.00  0.00    +0.140 C 
ATOM     15  C   UNL     1      -5.232   2.739  25.159  0.00  0.00    +0.060 C 
ATOM     16  C   UNL     1      -5.201   3.497  25.484  0.00  0.00    +0.170 C 
ATOM     17  O   UNL     1      -5.848   3.946  25.729  0.00  0.00    -0.222 OA
ATOM     18  C   UNL     1      -4.410   3.726  25.522  0.00  0.00    +0.106 C 
ATOM     19  N   UNL     1      -3.951   3.111  25.221  0.00  0.00    -0.265 NA
ENDROOT
BRANCH  19  20
ATOM     20  C   UNL     1      -3.129   3.106  25.155  0.00  0.00    +0.061 C 
ATOM     21  C   UNL     1      -2.666   2.873  25.798  0.00  0.00    +0.038 C 
ATOM     22  C   UNL     1      -1.843   2.867  25.733  0.00  0.00    +0.095 C 
ATOM     23  N   UNL     1      -1.484   3.094  25.025  0.00  0.00    -0.279 N 
ATOM     24  C   UNL     1      -1.946   3.326  24.383  0.00  0.00    +0.095 C 
ATOM     25  C   UNL     1      -2.769   3.332  24.449  0.00  0.00    +0.038 C 
ATOM     26  C   UNL     1      -0.661   3.087  24.960  0.00  0.00    +0.226 C 
ATOM     27  C   UNL     1      -0.198   2.855  25.602  0.00  0.00    +0.095 C 
ATOM     28  O   UNL     1      -0.301   3.314  24.253  0.00  0.00    -0.275 OA
ENDBRANCH  19  20
BRANCH  14  12
ATOM      9  C   UNL     1      -3.953   0.483  24.519  0.00  0.00    +0.203 A 
ATOM     10  N   UNL     1      -3.816   0.857  23.797  0.00  0.00    -0.056 NA
ATOM     11  O   UNL     1      -3.989   1.657  23.887  0.00  0.00    -0.336 OA
ATOM     12  C   UNL     1      -4.233   1.779  24.667  0.00  0.00    +0.251 A 
ATOM     13  N   UNL     1      -4.210   1.053  25.056  0.00  0.00    -0.190 NA
BRANCH   9   6
ATOM      3  C   UNL     1      -3.643  -1.927  24.991  0.00  0.00    +0.139 A 
ATOM      4  C   UNL     1      -3.374  -1.364  25.530  0.00  0.00    +0.037 A 
ATOM      5  C   UNL     1      -3.477  -0.561  25.372  0.00  0.00    +0.006 A 
ATOM      6  C   UNL     1      -3.849  -0.321  24.676  0.00  0.00    +0.039 A 
ATOM      7  C   UNL     1      -4.119  -0.885  24.137  0.00  0.00    +0.006 A 
ATOM      8  C   UNL     1      -4.016  -1.688  24.295  0.00  0.00    +0.037 A 
BRANCH   3   2
ATOM      1  C   UNL     1      -3.283  -3.239  24.551  0.00  0.00    +0.252 C 
ATOM      2  O   UNL     1      -3.540  -2.730  25.149  0.00  0.00    -0.471 OA
ENDBRANCH   3   2
ENDBRANCH   9   6
ENDBRANCH  14  12
TORSDOF 4
ENDMDL
MODEL 2
REMARK VINA RESULT:     -11.5      1.486      3.971
REMARK  Name = 
REMARK  4 active torsions:
REMARK  status: ('A' for Active; 'I' for Inactive)
REMARK    1  A    between atoms: O_2  and  C_3
REMARK    2  A    between atoms: C_6  and  C_9
REMARK    3  A    between atoms: C_12  and  C_14
REMARK    4  A    between atoms: N_19  and  C_20
REMARK                            x       y       z     vdW  Elec       q    Type
REMARK                         _______ _______ _______ _____ _____    ______ ____
ROOT
ATOM     14  C   UNL     1      -2.614  -0.697  24.506  0.00  0.00    +0.140 C 
ATOM     15  C   UNL     1      -2.878  -1.478  24.499  0.00  0.00    +0.060 C 
ATOM     16  C   UNL     1      -2.251  -1.962  24.731  0.00  0.00    +0.170 C 
ATOM     17  O   UNL     1      -2.272  -2.784  24.799  0.00  0.00    -0.222 OA
ATOM     18  C   UNL     1      -1.599  -1.479  24.881  0.00  0.00    +0.106 C 
ATOM     19  N   UNL     1      -1.822  -0.698  24.743  0.00  0.00    -0.265 NA
ENDROOT
BRANCH  19  20
ATOM     20  C   UNL     1      -1.341  -0.033  24.826  0.00  0.00    +0.061 C 
ATOM     21  C   UNL     1      -1.294   0.352  25.554  0.00  0.00    +0.038 C 
ATOM     22  C   UNL     1      -0.813   1.018  25.638  0.00  0.00    +0.095 C 
ATOM     23  N   UNL     1      -0.379   1.297  24.994  0.00  0.00    -0.279 N 
ATOM     24  C   UNL     1      -0.427   0.912  24.267  0.00  0.00    +0.095 C 
ATOM     25  C   UNL     1      -0.908   0.246  24.183  0.00  0.00    +0.038 C 
ATOM     26  C   UNL     1       0.101   1.962  25.078  0.00  0.00    +0.226 C 
ATOM     27  C   UNL     1       0.149   2.348  25.806  0.00  0.00    +0.095 C 
ATOM     28  O   UNL     1       0.535   2.242  24.435  0.00  0.00    -0.275 OA
ENDBRANCH  19  20
BRANCH  14  12
ATOM      9  C   UNL     1      -3.871   1.024  24.403  0.00  0.00    +0.203 A 
ATOM     10  N   UNL     1      -3.621   0.962  23.620  0.00  0.00    -0.056 NA
ATOM     11  O   UNL     1      -3.120   0.310  23.563  0.00  0.00    -0.336 OA
ATOM     12  C   UNL     1      -3.060  -0.031  24.312  0.00  0.00    +0.251 A 
ATOM     13  N   UNL     1      -3.525   0.410  24.830  0.00  0.00    -0.190 NA
BRANCH   9   6
ATOM      3  C   UNL     1      -5.396   2.750  25.311  0.00  0.00    +0.139 A 
ATOM      4  C   UNL     1      -4.665   2.969  24.999  0.00  0.00    +0.037 A 
ATOM      5  C   UNL     1      -4.157   2.394  24.697  0.00  0.00    +0.006 A 
ATOM      6  C   UNL     1      -4.380   1.599  24.705  0.00  0.00    +0.039 A 
ATOM      7  C   UNL     1      -5.112   1.381  25.017  0.00  0.00    +0.006 A 
ATOM      8  C   UNL     1      -5.620   1.956  25.320  0.00  0.00    +0.037 A 
BRANCH   3   2
ATOM      1  C   UNL     1      -5.669   4.116  25.630  0.00  0.00    +0.252 C 
ATOM      2  O   UNL     1      -5.904   3.325  25.613  0.00  0.00    -0.471 OA
ENDBRANCH   3   2
ENDBRANCH   9   6
ENDBRANCH  14  12
TORSDOF 4
ENDMDL
MODEL 3
REMARK VINA RESULT:     -11.1      1.453      4.089
REMARK  Name = 
REMARK  4 active torsions:
REMARK  status: ('A' for Active; 'I' for Inactive)
REMARK    1  A    between atoms: O_2  and  C_3
REMARK    2  A    between atoms: C_6  and  C_9
REMARK    3  A    between atoms: C_12  and  C_14
REMARK    4  A    between atoms: N_19  and  C_20
REMARK                            x       y       z     vdW  Elec       q    Type
REMARK                         _______ _______ _______ _____ _____    ______ ____
ROOT
ATOM     14  C   UNL     1      -4.175   1.621  24.671  0.00  0.00    +0.140 C 
ATOM     15  C   UNL     1      -4.594   2.296  24.888  0.00  0.00    +0.060 C 
ATOM     16  C   UNL     1      -5.265   2.056  25.306  0.00  0.00    +0.170 C 
ATOM     17  O   UNL     1      -5.840   2.553  25.627  0.00  0.00    -0.222 OA
ATOM     18  C   UNL     1      -5.258   1.232  25.346  0.00  0.00    +0.106 C 
ATOM     19  N   UNL     1      -4.585   0.962  24.954  0.00  0.00    -0.265 NA
ENDROOT
BRANCH  19  20
ATOM     20  C   UNL     1      -4.360   0.174  24.860  0.00  0.00    +0.061 C 
ATOM     21  C   UNL     1      -3.929  -0.203  25.454  0.00  0.00    +0.038 C 
ATOM     22  C   UNL     1      -3.703  -0.992  25.361  0.00  0.00    +0.095 C 
ATOM     23  N   UNL     1      -3.908  -1.402  24.675  0.00  0.00    -0.279 N 
ATOM     24  C   UNL     1      -4.339  -1.024  24.082  0.00  0.00    +0.095 C 
ATOM     25  C   UNL     1      -4.565  -0.235  24.175  0.00  0.00    +0.038 C 
ATOM     26  C   UNL     1      -3.683  -2.190  24.583  0.00  0.00    +0.226 C 
ATOM     27  C   UNL     1      -3.252  -2.568  25.176  0.00  0.00    +0.095 C 
ATOM     28  O   UNL     1      -3.888  -2.600  23.897  0.00  0.00    -0.275 OA
ENDBRANCH  19  20
BRANCH  14  12
ATOM      9  C   UNL     1      -2.169   1.607  23.939  0.00  0.00    +0.203 A 
ATOM     10  N   UNL     1      -2.596   1.550  23.236  0.00  0.00    -0.056 NA
ATOM     11  O   UNL     1      -3.399   1.549  23.423  0.00  0.00    -0.336 OA
ATOM     12  C   UNL     1      -3.468   1.604  24.245  0.00  0.00    +0.251 A 
ATOM     13  N   UNL     1      -2.709   1.640  24.562  0.00  0.00    -0.190 NA
BRANCH   9   6
ATOM      3  C   UNL     1       0.297   1.666  24.144  0.00  0.00    +0.139 A 
ATOM      4  C   UNL     1      -0.084   0.961  23.949  0.00  0.00    +0.037 A 
ATOM      5  C   UNL     1      -0.906   0.942  23.880  0.00  0.00    +0.006 A 
ATOM      6  C   UNL     1      -1.347   1.627  24.007  0.00  0.00    +0.039 A 
ATOM      7  C   UNL     1      -0.966   2.332  24.203  0.00  0.00    +0.006 A 
ATOM      8  C   UNL     1      -0.144   2.352  24.272  0.00  0.00    +0.037 A 
BRANCH   3   2
ATOM      1  C   UNL     1       1.588   1.290  23.661  0.00  0.00    +0.252 C 
ATOM      2  O   UNL     1       1.118   1.686  24.212  0.00  0.00    -0.471 OA
ENDBRANCH   3   2
ENDBRANCH   9   6
ENDBRANCH  14  12
TORSDOF 4
ENDMDL
MODEL 4
REMARK VINA RESULT:     -11.0      1.602      3.287
REMARK  Name = 
REMARK  4 active torsions:
REMARK  status: ('A' for Active; 'I' for Inactive)
REMARK    1  A    between atoms: O_2  and  C_3
REMARK    2  A    between atoms: C_6  and  C_9
REMARK    3  A    between atoms: C_12  and  C_14
REMARK    4  A    between atoms: N_19  and  C_20
REMARK                            x       y       z     vdW  Elec       q    Type
REMARK                         _______ _______ _______ _____ _____    ______ ____
ROOT
ATOM     14  C   UNL     1      -0.526   1.231  24.722  0.00  0.00    +0.140 C 
ATOM     15  C   UNL     1       0.259   1.131  24.492  0.00  0.00    +0.060 C 
ATOM     16  C   UNL     1       0.533   1.854  24.200  0.00  0.00    +0.170 C 
ATOM     17  O   UNL     1       1.290   2.003  23.910  0.00  0.00    -0.222 OA
ATOM     18  C   UNL     1      -0.083   2.399  24.251  0.00  0.00    +0.106 C 
ATOM     19  N   UNL     1      -0.738   2.016  24.573  0.00  0.00    -0.265 NA
ENDROOT
BRANCH  19  20
ATOM     20  C   UNL     1      -1.476   2.354  24.721  0.00  0.00    +0.061 C 
ATOM     21  C   UNL     1      -2.055   2.351  24.134  0.00  0.00    +0.038 C 
ATOM     22  C   UNL     1      -2.794   2.689  24.281  0.00  0.00    +0.095 C 
ATOM     23  N   UNL     1      -2.951   3.031  25.016  0.00  0.00    -0.279 N 
ATOM     24  C   UNL     1      -2.372   3.034  25.602  0.00  0.00    +0.095 C 
ATOM     25  C   UNL     1      -1.634   2.696  25.455  0.00  0.00    +0.038 C 
ATOM     26  C   UNL     1      -3.689   3.369  25.163  0.00  0.00    +0.226 C 
ATOM     27  C   UNL     1      -4.270   3.366  24.576  0.00  0.00    +0.095 C 
ATOM     28  O   UNL     1      -3.848   3.711  25.897  0.00  0.00    -0.275 OA
ENDBRANCH  19  20
BRANCH  14  12
ATOM      9  C   UNL     1      -1.865  -0.372  25.164  0.00  0.00    +0.203 A 
ATOM     10  N   UNL     1      -1.670  -0.112  25.922  0.00  0.00    -0.056 NA
ATOM     11  O   UNL     1      -1.145   0.519  25.849  0.00  0.00    -0.336 OA
ATOM     12  C   UNL     1      -1.015   0.651  25.044  0.00  0.00    +0.251 A 
ATOM     13  N   UNL     1      -1.460   0.100  24.622  0.00  0.00    -0.190 NA
BRANCH   9   6
ATOM      3  C   UNL     1      -3.395  -2.237  24.611  0.00  0.00    +0.139 A 
ATOM      4  C   UNL     1      -3.701  -1.501  24.819  0.00  0.00    +0.037 A 
ATOM      5  C   UNL     1      -3.191  -0.879  25.004  0.00  0.00    +0.006 A 
ATOM      6  C   UNL     1      -2.375  -0.993  24.980  0.00  0.00    +0.039 A 
ATOM      7  C   UNL     1      -2.068  -1.731  24.771  0.00  0.00    +0.006 A 
ATOM      8  C   UNL     1      -2.578  -2.353  24.587  0.00  0.00    +0.037 A 
BRANCH   3   2
ATOM      1  C   UNL     1      -4.365  -2.827  23.742  0.00  0.00    +0.252 C 
ATOM      2  O   UNL     1      -3.905  -2.859  24.427  0.00  0.00    -0.471 OA
ENDBRANCH   3   2
ENDBRANCH   9   6
ENDBRANCH  14  12
TORSDOF 4
ENDMDL
MODEL 5
REMARK VINA RESULT:     -11.0      1.810      3.460
REMARK  Name = 
REMARK  4 active torsions:
REMARK  status: ('A' for Active; 'I' for Inactive)
REMARK    1  A    between atoms: O_2  and  C_3
REMARK    2  A    between atoms: C_6  and  C_9
REMARK    3  A    between atoms: C_12  and  C_14
REMARK    4  A    between atoms: N_19  and  C_20
REMARK                            x       y       z     vdW  Elec       q    Type
REMARK                         _______ _______ _______ _____ _____    ______ ____
ROOT
ATOM     14  C   UNL     1      -1.258   3.728  25.242  0.00  0.00    +0.140 C 
ATOM     15  C   UNL     1      -0.636   4.244  25.077  0.00  0.00    +0.060 C 
ATOM     16  C   UNL     1      -0.959   4.978  24.881  0.00  0.00    +0.170 C 
ATOM     17  O   UNL     1      -0.535   5.655  24.677  0.00  0.00    -0.222 OA
ATOM     18  C   UNL     1      -1.780   4.914  24.925  0.00  0.00    +0.106 C 
ATOM     19  N   UNL     1      -1.966   4.143  25.148  0.00  0.00    -0.265 NA
ENDROOT
BRANCH  19  20
ATOM     20  C   UNL     1      -2.724   3.837  25.258  0.00  0.00    +0.061 C 
ATOM     21  C   UNL     1      -3.119   3.480  24.627  0.00  0.00    +0.038 C 
ATOM     22  C   UNL     1      -3.878   3.174  24.737  0.00  0.00    +0.095 C 
ATOM     23  N   UNL     1      -4.241   3.226  25.476  0.00  0.00    -0.279 N 
ATOM     24  C   UNL     1      -3.846   3.583  26.106  0.00  0.00    +0.095 C 
ATOM     25  C   UNL     1      -3.087   3.888  25.997  0.00  0.00    +0.038 C 
ATOM     26  C   UNL     1      -4.999   2.920  25.585  0.00  0.00    +0.226 C 
ATOM     27  C   UNL     1      -5.395   2.563  24.955  0.00  0.00    +0.095 C 
ATOM     28  O   UNL     1      -5.363   2.971  26.324  0.00  0.00    -0.275 OA
ENDBRANCH  19  20
BRANCH  14  12
ATOM      9  C   UNL     1      -1.101   1.606  25.409  0.00  0.00    +0.203 A 
ATOM     10  N   UNL     1      -1.051   1.832  26.200  0.00  0.00    -0.056 NA
ATOM     11  O   UNL     1      -1.104   2.654  26.235  0.00  0.00    -0.336 OA
ATOM     12  C   UNL     1      -1.186   2.937  25.463  0.00  0.00    +0.251 A 
ATOM     13  N   UNL     1      -1.185   2.289  24.954  0.00  0.00    -0.190 NA
BRANCH   9   6
ATOM      3  C   UNL     1      -1.016  -0.714  24.551  0.00  0.00    +0.139 A 
ATOM      4  C   UNL     1      -1.601  -0.495  25.088  0.00  0.00    +0.037 A 
ATOM      5  C   UNL     1      -1.630   0.279  25.374  0.00  0.00    +0.006 A 
ATOM      6  C   UNL     1      -1.073   0.833  25.123  0.00  0.00    +0.039 A 
ATOM      7  C   UNL     1      -0.486   0.613  24.585  0.00  0.00    +0.006 A 
ATOM      8  C   UNL     1      -0.458  -0.161  24.299  0.00  0.00    +0.037 A 
BRANCH   3   2
ATOM      1  C   UNL     1      -1.449  -2.075  24.616  0.00  0.00    +0.252 C 
ATOM      2  O   UNL     1      -0.987  -1.487  24.265  0.00  0.00    -0.471 OA
ENDBRANCH   3   2
ENDBRANCH   9   6
ENDBRANCH  14  12
TORSDOF 4
ENDMDL
MODEL 6
REMARK VINA RESULT:     -10.9      1.567      4.705
REMARK  Name = 
REMARK  4 active torsions:
REMARK  status: ('A' for Active; 'I' for Inactive)
REMARK    1  A    between atoms: O_2  and  C_3
REMARK    2  A    between atoms: C_6  and  C_9
REMARK    3  A    between atoms: C_12  and  C_14
REMARK    4  A    between atoms: N_19  and  C_20
REMARK                            x       y       z     vdW  Elec       q    Type
REMARK                         _______ _______ _______ _____ _____    ______ ____
ROOT
ATOM     14  C   UNL     1      -1.471   1.164  24.152  0.00  0.00    +0.140 C 
ATOM     15  C   UNL     1      -0.787   1.602  24.011  0.00  0.00    +0.060 C 
ATOM     16  C   UNL     1      -0.137   1.119  24.174  0.00  0.00    +0.170 C 
ATOM     17  O   UNL     1       0.656   1.335  24.107  0.00  0.00    -0.222 OA
ATOM     18  C   UNL     1      -0.421   0.383  24.416  0.00  0.00    +0.106 C 
ATOM     19  N   UNL     1      -1.244   0.410  24.403  0.00  0.00    -0.265 NA
ENDROOT
BRANCH  19  20
ATOM     20  C   UNL     1      -1.754  -0.207  24.604  0.00  0.00    +0.061 C 
ATOM     21  C   UNL     1      -2.020  -0.727  24.021  0.00  0.00    +0.038 C 
ATOM     22  C   UNL     1      -2.530  -1.344  24.222  0.00  0.00    +0.095 C 
ATOM     23  N   UNL     1      -2.774  -1.441  25.005  0.00  0.00    -0.279 N 
ATOM     24  C   UNL     1      -2.507  -0.921  25.586  0.00  0.00    +0.095 C 
ATOM     25  C   UNL     1      -1.997  -0.303  25.386  0.00  0.00    +0.038 C 
ATOM     26  C   UNL     1      -3.283  -2.058  25.205  0.00  0.00    +0.226 C 
ATOM     27  C   UNL     1      -3.550  -2.579  24.623  0.00  0.00    +0.095 C 
ATOM     28  O   UNL     1      -3.527  -2.155  25.987  0.00  0.00    -0.275 OA
ENDBRANCH  19  20
BRANCH  14  12
ATOM      9  C   UNL     1      -3.430   1.999  24.297  0.00  0.00    +0.203 A 
ATOM     10  N   UNL     1      -3.447   1.681  23.536  0.00  0.00    -0.056 NA
ATOM     11  O   UNL     1      -2.716   1.330  23.389  0.00  0.00    -0.336 OA
ATOM     12  C   UNL     1      -2.246   1.430  24.060  0.00  0.00    +0.251 A 
ATOM     13  N   UNL     1      -2.688   1.844  24.620  0.00  0.00    -0.190 NA
BRANCH   9   6
ATOM      3  C   UNL     1      -5.281   3.205  25.413  0.00  0.00    +0.139 A 
ATOM      4  C   UNL     1      -4.570   3.593  25.259  0.00  0.00    +0.037 A 
ATOM      5  C   UNL     1      -3.953   3.191  24.887  0.00  0.00    +0.006 A 
ATOM      6  C   UNL     1      -4.047   2.401  24.669  0.00  0.00    +0.039 A 
ATOM      7  C   UNL     1      -4.759   2.013  24.823  0.00  0.00    +0.006 A 
ATOM      8  C   UNL     1      -5.376   2.415  25.195  0.00  0.00    +0.037 A 
BRANCH   3   2
ATOM      1  C   UNL     1      -6.002   4.416  25.654  0.00  0.00    +0.252 C 
ATOM      2  O   UNL     1      -5.898   3.608  25.784  0.00  0.00    -0.471 OA
ENDBRANCH   3   2
ENDBRANCH   9   6
ENDBRANCH  14  12
TORSDOF 4
ENDMDL
