MODEL 1
REMARK VINA RESULT:     -10.5      0.000      0.000
REMARK  Name = 
REMARK  10 active torsions:
REMARK  status: ('A' for Active; 'I' for Inactive)
REMARK    1  A    between atoms: O_2  and  C_3
REMARK    2  A    between atoms: C_3  and  C_4
REMARK    3  A    between atoms: C_4  and  N_5
REMARK    4  A    between atoms: C_6  and  C_8
REMARK    5  A    between atoms: C_8  and  C_9
REMARK    6  A    between atoms: C_11  and  C_12
REMARK    7  A    between atoms: C_15  and  C_16
REMARK    8  A    between atoms: C_16  and  N_17
REMARK    9  A    between atoms: N_17  and  S_18
REMARK   10  A    between atoms: S_18  and  C_21
REMARK                            x       y       z     vdW  Elec       q    Type
REMARK                         _______ _______ _______ _____ _____    ______ ____
ROOT
ATOM      9  C   UNL     1      -3.938   2.910  24.906  0.00  0.00    +0.027 C 
ATOM     10  C   UNL     1      -3.300   2.649  24.452  0.00  0.00    +0.005 C 
ATOM     11  C   UNL     1      -3.243   1.855  24.238  0.00  0.00    +0.006 C 
ATOM     15  C   UNL     1      -3.824   1.320  24.479  0.00  0.00    +0.041 C 
ATOM     27  C   UNL     1      -4.461   1.580  24.933  0.00  0.00    -0.033 C 
ATOM     28  C   UNL     1      -4.519   2.374  25.147  0.00  0.00    -0.048 C 
ATOM     29  C   UNL     1      -5.156   2.635  25.602  0.00  0.00    +0.026 C 
ENDROOT
BRANCH  11  12
ATOM     12  C   UNL     1      -2.605   1.594  23.784  0.00  0.00    +0.000 C 
ATOM     13  C   UNL     1      -1.914   1.337  24.151  0.00  0.00    +0.000 C 
ATOM     14  C   UNL     1      -2.660   1.591  22.961  0.00  0.00    +0.000 C 
ENDBRANCH  11  12
BRANCH   9   8
ATOM      8  C   UNL     1      -3.995   3.704  25.120  0.00  0.00    +0.091 C 
BRANCH   8   6
ATOM      5  N   UNL     1      -2.842   4.547  25.089  0.00  0.00    -0.203 NA
ATOM      6  C   UNL     1      -3.369   4.073  25.510  0.00  0.00    +0.242 C 
ATOM      7  O   UNL     1      -3.270   3.969  26.323  0.00  0.00    -0.273 OA
BRANCH   5   4
ATOM      4  C   UNL     1      -2.215   4.916  25.479  0.00  0.00    +0.147 C 
BRANCH   4   3
ATOM      3  C   UNL     1      -1.632   5.306  25.047  0.00  0.00    +0.166 C 
BRANCH   3   2
ATOM      1  C   UNL     1      -0.333   4.977  24.549  0.00  0.00    +0.174 C 
ATOM      2  O   UNL     1      -0.835   5.139  25.182  0.00  0.00    -0.349 OA
ENDBRANCH   3   2
ENDBRANCH   4   3
ENDBRANCH   5   4
ENDBRANCH   8   6
ENDBRANCH   9   8
BRANCH  15  16
ATOM     16  C   UNL     1      -3.766   0.525  24.265  0.00  0.00    +0.120 C 
BRANCH  16  17
ATOM     17  N   UNL     1      -4.279  -0.030  24.594  0.00  0.00    -0.077 NA
BRANCH  17  18
ATOM     18  S   UNL     1      -4.107  -0.835  24.542  0.00  0.00    +0.077 S 
ATOM     19  O   UNL     1      -4.367  -0.839  23.759  0.00  0.00    -0.152 OA
ATOM     20  O   UNL     1      -3.846  -0.830  25.325  0.00  0.00    -0.152 OA
BRANCH  18  21
ATOM     21  C   UNL     1      -3.934  -1.640  24.489  0.00  0.00    +0.124 A 
ATOM     22  C   UNL     1      -4.235  -2.086  23.864  0.00  0.00    +0.020 A 
ATOM     23  C   UNL     1      -4.062  -2.891  23.811  0.00  0.00    +0.001 A 
ATOM     24  C   UNL     1      -3.589  -3.250  24.383  0.00  0.00    +0.000 A 
ATOM     25  C   UNL     1      -3.288  -2.803  25.009  0.00  0.00    +0.001 A 
ATOM     26  C   UNL     1      -3.461  -1.998  25.061  0.00  0.00    +0.020 A 
ENDBRANCH  18  21
ENDBRANCH  17  18
ENDBRANCH  16  17
ENDBRANCH  15  16
TORSDOF 10
ENDMDL
MODEL 2
REMARK VINA RESULT:      -9.5      1.438      5.413
REMARK  Name = 
REMARK  10 active torsions:
REMARK  status: ('A' for Active; 'I' for Inactive)
REMARK    1  A    between atoms: O_2  and  C_3
REMARK    2  A    between atoms: C_3  and  C_4
REMARK    3  A    between atoms: C_4  and  N_5
REMARK    4  A    between atoms: C_6  and  C_8
REMARK    5  A    between atoms: C_8  and  C_9
REMARK    6  A    between atoms: C_11  and  C_12
REMARK    7  A    between atoms: C_15  and  C_16
REMARK    8  A    between atoms: C_16  and  N_17
REMARK    9  A    between atoms: N_17  and  S_18
REMARK   10  A    between atoms: S_18  and  C_21
REMARK                            x       y       z     vdW  Elec       q    Type
REMARK                         _______ _______ _______ _____ _____    ______ ____
ROOT
ATOM      9  C   UNL     1      -4.137   0.244  24.387  0.00  0.00    +0.027 C 
ATOM     10  C   UNL     1      -3.561   0.382  23.812  0.00  0.00    +0.005 C 
ATOM     11  C   UNL     1      -3.149   1.096  23.802  0.00  0.00    +0.006 C 
ATOM     15  C   UNL     1      -3.313   1.675  24.368  0.00  0.00    +0.041 C 
ATOM     27  C   UNL     1      -3.888   1.538  24.943  0.00  0.00    -0.033 C 
ATOM     28  C   UNL     1      -4.300   0.823  24.953  0.00  0.00    -0.048 C 
ATOM     29  C   UNL     1      -4.876   0.686  25.527  0.00  0.00    +0.026 C 
ENDROOT
BRANCH  11  12
ATOM     12  C   UNL     1      -2.573   1.233  23.228  0.00  0.00    +0.000 C 
ATOM     13  C   UNL     1      -2.771   1.626  22.530  0.00  0.00    +0.000 C 
ATOM     14  C   UNL     1      -1.798   0.977  23.351  0.00  0.00    +0.000 C 
ENDBRANCH  11  12
BRANCH   9   8
ATOM      8  C   UNL     1      -4.548  -0.470  24.396  0.00  0.00    +0.091 C 
BRANCH   8   6
ATOM      5  N   UNL     1      -3.720  -1.601  24.674  0.00  0.00    -0.203 NA
ATOM      6  C   UNL     1      -4.178  -1.164  24.146  0.00  0.00    +0.242 C 
ATOM      7  O   UNL     1      -4.267  -1.420  23.366  0.00  0.00    -0.273 OA
BRANCH   5   4
ATOM      4  C   UNL     1      -3.350  -2.295  24.425  0.00  0.00    +0.147 C 
BRANCH   4   3
ATOM      3  C   UNL     1      -2.718  -2.603  24.854  0.00  0.00    +0.166 C 
BRANCH   3   2
ATOM      1  C   UNL     1      -1.290  -2.578  24.798  0.00  0.00    +0.174 C 
ATOM      2  O   UNL     1      -2.014  -2.798  24.470  0.00  0.00    -0.349 OA
ENDBRANCH   3   2
ENDBRANCH   4   3
ENDBRANCH   5   4
ENDBRANCH   8   6
ENDBRANCH   9   8
BRANCH  15  16
ATOM     16  C   UNL     1      -2.900   2.389  24.358  0.00  0.00    +0.120 C 
BRANCH  16  17
ATOM     17  N   UNL     1      -2.898   2.874  25.025  0.00  0.00    -0.077 NA
BRANCH  17  18
ATOM     18  S   UNL     1      -2.434   3.556  25.038  0.00  0.00    +0.077 S 
ATOM     19  O   UNL     1      -1.852   3.152  25.460  0.00  0.00    -0.152 OA
ATOM     20  O   UNL     1      -3.017   3.960  24.617  0.00  0.00    -0.152 OA
BRANCH  18  21
ATOM     21  C   UNL     1      -1.971   4.238  25.052  0.00  0.00    +0.124 A 
ATOM     22  C   UNL     1      -1.157   4.186  24.928  0.00  0.00    +0.020 A 
ATOM     23  C   UNL     1      -0.693   4.869  24.942  0.00  0.00    +0.001 A 
ATOM     24  C   UNL     1      -1.044   5.603  25.079  0.00  0.00    +0.000 A 
ATOM     25  C   UNL     1      -1.858   5.655  25.202  0.00  0.00    +0.001 A 
ATOM     26  C   UNL     1      -2.321   4.972  25.189  0.00  0.00    +0.020 A 
ENDBRANCH  18  21
ENDBRANCH  17  18
ENDBRANCH  16  17
ENDBRANCH  15  16
TORSDOF 10
ENDMDL
MODEL 3
REMARK VINA RESULT:      -9.2      2.953      4.745
REMARK  Name = 
REMARK  10 active torsions:
REMARK  status: ('A' for Active; 'I' for Inactive)
REMARK    1  A    between atoms: O_2  and  C_3
REMARK    2  A    between atoms: C_3  and  C_4
REMARK    3  A    between atoms: C_4  and  N_5
REMARK    4  A    between atoms: C_6  and  C_8
REMARK    5  A    between atoms: C_8  and  C_9
REMARK    6  A    between atoms: C_11  and  C_12
REMARK    7  A    between atoms: C_15  and  C_16
REMARK    8  A    between atoms: C_16  and  N_17
REMARK    9  A    between atoms: N_17  and  S_18
REMARK   10  A    between atoms: S_18  and  C_21
REMARK                            x       y       z     vdW  Elec       q    Type
REMARK                         _______ _______ _______ _____ _____    ______ ____
ROOT
ATOM      9  C   UNL     1      -0.397   0.034  24.082  0.00  0.00    +0.027 C 
ATOM     10  C   UNL     1      -0.359   0.858  24.104  0.00  0.00    +0.005 C 
ATOM     11  C   UNL     1      -1.034   1.299  24.273  0.00  0.00    +0.006 C 
ATOM     15  C   UNL     1      -1.751   0.915  24.420  0.00  0.00    +0.041 C 
ATOM     27  C   UNL     1      -1.790   0.092  24.398  0.00  0.00    -0.033 C 
ATOM     28  C   UNL     1      -1.114  -0.350  24.229  0.00  0.00    -0.048 C 
ATOM     29  C   UNL     1      -1.153  -1.173  24.207  0.00  0.00    +0.026 C 
ENDROOT
BRANCH  11  12
ATOM     12  C   UNL     1      -0.996   2.123  24.295  0.00  0.00    +0.000 C 
ATOM     13  C   UNL     1      -1.163   2.562  23.619  0.00  0.00    +0.000 C 
ATOM     14  C   UNL     1      -0.789   2.506  24.996  0.00  0.00    +0.000 C 
ENDBRANCH  11  12
BRANCH   9   8
ATOM      8  C   UNL     1       0.278  -0.407  23.912  0.00  0.00    +0.091 C 
BRANCH   8   6
ATOM      5  N   UNL     1       1.545  -0.042  23.360  0.00  0.00    -0.203 NA
ATOM      6  C   UNL     1       0.745  -0.214  23.260  0.00  0.00    +0.242 C 
ATOM      7  O   UNL     1       0.410  -0.195  22.505  0.00  0.00    -0.273 OA
BRANCH   5   4
ATOM      4  C   UNL     1       2.011   0.151  22.707  0.00  0.00    +0.147 C 
BRANCH   4   3
ATOM      3  C   UNL     1       2.833   0.117  22.763  0.00  0.00    +0.166 C 
BRANCH   3   2
ATOM      1  C   UNL     1       4.108   0.754  22.658  0.00  0.00    +0.174 C 
ATOM      2  O   UNL     1       3.286   0.787  22.599  0.00  0.00    -0.349 OA
ENDBRANCH   3   2
ENDBRANCH   4   3
ENDBRANCH   5   4
ENDBRANCH   8   6
ENDBRANCH   9   8
BRANCH  15  16
ATOM     16  C   UNL     1      -2.427   1.357  24.589  0.00  0.00    +0.120 C 
BRANCH  16  17
ATOM     17  N   UNL     1      -3.168   0.995  24.588  0.00  0.00    -0.077 NA
BRANCH  17  18
ATOM     18  S   UNL     1      -3.841   1.429  24.789  0.00  0.00    +0.077 S 
ATOM     19  O   UNL     1      -3.968   1.599  23.992  0.00  0.00    -0.152 OA
ATOM     20  O   UNL     1      -3.712   1.258  25.586  0.00  0.00    -0.152 OA
BRANCH  18  21
ATOM     21  C   UNL     1      -4.512   1.863  24.989  0.00  0.00    +0.124 A 
ATOM     22  C   UNL     1      -4.444   2.658  25.196  0.00  0.00    +0.020 A 
ATOM     23  C   UNL     1      -5.116   3.092  25.397  0.00  0.00    +0.001 A 
ATOM     24  C   UNL     1      -5.857   2.730  25.390  0.00  0.00    +0.000 A 
ATOM     25  C   UNL     1      -5.927   1.934  25.183  0.00  0.00    +0.001 A 
ATOM     26  C   UNL     1      -5.254   1.501  24.983  0.00  0.00    +0.020 A 
ENDBRANCH  18  21
ENDBRANCH  17  18
ENDBRANCH  16  17
ENDBRANCH  15  16
TORSDOF 10
ENDMDL
MODEL 4
REMARK VINA RESULT:      -8.9      2.276      5.934
REMARK  Name = 
REMARK  10 active torsions:
REMARK  status: ('A' for Active; 'I' for Inactive)
REMARK    1  A    between atoms: O_2  and  C_3
REMARK    2  A    between atoms: C_3  and  C_4
REMARK    3  A    between atoms: C_4  and  N_5
REMARK    4  A    between atoms: C_6  and  C_8
REMARK    5  A    between atoms: C_8  and  C_9
REMARK    6  A    between atoms: C_11  and  C_12
REMARK    7  A    between atoms: C_15  and  C_16
REMARK    8  A    between atoms: C_16  and  N_17
REMARK    9  A    between atoms: N_17  and  S_18
REMARK   10  A    between atoms: S_18  and  C_21
REMARK                            x       y       z     vdW  Elec       q    Type
REMARK                         _______ _______ _______ _____ _____    ______ ____
ROOT
ATOM      9  C   UNL     1      -0.971  -0.821  25.195  0.00  0.00    +0.027 C 
ATOM     10  C   UNL     1      -0.724  -0.487  24.482  0.00  0.00    +0.005 C 
ATOM     11  C   UNL     1      -0.674   0.332  24.405  0.00  0.00    +0.006 C 
ATOM     15  C   UNL     1      -0.871   0.820  25.042  0.00  0.00    +0.041 C 
ATOM     27  C   UNL     1      -1.119   0.487  25.754  0.00  0.00    -0.033 C 
ATOM     28  C   UNL     1      -1.169  -0.333  25.832  0.00  0.00    -0.048 C 
ATOM     29  C   UNL     1      -1.416  -0.666  26.544  0.00  0.00    +0.026 C 
ENDROOT
BRANCH  11  12
ATOM     12  C   UNL     1      -0.427   0.666  23.692  0.00  0.00    +0.000 C 
ATOM     13  C   UNL     1       0.377   0.775  23.543  0.00  0.00    +0.000 C 
ATOM     14  C   UNL     1      -0.984   0.891  23.127  0.00  0.00    +0.000 C 
ENDBRANCH  11  12
BRANCH   9   8
ATOM      8  C   UNL     1      -1.021  -1.640  25.272  0.00  0.00    +0.091 C 
BRANCH   8   6
ATOM      5  N   UNL     1      -2.273  -2.198  24.867  0.00  0.00    -0.203 NA
ATOM      6  C   UNL     1      -1.468  -2.079  24.735  0.00  0.00    +0.242 C 
ATOM      7  O   UNL     1      -1.108  -2.400  24.064  0.00  0.00    -0.273 OA
BRANCH   5   4
ATOM      4  C   UNL     1      -2.719  -2.637  24.329  0.00  0.00    +0.147 C 
BRANCH   4   3
ATOM      3  C   UNL     1      -3.522  -2.765  24.467  0.00  0.00    +0.166 C 
BRANCH   3   2
ATOM      1  C   UNL     1      -4.587  -2.118  23.766  0.00  0.00    +0.174 C 
ATOM      2  O   UNL     1      -4.057  -2.746  23.839  0.00  0.00    -0.349 OA
ENDBRANCH   3   2
ENDBRANCH   4   3
ENDBRANCH   5   4
ENDBRANCH   8   6
ENDBRANCH   9   8
BRANCH  15  16
ATOM     16  C   UNL     1      -0.821   1.640  24.964  0.00  0.00    +0.120 C 
BRANCH  16  17
ATOM     17  N   UNL     1      -1.048   2.128  25.588  0.00  0.00    -0.077 NA
BRANCH  17  18
ATOM     18  S   UNL     1      -1.150   2.938  25.464  0.00  0.00    +0.077 S 
ATOM     19  O   UNL     1      -1.941   2.807  25.271  0.00  0.00    -0.152 OA
ATOM     20  O   UNL     1      -0.358   3.067  25.656  0.00  0.00    -0.152 OA
BRANCH  18  21
ATOM     21  C   UNL     1      -1.252   3.746  25.339  0.00  0.00    +0.124 A 
ATOM     22  C   UNL     1      -0.664   4.182  24.960  0.00  0.00    +0.020 A 
ATOM     23  C   UNL     1      -0.766   4.992  24.835  0.00  0.00    +0.001 A 
ATOM     24  C   UNL     1      -1.457   5.364  25.090  0.00  0.00    +0.000 A 
ATOM     25  C   UNL     1      -2.045   4.927  25.470  0.00  0.00    +0.001 A 
ATOM     26  C   UNL     1      -1.942   4.119  25.594  0.00  0.00    +0.020 A 
ENDBRANCH  18  21
ENDBRANCH  17  18
ENDBRANCH  16  17
ENDBRANCH  15  16
TORSDOF 10
ENDMDL
MODEL 5
REMARK VINA RESULT:      -8.2      1.292      2.228
REMARK  Name = 
REMARK  10 active torsions:
REMARK  status: ('A' for Active; 'I' for Inactive)
REMARK    1  A    between atoms: O_2  and  C_3
REMARK    2  A    between atoms: C_3  and  C_4
REMARK    3  A    between atoms: C_4  and  N_5
REMARK    4  A    between atoms: C_6  and  C_8
REMARK    5  A    between atoms: C_8  and  C_9
REMARK    6  A    between atoms: C_11  and  C_12
REMARK    7  A    between atoms: C_15  and  C_16
REMARK    8  A    between atoms: C_16  and  N_17
REMARK    9  A    between atoms: N_17  and  S_18
REMARK   10  A    between atoms: S_18  and  C_21
REMARK                            x       y       z     vdW  Elec       q    Type
REMARK                         _______ _______ _______ _____ _____    ______ ____
ROOT
ATOM      9  C   UNL     1      -0.886   2.424  24.759  0.00  0.00    +0.027 C 
ATOM     10  C   UNL     1      -1.389   2.406  24.105  0.00  0.00    +0.005 C 
ATOM     11  C   UNL     1      -1.836   1.731  23.946  0.00  0.00    +0.006 C 
ATOM     15  C   UNL     1      -1.780   1.073  24.442  0.00  0.00    +0.041 C 
ATOM     27  C   UNL     1      -1.277   1.090  25.095  0.00  0.00    -0.033 C 
ATOM     28  C   UNL     1      -0.830   1.765  25.254  0.00  0.00    -0.048 C 
ATOM     29  C   UNL     1      -0.327   1.783  25.907  0.00  0.00    +0.026 C 
ENDROOT
BRANCH  11  12
ATOM     12  C   UNL     1      -2.339   1.713  23.293  0.00  0.00    +0.000 C 
ATOM     13  C   UNL     1      -2.057   1.458  22.561  0.00  0.00    +0.000 C 
ATOM     14  C   UNL     1      -3.125   1.950  23.372  0.00  0.00    +0.000 C 
ENDBRANCH  11  12
BRANCH   9   8
ATOM      8  C   UNL     1      -0.439   3.098  24.917  0.00  0.00    +0.091 C 
BRANCH   8   6
ATOM      5  N   UNL     1      -1.330   4.093  25.427  0.00  0.00    -0.203 NA
ATOM      6  C   UNL     1      -0.785   3.846  24.860  0.00  0.00    +0.242 C 
ATOM      7  O   UNL     1      -0.584   4.346  24.235  0.00  0.00    -0.273 OA
BRANCH   5   4
ATOM      4  C   UNL     1      -1.676   4.840  25.370  0.00  0.00    +0.147 C 
BRANCH   4   3
ATOM      3  C   UNL     1      -2.472   4.942  25.556  0.00  0.00    +0.166 C 
BRANCH   3   2
ATOM      1  C   UNL     1      -3.560   4.474  26.357  0.00  0.00    +0.174 C 
ATOM      2  O   UNL     1      -2.764   4.677  26.281  0.00  0.00    -0.349 OA
ENDBRANCH   3   2
ENDBRANCH   4   3
ENDBRANCH   5   4
ENDBRANCH   8   6
ENDBRANCH   9   8
BRANCH  15  16
ATOM     16  C   UNL     1      -2.227   0.398  24.283  0.00  0.00    +0.120 C 
BRANCH  16  17
ATOM     17  N   UNL     1      -2.264  -0.213  24.835  0.00  0.00    -0.077 NA
BRANCH  17  18
ATOM     18  S   UNL     1      -2.706  -0.890  24.673  0.00  0.00    +0.077 S 
ATOM     19  O   UNL     1      -2.057  -1.220  24.285  0.00  0.00    -0.152 OA
ATOM     20  O   UNL     1      -3.355  -0.560  25.062  0.00  0.00    -0.152 OA
BRANCH  18  21
ATOM     21  C   UNL     1      -3.148  -1.567  24.512  0.00  0.00    +0.124 A 
ATOM     22  C   UNL     1      -3.829  -1.515  24.050  0.00  0.00    +0.020 A 
ATOM     23  C   UNL     1      -4.271  -2.192  23.888  0.00  0.00    +0.001 A 
ATOM     24  C   UNL     1      -4.032  -2.922  24.188  0.00  0.00    +0.000 A 
ATOM     25  C   UNL     1      -3.350  -2.975  24.651  0.00  0.00    +0.001 A 
ATOM     26  C   UNL     1      -2.909  -2.297  24.812  0.00  0.00    +0.020 A 
ENDBRANCH  18  21
ENDBRANCH  17  18
ENDBRANCH  16  17
ENDBRANCH  15  16
TORSDOF 10
ENDMDL
