MODEL 1
REMARK VINA RESULT:      -9.0      0.000      0.000
REMARK  Name = 
REMARK  7 active torsions:
REMARK  status: ('A' for Active; 'I' for Inactive)
REMARK    1  A    between atoms: N_6  and  C_7
REMARK    2  A    between atoms: C_7  and  C_8
REMARK    3  A    between atoms: C_20  and  C_21
REMARK    4  A    between atoms: C_21  and  C_22
REMARK    5  A    between atoms: C_22  and  C_23
REMARK    6  A    between atoms: N_25  and  C_26
REMARK    7  A    between atoms: C_26  and  C_27
REMARK                            x       y       z     vdW  Elec       q    Type
REMARK                         _______ _______ _______ _____ _____    ______ ____
ROOT
ATOM      1  C   UNL     1      -1.121  -0.216  24.693  0.00  0.00    +0.090 C 
ATOM      2  N   UNL     1      -1.359   0.447  24.263  0.00  0.00    -0.271 NA
ATOM      3  C   UNL     1      -2.118   0.726  24.426  0.00  0.00    +0.083 C 
ATOM      4  C   UNL     1      -2.622   0.378  24.979  0.00  0.00    +0.035 C 
ATOM      5  C   UNL     1      -3.326   0.807  24.988  0.00  0.00    +0.074 C 
ATOM      6  N   UNL     1      -3.258   1.421  24.440  0.00  0.00    -0.262 NA
ATOM     15  C   UNL     1      -2.511   1.371  24.093  0.00  0.00    +0.151 C 
ATOM     16  C   UNL     1      -2.242   1.895  23.516  0.00  0.00    +0.257 C 
ATOM     17  O   UNL     1      -2.772   2.488  23.297  0.00  0.00    -0.272 OA
ATOM     18  N   UNL     1      -1.514   1.904  23.128  0.00  0.00    -0.203 NA
ATOM     19  C   UNL     1      -0.875   1.391  23.223  0.00  0.00    +0.131 C 
ATOM     20  C   UNL     1      -0.805   0.743  23.728  0.00  0.00    +0.080 C 
ENDROOT
BRANCH   6   7
ATOM      7  C   UNL     1      -3.835   1.985  24.270  0.00  0.00    +0.100 C 
BRANCH   7   8
ATOM      8  C   UNL     1      -4.497   2.057  24.758  0.00  0.00    -0.006 A 
ATOM      9  C   UNL     1      -4.518   2.637  25.343  0.00  0.00    -0.003 A 
ATOM     10  C   UNL     1      -5.180   2.708  25.830  0.00  0.00    -0.005 A 
ATOM     11  C   UNL     1      -5.822   2.198  25.730  0.00  0.00    -0.022 A 
ATOM     12  C   UNL     1      -6.484   2.269  26.217  0.00  0.00    +0.031 C 
ATOM     13  C   UNL     1      -5.800   1.617  25.145  0.00  0.00    -0.005 A 
ATOM     14  C   UNL     1      -5.138   1.547  24.658  0.00  0.00    -0.003 A 
ENDBRANCH   7   8
ENDBRANCH   6   7
BRANCH  20  21
ATOM     21  C   UNL     1      -0.088   0.337  23.693  0.00  0.00    +0.027 C 
BRANCH  21  22
ATOM     22  C   UNL     1       0.557   0.670  23.302  0.00  0.00    +0.088 C 
BRANCH  22  23
ATOM     23  C   UNL     1       1.178   0.190  23.047  0.00  0.00    +0.242 C 
ATOM     24  O   UNL     1       1.027  -0.582  22.798  0.00  0.00    -0.273 OA
ATOM     25  N   UNL     1       1.949   0.481  23.040  0.00  0.00    -0.200 NA
BRANCH  25  26
ATOM     26  C   UNL     1       2.570   0.002  22.785  0.00  0.00    +0.148 C 
BRANCH  26  27
ATOM     27  C   UNL     1       3.349   0.265  22.850  0.00  0.00    +0.029 A 
ATOM     28  C   UNL     1       3.639   0.992  22.588  0.00  0.00    +0.004 A 
ATOM     29  C   UNL     1       4.444   1.024  22.764  0.00  0.00    +0.007 A 
ATOM     30  C   UNL     1       4.652   0.317  23.135  0.00  0.00    +0.035 A 
ATOM     31  S   UNL     1       3.975  -0.153  23.188  0.00  0.00    -0.089 S 
ENDBRANCH  26  27
ENDBRANCH  25  26
ENDBRANCH  22  23
ENDBRANCH  21  22
ENDBRANCH  20  21
TORSDOF 7
ENDMDL
MODEL 2
REMARK VINA RESULT:      -5.6     15.029     18.423
REMARK  Name = 
REMARK  7 active torsions:
REMARK  status: ('A' for Active; 'I' for Inactive)
REMARK    1  A    between atoms: N_6  and  C_7
REMARK    2  A    between atoms: C_7  and  C_8
REMARK    3  A    between atoms: C_20  and  C_21
REMARK    4  A    between atoms: C_21  and  C_22
REMARK    5  A    between atoms: C_22  and  C_23
REMARK    6  A    between atoms: N_25  and  C_26
REMARK    7  A    between atoms: C_26  and  C_27
REMARK                            x       y       z     vdW  Elec       q    Type
REMARK                         _______ _______ _______ _____ _____    ______ ____
ROOT
ATOM      1  C   UNL     1      12.206  -9.104  31.292  0.00  0.00    +0.090 C 
ATOM      2  N   UNL     1      12.239  -8.282  31.226  0.00  0.00    -0.271 NA
ATOM      3  C   UNL     1      12.899  -7.980  30.834  0.00  0.00    +0.083 C 
ATOM      4  C   UNL     1      13.498  -8.454  30.522  0.00  0.00    +0.035 C 
ATOM      5  C   UNL     1      14.060  -7.959  30.175  0.00  0.00    +0.074 C 
ATOM      6  N   UNL     1      13.808  -7.180  30.273  0.00  0.00    -0.262 NA
ATOM     15  C   UNL     1      13.091  -7.193  30.680  0.00  0.00    +0.151 C 
ATOM     16  C   UNL     1      12.669  -6.513  30.880  0.00  0.00    +0.257 C 
ATOM     17  O   UNL     1      13.010  -5.798  30.646  0.00  0.00    -0.272 OA
ATOM     18  N   UNL     1      11.952  -6.451  31.283  0.00  0.00    -0.203 NA
ATOM     19  C   UNL     1      11.479  -7.056  31.586  0.00  0.00    +0.131 C 
ATOM     20  C   UNL     1      11.606  -7.870  31.561  0.00  0.00    +0.080 C 
ENDROOT
BRANCH   6   7
ATOM      7  C   UNL     1      14.204  -6.505  30.010  0.00  0.00    +0.100 C 
BRANCH   7   8
ATOM      8  C   UNL     1      14.870  -6.581  29.528  0.00  0.00    -0.006 A 
ATOM      9  C   UNL     1      15.625  -6.553  29.860  0.00  0.00    -0.003 A 
ATOM     10  C   UNL     1      16.290  -6.629  29.378  0.00  0.00    -0.005 A 
ATOM     11  C   UNL     1      16.200  -6.732  28.564  0.00  0.00    -0.022 A 
ATOM     12  C   UNL     1      16.865  -6.808  28.082  0.00  0.00    +0.031 C 
ATOM     13  C   UNL     1      15.445  -6.760  28.232  0.00  0.00    -0.005 A 
ATOM     14  C   UNL     1      14.780  -6.684  28.715  0.00  0.00    -0.003 A 
ENDBRANCH   7   8
ENDBRANCH   6   7
BRANCH  20  21
ATOM     21  C   UNL     1      11.025  -8.336  31.917  0.00  0.00    +0.027 C 
BRANCH  21  22
ATOM     22  C   UNL     1      10.315  -7.995  32.160  0.00  0.00    +0.088 C 
BRANCH  22  23
ATOM     23  C   UNL     1       9.664  -8.473  32.330  0.00  0.00    +0.242 C 
ATOM     24  O   UNL     1       9.745  -9.110  32.848  0.00  0.00    -0.273 OA
ATOM     25  N   UNL     1       8.934  -8.314  31.982  0.00  0.00    -0.200 NA
BRANCH  25  26
ATOM     26  C   UNL     1       8.283  -8.792  32.151  0.00  0.00    +0.148 C 
BRANCH  26  27
ATOM     27  C   UNL     1       7.552  -8.633  31.804  0.00  0.00    +0.029 A 
ATOM     28  C   UNL     1       7.316  -8.855  31.046  0.00  0.00    +0.004 A 
ATOM     29  C   UNL     1       6.546  -8.582  30.928  0.00  0.00    +0.007 A 
ATOM     30  C   UNL     1       6.307  -8.191  31.614  0.00  0.00    +0.035 A 
ATOM     31  S   UNL     1       6.928  -8.222  32.156  0.00  0.00    -0.089 S 
ENDBRANCH  26  27
ENDBRANCH  25  26
ENDBRANCH  22  23
ENDBRANCH  21  22
ENDBRANCH  20  21
TORSDOF 7
ENDMDL
MODEL 3
REMARK VINA RESULT:      -5.6     14.976     18.161
REMARK  Name = 
REMARK  7 active torsions:
REMARK  status: ('A' for Active; 'I' for Inactive)
REMARK    1  A    between atoms: N_6  and  C_7
REMARK    2  A    between atoms: C_7  and  C_8
REMARK    3  A    between atoms: C_20  and  C_21
REMARK    4  A    between atoms: C_21  and  C_22
REMARK    5  A    between atoms: C_22  and  C_23
REMARK    6  A    between atoms: N_25  and  C_26
REMARK    7  A    between atoms: C_26  and  C_27
REMARK                            x       y       z     vdW  Elec       q    Type
REMARK                         _______ _______ _______ _____ _____    ______ ____
ROOT
ATOM      1  C   UNL     1      10.874  -6.166  32.873  0.00  0.00    +0.090 C 
ATOM      2  N   UNL     1      11.510  -6.533  32.497  0.00  0.00    -0.271 NA
ATOM      3  C   UNL     1      12.183  -6.067  32.397  0.00  0.00    +0.083 C 
ATOM      4  C   UNL     1      12.236  -5.283  32.650  0.00  0.00    +0.035 C 
ATOM      5  C   UNL     1      12.987  -5.002  32.456  0.00  0.00    +0.074 C 
ATOM      6  N   UNL     1      13.398  -5.612  32.081  0.00  0.00    -0.262 NA
ATOM     15  C   UNL     1      12.902  -6.270  32.045  0.00  0.00    +0.151 C 
ATOM     16  C   UNL     1      13.123  -6.988  31.707  0.00  0.00    +0.257 C 
ATOM     17  O   UNL     1      13.888  -7.018  31.398  0.00  0.00    -0.272 OA
ATOM     18  N   UNL     1      12.683  -7.682  31.637  0.00  0.00    -0.203 NA
ATOM     19  C   UNL     1      11.910  -7.827  31.887  0.00  0.00    +0.131 C 
ATOM     20  C   UNL     1      11.388  -7.317  32.270  0.00  0.00    +0.080 C 
ENDROOT
BRANCH   6   7
ATOM      7  C   UNL     1      14.171  -5.571  31.794  0.00  0.00    +0.100 C 
BRANCH   7   8
ATOM      8  C   UNL     1      14.610  -4.879  31.891  0.00  0.00    -0.006 A 
ATOM      9  C   UNL     1      14.701  -4.356  31.259  0.00  0.00    -0.003 A 
ATOM     10  C   UNL     1      15.140  -3.665  31.357  0.00  0.00    -0.005 A 
ATOM     11  C   UNL     1      15.487  -3.496  32.086  0.00  0.00    -0.022 A 
ATOM     12  C   UNL     1      15.927  -2.804  32.184  0.00  0.00    +0.031 C 
ATOM     13  C   UNL     1      15.396  -4.019  32.718  0.00  0.00    -0.005 A 
ATOM     14  C   UNL     1      14.957  -4.710  32.620  0.00  0.00    -0.003 A 
ENDBRANCH   7   8
ENDBRANCH   6   7
BRANCH  20  21
ATOM     21  C   UNL     1      10.646  -7.630  32.450  0.00  0.00    +0.027 C 
BRANCH  21  22
ATOM     22  C   UNL     1      10.302  -8.189  31.952  0.00  0.00    +0.088 C 
BRANCH  22  23
ATOM     23  C   UNL     1       9.615  -8.583  32.185  0.00  0.00    +0.242 C 
ATOM     24  O   UNL     1       9.614  -9.037  32.873  0.00  0.00    -0.273 OA
ATOM     25  N   UNL     1       8.931  -8.523  31.729  0.00  0.00    -0.200 NA
BRANCH  25  26
ATOM     26  C   UNL     1       8.244  -8.917  31.962  0.00  0.00    +0.148 C 
BRANCH  26  27
ATOM     27  C   UNL     1       7.554  -8.842  31.516  0.00  0.00    +0.029 A 
ATOM     28  C   UNL     1       7.296  -9.364  30.931  0.00  0.00    +0.004 A 
ATOM     29  C   UNL     1       6.583  -9.077  30.630  0.00  0.00    +0.007 A 
ATOM     30  C   UNL     1       6.401  -8.378  31.029  0.00  0.00    +0.035 A 
ATOM     31  S   UNL     1       7.001  -8.233  31.577  0.00  0.00    -0.089 S 
ENDBRANCH  26  27
ENDBRANCH  25  26
ENDBRANCH  22  23
ENDBRANCH  21  22
ENDBRANCH  20  21
TORSDOF 7
ENDMDL
