MODEL 1
REMARK VINA RESULT:     -13.4      0.000      0.000
REMARK  Name = 
REMARK  6 active torsions:
REMARK  status: ('A' for Active; 'I' for Inactive)
REMARK    1  A    between atoms: O_2  and  C_3
REMARK    2  A    between atoms: C_8  and  C_9
REMARK    3  A    between atoms: C_12  and  C_14
REMARK    4  A    between atoms: N_17  and  C_18
REMARK    5  A    between atoms: C_18  and  C_19
REMARK    6  A    between atoms: C_22  and  C_25
REMARK                            x       y       z     vdW  Elec       q    Type
REMARK                         _______ _______ _______ _____ _____    ______ ____
ROOT
ATOM     14  C   UNL     1      -0.849   0.864  25.342  0.00  0.00    +0.096 C 
ATOM     15  C   UNL     1      -0.541   0.505  24.665  0.00  0.00    +0.028 C 
ATOM     16  C   UNL     1      -0.761  -0.290  24.676  0.00  0.00    +0.073 C 
ATOM     17  N   UNL     1      -1.204  -0.423  25.359  0.00  0.00    -0.268 NA
ATOM     29  C   UNL     1      -1.258   0.290  25.771  0.00  0.00    +0.082 C 
ENDROOT
BRANCH  14  12
ATOM      9  C   UNL     1      -0.860   2.988  25.554  0.00  0.00    +0.252 A 
ATOM     10  N   UNL     1      -0.395   2.766  26.197  0.00  0.00    -0.107 NA
ATOM     11  N   UNL     1      -0.333   1.943  26.197  0.00  0.00    -0.111 NA
ATOM     12  C   UNL     1      -0.761   1.657  25.553  0.00  0.00    +0.227 A 
ATOM     13  O   UNL     1      -1.087   2.303  25.155  0.00  0.00    -0.419 OA
BRANCH   9   8
ATOM      3  C   UNL     1      -1.790   4.072  25.579  0.00  0.00    +0.143 A 
ATOM      4  C   UNL     1      -1.994   4.844  25.371  0.00  0.00    +0.037 A 
ATOM      5  C   UNL     1      -1.470   5.304  24.929  0.00  0.00    +0.003 A 
ATOM      6  C   UNL     1      -0.743   4.991  24.696  0.00  0.00    +0.000 A 
ATOM      7  C   UNL     1      -0.539   4.219  24.904  0.00  0.00    +0.008 A 
ATOM      8  C   UNL     1      -1.064   3.760  25.346  0.00  0.00    +0.089 A 
BRANCH   3   2
ATOM      1  C   UNL     1      -3.049   3.918  26.238  0.00  0.00    +0.252 C 
ATOM      2  O   UNL     1      -2.315   3.612  26.021  0.00  0.00    -0.471 OA
ENDBRANCH   3   2
ENDBRANCH   9   8
ENDBRANCH  14  12
BRANCH  17  18
ATOM     18  C   UNL     1      -1.535  -1.143  25.590  0.00  0.00    +0.099 C 
BRANCH  18  19
ATOM     19  C   UNL     1      -2.189  -1.444  25.188  0.00  0.00    -0.006 A 
ATOM     20  C   UNL     1      -2.946  -1.168  25.366  0.00  0.00    -0.003 A 
ATOM     21  C   UNL     1      -3.600  -1.470  24.964  0.00  0.00    +0.004 A 
ATOM     22  C   UNL     1      -3.497  -2.047  24.383  0.00  0.00    +0.071 A 
ATOM     23  C   UNL     1      -2.741  -2.323  24.205  0.00  0.00    +0.004 A 
ATOM     24  C   UNL     1      -2.086  -2.022  24.608  0.00  0.00    -0.003 A 
BRANCH  22  25
ATOM     25  C   UNL     1      -4.151  -2.349  23.981  0.00  0.00    +0.419 C 
ATOM     26  F   UNL     1      -4.806  -2.650  23.578  0.00  0.00    -0.166 F 
ATOM     27  F   UNL     1      -4.295  -1.604  23.657  0.00  0.00    -0.166 F 
ATOM     28  F   UNL     1      -4.007  -3.094  24.304  0.00  0.00    -0.166 F 
ENDBRANCH  22  25
ENDBRANCH  18  19
ENDBRANCH  17  18
TORSDOF 6
ENDMDL
MODEL 2
REMARK VINA RESULT:     -13.2      3.131      6.097
REMARK  Name = 
REMARK  6 active torsions:
REMARK  status: ('A' for Active; 'I' for Inactive)
REMARK    1  A    between atoms: O_2  and  C_3
REMARK    2  A    between atoms: C_8  and  C_9
REMARK    3  A    between atoms: C_12  and  C_14
REMARK    4  A    between atoms: N_17  and  C_18
REMARK    5  A    between atoms: C_18  and  C_19
REMARK    6  A    between atoms: C_22  and  C_25
REMARK                            x       y       z     vdW  Elec       q    Type
REMARK                         _______ _______ _______ _____ _____    ______ ____
ROOT
ATOM     14  C   UNL     1      -4.118   1.646  24.646  0.00  0.00    +0.096 C 
ATOM     15  C   UNL     1      -4.866   1.990  24.593  0.00  0.00    +0.028 C 
ATOM     16  C   UNL     1      -4.852   2.698  25.017  0.00  0.00    +0.073 C 
ATOM     17  N   UNL     1      -4.095   2.792  25.331  0.00  0.00    -0.268 NA
ATOM     29  C   UNL     1      -3.641   2.141  25.102  0.00  0.00    +0.082 C 
ENDROOT
BRANCH  14  12
ATOM      9  C   UNL     1      -3.671  -0.371  24.108  0.00  0.00    +0.252 A 
ATOM     10  N   UNL     1      -3.396   0.036  23.445  0.00  0.00    -0.107 NA
ATOM     11  N   UNL     1      -3.529   0.842  23.566  0.00  0.00    -0.111 NA
ATOM     12  C   UNL     1      -3.887   0.932  24.303  0.00  0.00    +0.227 A 
ATOM     13  O   UNL     1      -3.975   0.183  24.638  0.00  0.00    -0.419 OA
BRANCH   9   8
ATOM      3  C   UNL     1      -2.996  -1.533  24.592  0.00  0.00    +0.143 A 
ATOM      4  C   UNL     1      -2.971  -2.350  24.704  0.00  0.00    +0.037 A 
ATOM      5  C   UNL     1      -3.596  -2.821  24.445  0.00  0.00    +0.003 A 
ATOM      6  C   UNL     1      -4.247  -2.475  24.072  0.00  0.00    +0.000 A 
ATOM      7  C   UNL     1      -4.272  -1.658  23.960  0.00  0.00    +0.008 A 
ATOM      8  C   UNL     1      -3.646  -1.188  24.220  0.00  0.00    +0.089 A 
BRANCH   3   2
ATOM      1  C   UNL     1      -1.698  -1.412  25.177  0.00  0.00    +0.252 C 
ATOM      2  O   UNL     1      -2.370  -1.062  24.851  0.00  0.00    -0.471 OA
ENDBRANCH   3   2
ENDBRANCH   9   8
ENDBRANCH  14  12
BRANCH  17  18
ATOM     18  C   UNL     1      -3.837   3.425  25.794  0.00  0.00    +0.099 C 
BRANCH  18  19
ATOM     19  C   UNL     1      -3.140   3.821  25.598  0.00  0.00    -0.006 A 
ATOM     20  C   UNL     1      -2.443   3.656  26.008  0.00  0.00    -0.003 A 
ATOM     21  C   UNL     1      -1.746   4.053  25.812  0.00  0.00    +0.004 A 
ATOM     22  C   UNL     1      -1.747   4.614  25.208  0.00  0.00    +0.071 A 
ATOM     23  C   UNL     1      -2.444   4.779  24.799  0.00  0.00    +0.004 A 
ATOM     24  C   UNL     1      -3.141   4.383  24.994  0.00  0.00    -0.003 A 
BRANCH  22  25
ATOM     25  C   UNL     1      -1.051   5.011  25.012  0.00  0.00    +0.419 C 
ATOM     26  F   UNL     1      -0.353   5.407  24.816  0.00  0.00    -0.166 F 
ATOM     27  F   UNL     1      -0.746   4.315  24.689  0.00  0.00    -0.166 F 
ATOM     28  F   UNL     1      -1.356   5.706  25.335  0.00  0.00    -0.166 F 
ENDBRANCH  22  25
ENDBRANCH  18  19
ENDBRANCH  17  18
TORSDOF 6
ENDMDL
MODEL 3
REMARK VINA RESULT:     -12.6      2.711      5.597
REMARK  Name = 
REMARK  6 active torsions:
REMARK  status: ('A' for Active; 'I' for Inactive)
REMARK    1  A    between atoms: O_2  and  C_3
REMARK    2  A    between atoms: C_8  and  C_9
REMARK    3  A    between atoms: C_12  and  C_14
REMARK    4  A    between atoms: N_17  and  C_18
REMARK    5  A    between atoms: C_18  and  C_19
REMARK    6  A    between atoms: C_22  and  C_25
REMARK                            x       y       z     vdW  Elec       q    Type
REMARK                         _______ _______ _______ _____ _____    ______ ____
ROOT
ATOM     14  C   UNL     1      -0.991   0.413  25.068  0.00  0.00    +0.096 C 
ATOM     15  C   UNL     1      -0.482   0.480  24.422  0.00  0.00    +0.028 C 
ATOM     16  C   UNL     1      -0.035   1.167  24.519  0.00  0.00    +0.073 C 
ATOM     17  N   UNL     1      -0.268   1.524  25.225  0.00  0.00    -0.268 NA
ATOM     29  C   UNL     1      -0.859   1.058  25.564  0.00  0.00    +0.082 C 
ENDROOT
BRANCH  14  12
ATOM      9  C   UNL     1      -2.497  -1.098  24.996  0.00  0.00    +0.252 A 
ATOM     10  N   UNL     1      -2.252  -1.154  25.781  0.00  0.00    -0.107 NA
ATOM     11  N   UNL     1      -1.658  -0.595  25.905  0.00  0.00    -0.111 NA
ATOM     12  C   UNL     1      -1.536  -0.193  25.195  0.00  0.00    +0.227 A 
ATOM     13  O   UNL     1      -2.055  -0.504  24.633  0.00  0.00    -0.419 OA
BRANCH   9   8
ATOM      3  C   UNL     1      -3.802  -1.213  24.426  0.00  0.00    +0.143 A 
ATOM      4  C   UNL     1      -4.387  -1.670  24.067  0.00  0.00    +0.037 A 
ATOM      5  C   UNL     1      -4.252  -2.470  23.917  0.00  0.00    +0.003 A 
ATOM      6  C   UNL     1      -3.531  -2.813  24.128  0.00  0.00    +0.000 A 
ATOM      7  C   UNL     1      -2.946  -2.355  24.487  0.00  0.00    +0.008 A 
ATOM      8  C   UNL     1      -3.082  -1.555  24.636  0.00  0.00    +0.089 A 
BRANCH   3   2
ATOM      1  C   UNL     1      -4.671  -0.079  24.400  0.00  0.00    +0.252 C 
ATOM      2  O   UNL     1      -3.938  -0.413  24.576  0.00  0.00    -0.471 OA
ENDBRANCH   3   2
ENDBRANCH   9   8
ENDBRANCH  14  12
BRANCH  17  18
ATOM     18  C   UNL     1       0.036   2.225  25.537  0.00  0.00    +0.099 C 
BRANCH  18  19
ATOM     19  C   UNL     1      -0.360   2.938  25.413  0.00  0.00    -0.006 A 
ATOM     20  C   UNL     1      -0.954   3.177  25.933  0.00  0.00    -0.003 A 
ATOM     21  C   UNL     1      -1.350   3.890  25.808  0.00  0.00    +0.004 A 
ATOM     22  C   UNL     1      -1.151   4.364  25.163  0.00  0.00    +0.071 A 
ATOM     23  C   UNL     1      -0.557   4.126  24.643  0.00  0.00    +0.004 A 
ATOM     24  C   UNL     1      -0.161   3.413  24.767  0.00  0.00    -0.003 A 
BRANCH  22  25
ATOM     25  C   UNL     1      -1.547   5.077  25.038  0.00  0.00    +0.419 C 
ATOM     26  F   UNL     1      -1.942   5.791  24.914  0.00  0.00    -0.166 F 
ATOM     27  F   UNL     1      -0.844   5.490  25.169  0.00  0.00    -0.166 F 
ATOM     28  F   UNL     1      -2.249   4.665  24.907  0.00  0.00    -0.166 F 
ENDBRANCH  22  25
ENDBRANCH  18  19
ENDBRANCH  17  18
TORSDOF 6
ENDMDL
MODEL 4
REMARK VINA RESULT:     -12.4      1.779      2.479
REMARK  Name = 
REMARK  6 active torsions:
REMARK  status: ('A' for Active; 'I' for Inactive)
REMARK    1  A    between atoms: O_2  and  C_3
REMARK    2  A    between atoms: C_8  and  C_9
REMARK    3  A    between atoms: C_12  and  C_14
REMARK    4  A    between atoms: N_17  and  C_18
REMARK    5  A    between atoms: C_18  and  C_19
REMARK    6  A    between atoms: C_22  and  C_25
REMARK                            x       y       z     vdW  Elec       q    Type
REMARK                         _______ _______ _______ _____ _____    ______ ____
ROOT
ATOM     14  C   UNL     1      -4.034   2.215  25.005  0.00  0.00    +0.096 C 
ATOM     15  C   UNL     1      -4.488   2.192  24.316  0.00  0.00    +0.028 C 
ATOM     16  C   UNL     1      -4.853   1.453  24.275  0.00  0.00    +0.073 C 
ATOM     17  N   UNL     1      -4.625   1.020  24.939  0.00  0.00    -0.268 NA
ATOM     29  C   UNL     1      -4.119   1.490  25.390  0.00  0.00    +0.082 C 
ENDROOT
BRANCH  14  12
ATOM      9  C   UNL     1      -2.598   3.753  25.362  0.00  0.00    +0.252 A 
ATOM     10  N   UNL     1      -3.146   3.905  25.959  0.00  0.00    -0.107 NA
ATOM     11  N   UNL     1      -3.751   3.347  25.899  0.00  0.00    -0.111 NA
ATOM     12  C   UNL     1      -3.577   2.851  25.264  0.00  0.00    +0.227 A 
ATOM     13  O   UNL     1      -2.864   3.101  24.932  0.00  0.00    -0.419 OA
BRANCH   9   8
ATOM      3  C   UNL     1      -1.171   3.829  25.361  0.00  0.00    +0.143 A 
ATOM      4  C   UNL     1      -0.479   4.254  25.219  0.00  0.00    +0.037 A 
ATOM      5  C   UNL     1      -0.519   5.028  24.936  0.00  0.00    +0.003 A 
ATOM      6  C   UNL     1      -1.254   5.377  24.795  0.00  0.00    +0.000 A 
ATOM      7  C   UNL     1      -1.947   4.952  24.937  0.00  0.00    +0.008 A 
ATOM      8  C   UNL     1      -1.905   4.178  25.220  0.00  0.00    +0.089 A 
BRANCH   3   2
ATOM      1  C   UNL     1      -0.398   2.722  25.827  0.00  0.00    +0.252 C 
ATOM      2  O   UNL     1      -1.129   3.055  25.644  0.00  0.00    -0.471 OA
ENDBRANCH   3   2
ENDBRANCH   9   8
ENDBRANCH  14  12
BRANCH  17  18
ATOM     18  C   UNL     1      -4.862   0.250  25.119  0.00  0.00    +0.099 C 
BRANCH  18  19
ATOM     19  C   UNL     1      -4.362  -0.385  24.952  0.00  0.00    -0.006 A 
ATOM     20  C   UNL     1      -4.371  -0.731  24.203  0.00  0.00    -0.003 A 
ATOM     21  C   UNL     1      -3.871  -1.366  24.036  0.00  0.00    +0.004 A 
ATOM     22  C   UNL     1      -3.363  -1.655  24.619  0.00  0.00    +0.071 A 
ATOM     23  C   UNL     1      -3.355  -1.310  25.367  0.00  0.00    +0.004 A 
ATOM     24  C   UNL     1      -3.854  -0.674  25.535  0.00  0.00    -0.003 A 
BRANCH  22  25
ATOM     25  C   UNL     1      -2.864  -2.290  24.452  0.00  0.00    +0.419 C 
ATOM     26  F   UNL     1      -2.363  -2.925  24.285  0.00  0.00    -0.166 F 
ATOM     27  F   UNL     1      -2.268  -1.764  24.232  0.00  0.00    -0.166 F 
ATOM     28  F   UNL     1      -3.460  -2.817  24.672  0.00  0.00    -0.166 F 
ENDBRANCH  22  25
ENDBRANCH  18  19
ENDBRANCH  17  18
TORSDOF 6
ENDMDL
MODEL 5
REMARK VINA RESULT:      -9.4     16.082     17.964
REMARK  Name = 
REMARK  6 active torsions:
REMARK  status: ('A' for Active; 'I' for Inactive)
REMARK    1  A    between atoms: O_2  and  C_3
REMARK    2  A    between atoms: C_8  and  C_9
REMARK    3  A    between atoms: C_12  and  C_14
REMARK    4  A    between atoms: N_17  and  C_18
REMARK    5  A    between atoms: C_18  and  C_19
REMARK    6  A    between atoms: C_22  and  C_25
REMARK                            x       y       z     vdW  Elec       q    Type
REMARK                         _______ _______ _______ _____ _____    ______ ____
ROOT
ATOM     14  C   UNL     1      12.611   7.949  18.793  0.00  0.00    +0.096 C 
ATOM     15  C   UNL     1      12.609   7.535  18.079  0.00  0.00    +0.028 C 
ATOM     16  C   UNL     1      13.381   7.524  17.789  0.00  0.00    +0.073 C 
ATOM     17  N   UNL     1      13.860   7.930  18.324  0.00  0.00    -0.268 NA
ATOM     29  C   UNL     1      13.384   8.192  18.945  0.00  0.00    +0.082 C 
ENDROOT
BRANCH  14  12
ATOM      9  C   UNL     1      11.177   8.257  20.345  0.00  0.00    +0.252 A 
ATOM     10  N   UNL     1      10.713   8.371  19.673  0.00  0.00    -0.107 NA
ATOM     11  N   UNL     1      11.193   8.270  19.010  0.00  0.00    -0.111 NA
ATOM     12  C   UNL     1      11.954   8.093  19.272  0.00  0.00    +0.227 A 
ATOM     13  O   UNL     1      11.945   8.085  20.097  0.00  0.00    -0.419 OA
BRANCH   9   8
ATOM      3  C   UNL     1      10.759   7.618  21.552  0.00  0.00    +0.143 A 
ATOM      4  C   UNL     1      10.501   7.668  22.334  0.00  0.00    +0.037 A 
ATOM      5  C   UNL     1      10.405   8.405  22.692  0.00  0.00    +0.003 A 
ATOM      6  C   UNL     1      10.566   9.094  22.266  0.00  0.00    +0.000 A 
ATOM      7  C   UNL     1      10.824   9.044  21.484  0.00  0.00    +0.008 A 
ATOM      8  C   UNL     1      10.920   8.306  21.127  0.00  0.00    +0.089 A 
BRANCH   3   2
ATOM      1  C   UNL     1      10.822   6.194  21.652  0.00  0.00    +0.252 C 
ATOM      2  O   UNL     1      10.855   6.880  21.196  0.00  0.00    -0.471 OA
ENDBRANCH   3   2
ENDBRANCH   9   8
ENDBRANCH  14  12
BRANCH  17  18
ATOM     18  C   UNL     1      14.673   8.052  18.251  0.00  0.00    +0.099 C 
BRANCH  18  19
ATOM     19  C   UNL     1      15.196   7.663  18.757  0.00  0.00    -0.006 A 
ATOM     20  C   UNL     1      15.491   8.050  19.423  0.00  0.00    -0.003 A 
ATOM     21  C   UNL     1      16.013   7.661  19.929  0.00  0.00    +0.004 A 
ATOM     22  C   UNL     1      16.241   6.884  19.768  0.00  0.00    +0.071 A 
ATOM     23  C   UNL     1      15.947   6.497  19.103  0.00  0.00    +0.004 A 
ATOM     24  C   UNL     1      15.424   6.886  18.596  0.00  0.00    -0.003 A 
BRANCH  22  25
ATOM     25  C   UNL     1      16.764   6.495  20.274  0.00  0.00    +0.419 C 
ATOM     26  F   UNL     1      17.287   6.106  20.780  0.00  0.00    -0.166 F 
ATOM     27  F   UNL     1      17.402   6.823  19.867  0.00  0.00    -0.166 F 
ATOM     28  F   UNL     1      16.125   6.167  20.681  0.00  0.00    -0.166 F 
ENDBRANCH  22  25
ENDBRANCH  18  19
ENDBRANCH  17  18
TORSDOF 6
ENDMDL
