MODEL 1
REMARK VINA RESULT:     -10.4      0.000      0.000
REMARK  Name = 
REMARK  9 active torsions:
REMARK  status: ('A' for Active; 'I' for Inactive)
REMARK    1  A    between atoms: C_2  and  C_3
REMARK    2  A    between atoms: C_3  and  C_4
REMARK    3  A    between atoms: C_4  and  C_5
REMARK    4  A    between atoms: C_7  and  C_8
REMARK    5  A    between atoms: C_8  and  C_9
REMARK    6  A    between atoms: C_14  and  C_15
REMARK    7  A    between atoms: C_15  and  C_16
REMARK    8  A    between atoms: N_18  and  C_19
REMARK    9  A    between atoms: C_19  and  C_20
REMARK                            x       y       z     vdW  Elec       q    Type
REMARK                         _______ _______ _______ _____ _____    ______ ____
ROOT
ATOM      9  C   UNL     1      -4.396   2.992  24.937  0.00  0.00    +0.024 C 
ATOM     10  C   UNL     1      -4.666   3.589  25.437  0.00  0.00    +0.089 C 
ATOM     11  N   UNL     1      -5.288   3.441  25.959  0.00  0.00    -0.218 NA
ATOM     12  C   UNL     1      -5.639   2.696  25.981  0.00  0.00    +0.089 C 
ATOM     13  C   UNL     1      -5.370   2.097  25.481  0.00  0.00    +0.019 C 
ATOM     14  C   UNL     1      -4.749   2.245  24.958  0.00  0.00    +0.012 C 
ENDROOT
BRANCH   9   8
ATOM      8  C   UNL     1      -3.776   3.139  24.415  0.00  0.00    +0.051 C 
BRANCH   8   7
ATOM      5  C   UNL     1      -1.858   3.803  25.076  0.00  0.00    +0.154 A 
ATOM      6  C   UNL     1      -2.366   3.203  24.828  0.00  0.00    +0.054 A 
ATOM      7  C   UNL     1      -3.104   3.541  24.676  0.00  0.00    +0.100 A 
ATOM     26  N   UNL     1      -3.052   4.350  24.831  0.00  0.00    -0.082 NA
ATOM     27  O   UNL     1      -2.281   4.512  25.078  0.00  0.00    -0.358 OA
BRANCH   5   4
ATOM      4  C   UNL     1      -1.066   3.712  25.286  0.00  0.00    +0.067 C 
BRANCH   4   3
ATOM      3  C   UNL     1      -0.837   3.082  25.769  0.00  0.00    +0.008 C 
BRANCH   3   2
ATOM      1  C   UNL     1       0.191   2.389  26.481  0.00  0.00    +0.000 C 
ATOM      2  C   UNL     1      -0.036   2.945  25.914  0.00  0.00    +0.000 C 
ENDBRANCH   3   2
ENDBRANCH   4   3
ENDBRANCH   5   4
ENDBRANCH   8   7
ENDBRANCH   9   8
BRANCH  14  15
ATOM     15  C   UNL     1      -4.479   1.647  24.458  0.00  0.00    +0.087 C 
BRANCH  15  16
ATOM     16  C   UNL     1      -4.734   0.870  24.569  0.00  0.00    +0.242 C 
ATOM     17  O   UNL     1      -5.540   0.705  24.630  0.00  0.00    -0.273 OA
ATOM     18  N   UNL     1      -4.182   0.259  24.619  0.00  0.00    -0.200 NA
BRANCH  18  19
ATOM     19  C   UNL     1      -4.437  -0.518  24.730  0.00  0.00    +0.143 C 
BRANCH  19  20
ATOM     20  C   UNL     1      -3.892  -1.137  24.714  0.00  0.00    +0.019 A 
ATOM     21  C   UNL     1      -4.028  -1.794  24.233  0.00  0.00    +0.001 A 
ATOM     22  C   UNL     1      -3.482  -2.412  24.218  0.00  0.00    +0.020 A 
ATOM     23  C   UNL     1      -2.802  -2.375  24.682  0.00  0.00    +0.099 A 
ATOM     24  N   UNL     1      -2.666  -1.718  25.163  0.00  0.00    -0.243 NA
ATOM     25  C   UNL     1      -3.212  -1.099  25.178  0.00  0.00    +0.096 A 
ENDBRANCH  19  20
ENDBRANCH  18  19
ENDBRANCH  15  16
ENDBRANCH  14  15
TORSDOF 9
ENDMDL
MODEL 2
REMARK VINA RESULT:     -10.3      1.020      4.410
REMARK  Name = 
REMARK  9 active torsions:
REMARK  status: ('A' for Active; 'I' for Inactive)
REMARK    1  A    between atoms: C_2  and  C_3
REMARK    2  A    between atoms: C_3  and  C_4
REMARK    3  A    between atoms: C_4  and  C_5
REMARK    4  A    between atoms: C_7  and  C_8
REMARK    5  A    between atoms: C_8  and  C_9
REMARK    6  A    between atoms: C_14  and  C_15
REMARK    7  A    between atoms: C_15  and  C_16
REMARK    8  A    between atoms: N_18  and  C_19
REMARK    9  A    between atoms: C_19  and  C_20
REMARK                            x       y       z     vdW  Elec       q    Type
REMARK                         _______ _______ _______ _____ _____    ______ ____
ROOT
ATOM      9  C   UNL     1      -4.701   2.032  24.758  0.00  0.00    +0.024 C 
ATOM     10  C   UNL     1      -5.345   1.827  25.230  0.00  0.00    +0.089 C 
ATOM     11  N   UNL     1      -5.698   2.393  25.716  0.00  0.00    -0.218 NA
ATOM     12  C   UNL     1      -5.407   3.164  25.729  0.00  0.00    +0.089 C 
ATOM     13  C   UNL     1      -4.762   3.371  25.257  0.00  0.00    +0.019 C 
ATOM     14  C   UNL     1      -4.409   2.805  24.772  0.00  0.00    +0.012 C 
ENDROOT
BRANCH   9   8
ATOM      8  C   UNL     1      -4.348   1.467  24.273  0.00  0.00    +0.051 C 
BRANCH   8   7
ATOM      5  C   UNL     1      -4.274  -0.654  24.499  0.00  0.00    +0.154 A 
ATOM      6  C   UNL     1      -4.330   0.019  24.025  0.00  0.00    +0.054 A 
ATOM      7  C   UNL     1      -4.308   0.681  24.517  0.00  0.00    +0.100 A 
ATOM     26  N   UNL     1      -4.237   0.417  25.296  0.00  0.00    -0.082 NA
ATOM     27  O   UNL     1      -4.217  -0.407  25.285  0.00  0.00    -0.358 OA
BRANCH   5   4
ATOM      4  C   UNL     1      -4.275  -1.435  24.235  0.00  0.00    +0.067 C 
BRANCH   4   3
ATOM      3  C   UNL     1      -3.691  -1.958  24.493  0.00  0.00    +0.008 C 
BRANCH   3   2
ATOM      1  C   UNL     1      -3.226  -3.305  24.611  0.00  0.00    +0.000 C 
ATOM      2  C   UNL     1      -3.696  -2.742  24.232  0.00  0.00    +0.000 C 
ENDBRANCH   3   2
ENDBRANCH   4   3
ENDBRANCH   5   4
ENDBRANCH   8   7
ENDBRANCH   9   8
BRANCH  14  15
ATOM     15  C   UNL     1      -3.764   3.011  24.299  0.00  0.00    +0.087 C 
BRANCH  15  16
ATOM     16  C   UNL     1      -3.139   3.442  24.621  0.00  0.00    +0.242 C 
ATOM     17  O   UNL     1      -3.245   4.234  24.824  0.00  0.00    -0.273 OA
ATOM     18  N   UNL     1      -2.407   3.079  24.740  0.00  0.00    -0.200 NA
BRANCH  18  19
ATOM     19  C   UNL     1      -1.781   3.510  25.062  0.00  0.00    +0.143 C 
BRANCH  19  20
ATOM     20  C   UNL     1      -1.078   3.128  25.262  0.00  0.00    +0.019 A 
ATOM     21  C   UNL     1      -0.903   2.974  26.054  0.00  0.00    +0.001 A 
ATOM     22  C   UNL     1      -0.199   2.592  26.253  0.00  0.00    +0.020 A 
ATOM     23  C   UNL     1       0.328   2.365  25.662  0.00  0.00    +0.099 A 
ATOM     24  N   UNL     1       0.154   2.518  24.871  0.00  0.00    -0.243 NA
ATOM     25  C   UNL     1      -0.550   2.901  24.671  0.00  0.00    +0.096 A 
ENDBRANCH  19  20
ENDBRANCH  18  19
ENDBRANCH  15  16
ENDBRANCH  14  15
TORSDOF 9
ENDMDL
MODEL 3
REMARK VINA RESULT:     -10.1      1.826      4.651
REMARK  Name = 
REMARK  9 active torsions:
REMARK  status: ('A' for Active; 'I' for Inactive)
REMARK    1  A    between atoms: C_2  and  C_3
REMARK    2  A    between atoms: C_3  and  C_4
REMARK    3  A    between atoms: C_4  and  C_5
REMARK    4  A    between atoms: C_7  and  C_8
REMARK    5  A    between atoms: C_8  and  C_9
REMARK    6  A    between atoms: C_14  and  C_15
REMARK    7  A    between atoms: C_15  and  C_16
REMARK    8  A    between atoms: N_18  and  C_19
REMARK    9  A    between atoms: C_19  and  C_20
REMARK                            x       y       z     vdW  Elec       q    Type
REMARK                         _______ _______ _______ _____ _____    ______ ____
ROOT
ATOM      9  C   UNL     1      -0.876   1.722  24.819  0.00  0.00    +0.024 C 
ATOM     10  C   UNL     1      -0.270   1.552  25.352  0.00  0.00    +0.089 C 
ATOM     11  N   UNL     1      -0.083   2.090  25.949  0.00  0.00    -0.218 NA
ATOM     12  C   UNL     1      -0.501   2.797  26.013  0.00  0.00    +0.089 C 
ATOM     13  C   UNL     1      -1.107   2.968  25.480  0.00  0.00    +0.019 C 
ATOM     14  C   UNL     1      -1.295   2.431  24.883  0.00  0.00    +0.012 C 
ENDROOT
BRANCH   9   8
ATOM      8  C   UNL     1      -1.063   1.185  24.222  0.00  0.00    +0.051 C 
BRANCH   8   7
ATOM      5  C   UNL     1      -1.272  -0.890  24.675  0.00  0.00    +0.154 A 
ATOM      6  C   UNL     1      -1.588  -0.131  24.614  0.00  0.00    +0.054 A 
ATOM      7  C   UNL     1      -0.988   0.375  24.357  0.00  0.00    +0.100 A 
ATOM     26  N   UNL     1      -0.301  -0.072  24.260  0.00  0.00    -0.082 NA
ATOM     27  O   UNL     1      -0.477  -0.854  24.456  0.00  0.00    -0.358 OA
BRANCH   5   4
ATOM      4  C   UNL     1      -1.679  -1.567  24.913  0.00  0.00    +0.067 C 
BRANCH   4   3
ATOM      3  C   UNL     1      -2.406  -1.754  24.570  0.00  0.00    +0.008 C 
BRANCH   3   2
ATOM      1  C   UNL     1      -3.549  -2.607  24.488  0.00  0.00    +0.000 C 
ATOM      2  C   UNL     1      -2.792  -2.453  24.778  0.00  0.00    +0.000 C 
ENDBRANCH   3   2
ENDBRANCH   4   3
ENDBRANCH   5   4
ENDBRANCH   8   7
ENDBRANCH   9   8
BRANCH  14  15
ATOM     15  C   UNL     1      -1.901   2.601  24.349  0.00  0.00    +0.087 C 
BRANCH  15  16
ATOM     16  C   UNL     1      -2.529   3.085  24.580  0.00  0.00    +0.242 C 
ATOM     17  O   UNL     1      -2.407   3.893  24.694  0.00  0.00    -0.273 OA
ATOM     18  N   UNL     1      -3.278   2.759  24.696  0.00  0.00    -0.200 NA
BRANCH  18  19
ATOM     19  C   UNL     1      -3.906   3.243  24.927  0.00  0.00    +0.143 C 
BRANCH  19  20
ATOM     20  C   UNL     1      -4.623   2.905  25.154  0.00  0.00    +0.019 A 
ATOM     21  C   UNL     1      -4.948   2.289  24.711  0.00  0.00    +0.001 A 
ATOM     22  C   UNL     1      -5.665   1.951  24.938  0.00  0.00    +0.020 A 
ATOM     23  C   UNL     1      -6.058   2.229  25.607  0.00  0.00    +0.099 A 
ATOM     24  N   UNL     1      -5.734   2.845  26.050  0.00  0.00    -0.243 NA
ATOM     25  C   UNL     1      -5.016   3.183  25.823  0.00  0.00    +0.096 A 
ENDBRANCH  19  20
ENDBRANCH  18  19
ENDBRANCH  15  16
ENDBRANCH  14  15
TORSDOF 9
ENDMDL
MODEL 4
REMARK VINA RESULT:      -9.9      2.530      6.082
REMARK  Name = 
REMARK  9 active torsions:
REMARK  status: ('A' for Active; 'I' for Inactive)
REMARK    1  A    between atoms: C_2  and  C_3
REMARK    2  A    between atoms: C_3  and  C_4
REMARK    3  A    between atoms: C_4  and  C_5
REMARK    4  A    between atoms: C_7  and  C_8
REMARK    5  A    between atoms: C_8  and  C_9
REMARK    6  A    between atoms: C_14  and  C_15
REMARK    7  A    between atoms: C_15  and  C_16
REMARK    8  A    between atoms: N_18  and  C_19
REMARK    9  A    between atoms: C_19  and  C_20
REMARK                            x       y       z     vdW  Elec       q    Type
REMARK                         _______ _______ _______ _____ _____    ______ ____
ROOT
ATOM      9  C   UNL     1      -0.378  -0.180  24.634  0.00  0.00    +0.024 C 
ATOM     10  C   UNL     1      -0.098  -0.642  24.012  0.00  0.00    +0.089 C 
ATOM     11  N   UNL     1       0.290  -0.288  23.376  0.00  0.00    -0.218 NA
ATOM     12  C   UNL     1       0.396   0.530  23.362  0.00  0.00    +0.089 C 
ATOM     13  C   UNL     1       0.116   0.994  23.984  0.00  0.00    +0.019 C 
ATOM     14  C   UNL     1      -0.272   0.639  24.620  0.00  0.00    +0.012 C 
ENDROOT
BRANCH   9   8
ATOM      8  C   UNL     1      -0.765  -0.534  25.270  0.00  0.00    +0.051 C 
BRANCH   8   7
ATOM      5  C   UNL     1      -2.285  -2.009  24.999  0.00  0.00    +0.154 A 
ATOM      6  C   UNL     1      -2.054  -1.229  25.136  0.00  0.00    +0.054 A 
ATOM      7  C   UNL     1      -1.229  -1.205  25.149  0.00  0.00    +0.100 A 
ATOM     26  N   UNL     1      -0.950  -1.971  25.020  0.00  0.00    -0.082 NA
ATOM     27  O   UNL     1      -1.602  -2.467  24.927  0.00  0.00    -0.358 OA
BRANCH   5   4
ATOM      4  C   UNL     1      -3.061  -2.282  24.943  0.00  0.00    +0.067 C 
BRANCH   4   3
ATOM      3  C   UNL     1      -3.471  -2.215  24.230  0.00  0.00    +0.008 C 
BRANCH   3   2
ATOM      1  C   UNL     1      -4.646  -2.458  23.453  0.00  0.00    +0.000 C 
ATOM      2  C   UNL     1      -4.219  -2.557  24.152  0.00  0.00    +0.000 C 
ENDBRANCH   3   2
ENDBRANCH   4   3
ENDBRANCH   5   4
ENDBRANCH   8   7
ENDBRANCH   9   8
BRANCH  14  15
ATOM     15  C   UNL     1      -0.553   1.103  25.243  0.00  0.00    +0.087 C 
BRANCH  15  16
ATOM     16  C   UNL     1      -0.286   1.878  25.332  0.00  0.00    +0.242 C 
ATOM     17  O   UNL     1       0.519   2.030  25.424  0.00  0.00    -0.273 OA
ATOM     18  N   UNL     1      -0.827   2.501  25.328  0.00  0.00    -0.200 NA
BRANCH  18  19
ATOM     19  C   UNL     1      -0.561   3.278  25.417  0.00  0.00    +0.143 C 
BRANCH  19  20
ATOM     20  C   UNL     1      -1.098   3.903  25.390  0.00  0.00    +0.019 A 
ATOM     21  C   UNL     1      -0.884   4.616  25.034  0.00  0.00    +0.001 A 
ATOM     22  C   UNL     1      -1.422   5.241  25.008  0.00  0.00    +0.020 A 
ATOM     23  C   UNL     1      -2.172   5.154  25.337  0.00  0.00    +0.099 A 
ATOM     24  N   UNL     1      -2.387   4.441  25.693  0.00  0.00    -0.243 NA
ATOM     25  C   UNL     1      -1.849   3.816  25.719  0.00  0.00    +0.096 A 
ENDBRANCH  19  20
ENDBRANCH  18  19
ENDBRANCH  15  16
ENDBRANCH  14  15
TORSDOF 9
ENDMDL
MODEL 5
REMARK VINA RESULT:      -9.9      1.936      5.107
REMARK  Name = 
REMARK  9 active torsions:
REMARK  status: ('A' for Active; 'I' for Inactive)
REMARK    1  A    between atoms: C_2  and  C_3
REMARK    2  A    between atoms: C_3  and  C_4
REMARK    3  A    between atoms: C_4  and  C_5
REMARK    4  A    between atoms: C_7  and  C_8
REMARK    5  A    between atoms: C_8  and  C_9
REMARK    6  A    between atoms: C_14  and  C_15
REMARK    7  A    between atoms: C_15  and  C_16
REMARK    8  A    between atoms: N_18  and  C_19
REMARK    9  A    between atoms: C_19  and  C_20
REMARK                            x       y       z     vdW  Elec       q    Type
REMARK                         _______ _______ _______ _____ _____    ______ ____
ROOT
ATOM      9  C   UNL     1      -0.705   0.756  24.959  0.00  0.00    +0.024 C 
ATOM     10  C   UNL     1      -0.170   0.449  24.411  0.00  0.00    +0.089 C 
ATOM     11  N   UNL     1       0.192   0.947  23.862  0.00  0.00    -0.218 NA
ATOM     12  C   UNL     1       0.019   1.753  23.861  0.00  0.00    +0.089 C 
ATOM     13  C   UNL     1      -0.516   2.062  24.409  0.00  0.00    +0.019 C 
ATOM     14  C   UNL     1      -0.878   1.564  24.957  0.00  0.00    +0.012 C 
ENDROOT
BRANCH   9   8
ATOM      8  C   UNL     1      -1.066   0.258  25.507  0.00  0.00    +0.051 C 
BRANCH   8   7
ATOM      5  C   UNL     1      -1.763  -1.680  24.947  0.00  0.00    +0.154 A 
ATOM      6  C   UNL     1      -1.891  -0.873  25.057  0.00  0.00    +0.054 A 
ATOM      7  C   UNL     1      -1.186  -0.538  25.326  0.00  0.00    +0.100 A 
ATOM     26  N   UNL     1      -0.622  -1.138  25.381  0.00  0.00    -0.082 NA
ATOM     27  O   UNL     1      -0.979  -1.844  25.147  0.00  0.00    -0.358 OA
BRANCH   5   4
ATOM      4  C   UNL     1      -2.320  -2.228  24.683  0.00  0.00    +0.067 C 
BRANCH   4   3
ATOM      3  C   UNL     1      -3.098  -1.991  24.545  0.00  0.00    +0.008 C 
BRANCH   3   2
ATOM      1  C   UNL     1      -4.315  -2.301  23.861  0.00  0.00    +0.000 C 
ATOM      2  C   UNL     1      -3.661  -2.544  24.302  0.00  0.00    +0.000 C 
ENDBRANCH   3   2
ENDBRANCH   4   3
ENDBRANCH   5   4
ENDBRANCH   8   7
ENDBRANCH   9   8
BRANCH  14  15
ATOM     15  C   UNL     1      -1.413   1.872  25.506  0.00  0.00    +0.087 C 
BRANCH  15  16
ATOM     16  C   UNL     1      -1.924   2.480  25.285  0.00  0.00    +0.242 C 
ATOM     17  O   UNL     1      -1.621   3.217  25.070  0.00  0.00    -0.273 OA
ATOM     18  N   UNL     1      -2.739   2.351  25.279  0.00  0.00    -0.200 NA
BRANCH  18  19
ATOM     19  C   UNL     1      -3.251   2.960  25.057  0.00  0.00    +0.143 C 
BRANCH  19  20
ATOM     20  C   UNL     1      -4.067   2.855  25.122  0.00  0.00    +0.019 A 
ATOM     21  C   UNL     1      -4.443   2.266  24.682  0.00  0.00    +0.001 A 
ATOM     22  C   UNL     1      -5.258   2.161  24.747  0.00  0.00    +0.020 A 
ATOM     23  C   UNL     1      -5.698   2.644  25.249  0.00  0.00    +0.099 A 
ATOM     24  N   UNL     1      -5.322   3.233  25.689  0.00  0.00    -0.243 NA
ATOM     25  C   UNL     1      -4.506   3.338  25.625  0.00  0.00    +0.096 A 
ENDBRANCH  19  20
ENDBRANCH  18  19
ENDBRANCH  15  16
ENDBRANCH  14  15
TORSDOF 9
ENDMDL
MODEL 6
REMARK VINA RESULT:      -9.9      1.583      3.424
REMARK  Name = 
REMARK  9 active torsions:
REMARK  status: ('A' for Active; 'I' for Inactive)
REMARK    1  A    between atoms: C_2  and  C_3
REMARK    2  A    between atoms: C_3  and  C_4
REMARK    3  A    between atoms: C_4  and  C_5
REMARK    4  A    between atoms: C_7  and  C_8
REMARK    5  A    between atoms: C_8  and  C_9
REMARK    6  A    between atoms: C_14  and  C_15
REMARK    7  A    between atoms: C_15  and  C_16
REMARK    8  A    between atoms: N_18  and  C_19
REMARK    9  A    between atoms: C_19  and  C_20
REMARK                            x       y       z     vdW  Elec       q    Type
REMARK                         _______ _______ _______ _____ _____    ______ ____
ROOT
ATOM      9  C   UNL     1      -1.376   2.554  24.974  0.00  0.00    +0.024 C 
ATOM     10  C   UNL     1      -1.194   3.131  25.535  0.00  0.00    +0.089 C 
ATOM     11  N   UNL     1      -0.601   2.993  26.093  0.00  0.00    -0.218 NA
ATOM     12  C   UNL     1      -0.191   2.278  26.089  0.00  0.00    +0.089 C 
ATOM     13  C   UNL     1      -0.372   1.700  25.529  0.00  0.00    +0.019 C 
ATOM     14  C   UNL     1      -0.964   1.838  24.971  0.00  0.00    +0.012 C 
ENDROOT
BRANCH   9   8
ATOM      8  C   UNL     1      -1.967   2.692  24.417  0.00  0.00    +0.051 C 
BRANCH   8   7
ATOM      5  C   UNL     1      -3.914   3.324  25.024  0.00  0.00    +0.154 A 
ATOM      6  C   UNL     1      -3.373   2.727  24.844  0.00  0.00    +0.054 A 
ATOM      7  C   UNL     1      -2.658   3.085  24.638  0.00  0.00    +0.100 A 
ATOM     26  N   UNL     1      -2.757   3.903  24.691  0.00  0.00    -0.082 NA
ATOM     27  O   UNL     1      -3.532   4.050  24.930  0.00  0.00    -0.358 OA
BRANCH   5   4
ATOM      4  C   UNL     1      -4.697   3.214  25.258  0.00  0.00    +0.067 C 
BRANCH   4   3
ATOM      3  C   UNL     1      -5.088   2.512  25.073  0.00  0.00    +0.008 C 
BRANCH   3   2
ATOM      1  C   UNL     1      -6.260   1.696  25.138  0.00  0.00    +0.000 C 
ATOM      2  C   UNL     1      -5.847   2.373  25.367  0.00  0.00    +0.000 C 
ENDBRANCH   3   2
ENDBRANCH   4   3
ENDBRANCH   5   4
ENDBRANCH   8   7
ENDBRANCH   9   8
BRANCH  14  15
ATOM     15  C   UNL     1      -1.146   1.261  24.410  0.00  0.00    +0.087 C 
BRANCH  15  16
ATOM     16  C   UNL     1      -1.016   0.464  24.582  0.00  0.00    +0.242 C 
ATOM     17  O   UNL     1      -0.246   0.177  24.652  0.00  0.00    -0.273 OA
ATOM     18  N   UNL     1      -1.658  -0.044  24.682  0.00  0.00    -0.200 NA
BRANCH  18  19
ATOM     19  C   UNL     1      -1.528  -0.842  24.854  0.00  0.00    +0.143 C 
BRANCH  19  20
ATOM     20  C   UNL     1      -2.167  -1.361  24.902  0.00  0.00    +0.019 A 
ATOM     21  C   UNL     1      -2.831  -1.159  25.348  0.00  0.00    +0.001 A 
ATOM     22  C   UNL     1      -3.470  -1.679  25.396  0.00  0.00    +0.020 A 
ATOM     23  C   UNL     1      -3.445  -2.400  24.997  0.00  0.00    +0.099 A 
ATOM     24  N   UNL     1      -2.782  -2.602  24.551  0.00  0.00    -0.243 NA
ATOM     25  C   UNL     1      -2.143  -2.082  24.503  0.00  0.00    +0.096 A 
ENDBRANCH  19  20
ENDBRANCH  18  19
ENDBRANCH  15  16
ENDBRANCH  14  15
TORSDOF 9
ENDMDL
MODEL 7
REMARK VINA RESULT:      -9.8      1.786      3.788
REMARK  Name = 
REMARK  9 active torsions:
REMARK  status: ('A' for Active; 'I' for Inactive)
REMARK    1  A    between atoms: C_2  and  C_3
REMARK    2  A    between atoms: C_3  and  C_4
REMARK    3  A    between atoms: C_4  and  C_5
REMARK    4  A    between atoms: C_7  and  C_8
REMARK    5  A    between atoms: C_8  and  C_9
REMARK    6  A    between atoms: C_14  and  C_15
REMARK    7  A    between atoms: C_15  and  C_16
REMARK    8  A    between atoms: N_18  and  C_19
REMARK    9  A    between atoms: C_19  and  C_20
REMARK                            x       y       z     vdW  Elec       q    Type
REMARK                         _______ _______ _______ _____ _____    ______ ____
ROOT
ATOM      9  C   UNL     1      -3.318   3.289  24.861  0.00  0.00    +0.024 C 
ATOM     10  C   UNL     1      -3.744   3.582  25.503  0.00  0.00    +0.089 C 
ATOM     11  N   UNL     1      -3.357   4.002  26.099  0.00  0.00    -0.218 NA
ATOM     12  C   UNL     1      -2.544   4.128  26.051  0.00  0.00    +0.089 C 
ATOM     13  C   UNL     1      -2.116   3.835  25.409  0.00  0.00    +0.019 C 
ATOM     14  C   UNL     1      -2.504   3.415  24.814  0.00  0.00    +0.012 C 
ENDROOT
BRANCH   9   8
ATOM      8  C   UNL     1      -3.705   2.870  24.266  0.00  0.00    +0.051 C 
BRANCH   8   7
ATOM      5  C   UNL     1      -4.699   1.037  24.725  0.00  0.00    +0.154 A 
ATOM      6  C   UNL     1      -4.020   1.456  24.516  0.00  0.00    +0.054 A 
ATOM      7  C   UNL     1      -4.219   2.255  24.462  0.00  0.00    +0.100 A 
ATOM     26  N   UNL     1      -5.022   2.330  24.637  0.00  0.00    -0.082 NA
ATOM     27  O   UNL     1      -5.319   1.578  24.800  0.00  0.00    -0.358 OA
BRANCH   5   4
ATOM      4  C   UNL     1      -4.751   0.222  24.839  0.00  0.00    +0.067 C 
BRANCH   4   3
ATOM      3  C   UNL     1      -4.278  -0.288  24.394  0.00  0.00    +0.008 C 
BRANCH   3   2
ATOM      1  C   UNL     1      -4.018  -1.636  23.996  0.00  0.00    +0.000 C 
ATOM      2  C   UNL     1      -4.264  -1.094  24.568  0.00  0.00    +0.000 C 
ENDBRANCH   3   2
ENDBRANCH   4   3
ENDBRANCH   5   4
ENDBRANCH   8   7
ENDBRANCH   9   8
BRANCH  14  15
ATOM     15  C   UNL     1      -2.077   3.121  24.171  0.00  0.00    +0.087 C 
BRANCH  15  16
ATOM     16  C   UNL     1      -1.324   2.805  24.286  0.00  0.00    +0.242 C 
ATOM     17  O   UNL     1      -0.691   3.302  24.469  0.00  0.00    -0.273 OA
ATOM     18  N   UNL     1      -1.205   1.992  24.219  0.00  0.00    -0.200 NA
BRANCH  18  19
ATOM     19  C   UNL     1      -0.451   1.675  24.334  0.00  0.00    +0.143 C 
BRANCH  19  20
ATOM     20  C   UNL     1      -0.335   0.860  24.286  0.00  0.00    +0.019 A 
ATOM     21  C   UNL     1      -0.631   0.366  24.878  0.00  0.00    +0.001 A 
ATOM     22  C   UNL     1      -0.515  -0.450  24.829  0.00  0.00    +0.020 A 
ATOM     23  C   UNL     1      -0.105  -0.771  24.191  0.00  0.00    +0.099 A 
ATOM     24  N   UNL     1       0.190  -0.278  23.599  0.00  0.00    -0.243 NA
ATOM     25  C   UNL     1       0.075   0.538  23.647  0.00  0.00    +0.096 A 
ENDBRANCH  19  20
ENDBRANCH  18  19
ENDBRANCH  15  16
ENDBRANCH  14  15
TORSDOF 9
ENDMDL
MODEL 8
REMARK VINA RESULT:      -9.7      2.155      4.570
REMARK  Name = 
REMARK  9 active torsions:
REMARK  status: ('A' for Active; 'I' for Inactive)
REMARK    1  A    between atoms: C_2  and  C_3
REMARK    2  A    between atoms: C_3  and  C_4
REMARK    3  A    between atoms: C_4  and  C_5
REMARK    4  A    between atoms: C_7  and  C_8
REMARK    5  A    between atoms: C_8  and  C_9
REMARK    6  A    between atoms: C_14  and  C_15
REMARK    7  A    between atoms: C_15  and  C_16
REMARK    8  A    between atoms: N_18  and  C_19
REMARK    9  A    between atoms: C_19  and  C_20
REMARK                            x       y       z     vdW  Elec       q    Type
REMARK                         _______ _______ _______ _____ _____    ______ ____
ROOT
ATOM      9  C   UNL     1      -3.027  -1.382  24.906  0.00  0.00    +0.024 C 
ATOM     10  C   UNL     1      -2.890  -2.066  24.465  0.00  0.00    +0.089 C 
ATOM     11  N   UNL     1      -3.479  -2.362  23.969  0.00  0.00    -0.218 NA
ATOM     12  C   UNL     1      -4.204  -1.975  23.913  0.00  0.00    +0.089 C 
ATOM     13  C   UNL     1      -4.342  -1.291  24.354  0.00  0.00    +0.019 C 
ATOM     14  C   UNL     1      -3.754  -0.994  24.850  0.00  0.00    +0.012 C 
ENDROOT
BRANCH   9   8
ATOM      8  C   UNL     1      -2.439  -1.087  25.402  0.00  0.00    +0.051 C 
BRANCH   8   7
ATOM      5  C   UNL     1      -0.490  -0.681  24.632  0.00  0.00    +0.154 A 
ATOM      6  C   UNL     1      -1.266  -0.449  24.787  0.00  0.00    +0.054 A 
ATOM      7  C   UNL     1      -1.653  -1.080  25.152  0.00  0.00    +0.100 A 
ATOM     26  N   UNL     1      -1.115  -1.702  25.223  0.00  0.00    -0.082 NA
ATOM     27  O   UNL     1      -0.397  -1.456  24.902  0.00  0.00    -0.358 OA
BRANCH   5   4
ATOM      4  C   UNL     1       0.091  -0.220  24.272  0.00  0.00    +0.067 C 
BRANCH   4   3
ATOM      3  C   UNL     1       0.358  -0.411  23.514  0.00  0.00    +0.008 C 
BRANCH   3   2
ATOM      1  C   UNL     1       1.316  -0.195  22.475  0.00  0.00    +0.000 C 
ATOM      2  C   UNL     1       0.898   0.082  23.131  0.00  0.00    +0.000 C 
ENDBRANCH   3   2
ENDBRANCH   4   3
ENDBRANCH   5   4
ENDBRANCH   8   7
ENDBRANCH   9   8
BRANCH  14  15
ATOM     15  C   UNL     1      -3.891  -0.310  25.291  0.00  0.00    +0.087 C 
BRANCH  15  16
ATOM     16  C   UNL     1      -4.428   0.254  25.019  0.00  0.00    +0.242 C 
ATOM     17  O   UNL     1      -5.184   0.023  24.782  0.00  0.00    -0.273 OA
ATOM     18  N   UNL     1      -4.209   1.048  24.986  0.00  0.00    -0.200 NA
BRANCH  18  19
ATOM     19  C   UNL     1      -4.747   1.613  24.714  0.00  0.00    +0.143 C 
BRANCH  19  20
ATOM     20  C   UNL     1      -4.537   2.410  24.704  0.00  0.00    +0.019 A 
ATOM     21  C   UNL     1      -4.037   2.697  24.112  0.00  0.00    +0.001 A 
ATOM     22  C   UNL     1      -3.826   3.494  24.102  0.00  0.00    +0.020 A 
ATOM     23  C   UNL     1      -4.114   4.005  24.681  0.00  0.00    +0.099 A 
ATOM     24  N   UNL     1      -4.614   3.719  25.272  0.00  0.00    -0.243 NA
ATOM     25  C   UNL     1      -4.825   2.921  25.283  0.00  0.00    +0.096 A 
ENDBRANCH  19  20
ENDBRANCH  18  19
ENDBRANCH  15  16
ENDBRANCH  14  15
TORSDOF 9
ENDMDL
MODEL 9
REMARK VINA RESULT:      -9.7      1.691      3.725
REMARK  Name = 
REMARK  9 active torsions:
REMARK  status: ('A' for Active; 'I' for Inactive)
REMARK    1  A    between atoms: C_2  and  C_3
REMARK    2  A    between atoms: C_3  and  C_4
REMARK    3  A    between atoms: C_4  and  C_5
REMARK    4  A    between atoms: C_7  and  C_8
REMARK    5  A    between atoms: C_8  and  C_9
REMARK    6  A    between atoms: C_14  and  C_15
REMARK    7  A    between atoms: C_15  and  C_16
REMARK    8  A    between atoms: N_18  and  C_19
REMARK    9  A    between atoms: C_19  and  C_20
REMARK                            x       y       z     vdW  Elec       q    Type
REMARK                         _______ _______ _______ _____ _____    ______ ____
ROOT
ATOM      9  C   UNL     1      -1.672   0.120  24.641  0.00  0.00    +0.024 C 
ATOM     10  C   UNL     1      -1.111  -0.182  25.164  0.00  0.00    +0.089 C 
ATOM     11  N   UNL     1      -1.342  -0.696  25.767  0.00  0.00    -0.218 NA
ATOM     12  C   UNL     1      -2.135  -0.907  25.846  0.00  0.00    +0.089 C 
ATOM     13  C   UNL     1      -2.698  -0.606  25.323  0.00  0.00    +0.019 C 
ATOM     14  C   UNL     1      -2.466  -0.093  24.720  0.00  0.00    +0.012 C 
ENDROOT
BRANCH   9   8
ATOM      8  C   UNL     1      -1.441   0.633  24.039  0.00  0.00    +0.051 C 
BRANCH   8   7
ATOM      5  C   UNL     1      -0.449   2.491  24.384  0.00  0.00    +0.154 A 
ATOM      6  C   UNL     1      -1.124   2.061  24.184  0.00  0.00    +0.054 A 
ATOM      7  C   UNL     1      -0.930   1.259  24.203  0.00  0.00    +0.100 A 
ATOM     26  N   UNL     1      -0.135   1.193  24.415  0.00  0.00    -0.082 NA
ATOM     27  O   UNL     1       0.162   1.955  24.527  0.00  0.00    -0.358 OA
BRANCH   5   4
ATOM      4  C   UNL     1      -0.395   3.312  24.434  0.00  0.00    +0.067 C 
BRANCH   4   3
ATOM      3  C   UNL     1      -0.931   3.734  24.898  0.00  0.00    +0.008 C 
BRANCH   3   2
ATOM      1  C   UNL     1      -1.524   4.988  25.242  0.00  0.00    +0.000 C 
ATOM      2  C   UNL     1      -0.898   4.559  24.919  0.00  0.00    +0.000 C 
ENDBRANCH   3   2
ENDBRANCH   4   3
ENDBRANCH   5   4
ENDBRANCH   8   7
ENDBRANCH   9   8
BRANCH  14  15
ATOM     15  C   UNL     1      -3.029   0.209  24.196  0.00  0.00    +0.087 C 
BRANCH  15  16
ATOM     16  C   UNL     1      -3.803   0.334  24.451  0.00  0.00    +0.242 C 
ATOM     17  O   UNL     1      -4.315  -0.306  24.546  0.00  0.00    -0.273 OA
ATOM     18  N   UNL     1      -4.065   1.100  24.609  0.00  0.00    -0.200 NA
BRANCH  18  19
ATOM     19  C   UNL     1      -4.841   1.226  24.864  0.00  0.00    +0.143 C 
BRANCH  19  20
ATOM     20  C   UNL     1      -5.068   1.969  25.140  0.00  0.00    +0.019 A 
ATOM     21  C   UNL     1      -4.741   2.650  24.806  0.00  0.00    +0.001 A 
ATOM     22  C   UNL     1      -4.968   3.394  25.082  0.00  0.00    +0.020 A 
ATOM     23  C   UNL     1      -5.521   3.457  25.689  0.00  0.00    +0.099 A 
ATOM     24  N   UNL     1      -5.848   2.777  26.023  0.00  0.00    -0.243 NA
ATOM     25  C   UNL     1      -5.621   2.033  25.747  0.00  0.00    +0.096 A 
ENDBRANCH  19  20
ENDBRANCH  18  19
ENDBRANCH  15  16
ENDBRANCH  14  15
TORSDOF 9
ENDMDL
MODEL 10
REMARK VINA RESULT:      -6.6     18.231     19.105
REMARK  Name = 
REMARK  9 active torsions:
REMARK  status: ('A' for Active; 'I' for Inactive)
REMARK    1  A    between atoms: C_2  and  C_3
REMARK    2  A    between atoms: C_3  and  C_4
REMARK    3  A    between atoms: C_4  and  C_5
REMARK    4  A    between atoms: C_7  and  C_8
REMARK    5  A    between atoms: C_8  and  C_9
REMARK    6  A    between atoms: C_14  and  C_15
REMARK    7  A    between atoms: C_15  and  C_16
REMARK    8  A    between atoms: N_18  and  C_19
REMARK    9  A    between atoms: C_19  and  C_20
REMARK                            x       y       z     vdW  Elec       q    Type
REMARK                         _______ _______ _______ _____ _____    ______ ____
ROOT
ATOM      9  C   UNL     1      -6.434  -8.761   9.798  0.00  0.00    +0.024 C 
ATOM     10  C   UNL     1      -6.349  -9.357  10.362  0.00  0.00    +0.089 C 
ATOM     11  N   UNL     1      -7.011  -9.773  10.626  0.00  0.00    -0.218 NA
ATOM     12  C   UNL     1      -7.758  -9.593  10.326  0.00  0.00    +0.089 C 
ATOM     13  C   UNL     1      -7.844  -8.997   9.761  0.00  0.00    +0.019 C 
ATOM     14  C   UNL     1      -7.182  -8.581   9.497  0.00  0.00    +0.012 C 
ENDROOT
BRANCH   9   8
ATOM      8  C   UNL     1      -5.773  -8.346   9.534  0.00  0.00    +0.051 C 
BRANCH   8   7
ATOM      5  C   UNL     1      -3.781  -9.064   9.803  0.00  0.00    +0.154 A 
ATOM      6  C   UNL     1      -4.408  -8.578  10.029  0.00  0.00    +0.054 A 
ATOM      7  C   UNL     1      -5.036  -8.715   9.510  0.00  0.00    +0.100 A 
ATOM     26  N   UNL     1      -4.796  -9.286   8.964  0.00  0.00    -0.082 NA
ATOM     27  O   UNL     1      -4.021  -9.501   9.145  0.00  0.00    -0.358 OA
BRANCH   5   4
ATOM      4  C   UNL     1      -3.044  -9.105  10.170  0.00  0.00    +0.067 C 
BRANCH   4   3
ATOM      3  C   UNL     1      -2.892  -9.697  10.726  0.00  0.00    +0.008 C 
BRANCH   3   2
ATOM      1  C   UNL     1      -2.030 -10.217  11.740  0.00  0.00    +0.000 C 
ATOM      2  C   UNL     1      -2.139  -9.768  11.057  0.00  0.00    +0.000 C 
ENDBRANCH   3   2
ENDBRANCH   4   3
ENDBRANCH   5   4
ENDBRANCH   8   7
ENDBRANCH   9   8
BRANCH  14  15
ATOM     15  C   UNL     1      -7.267  -7.985   8.933  0.00  0.00    +0.087 C 
BRANCH  15  16
ATOM     16  C   UNL     1      -8.008  -7.832   8.604  0.00  0.00    +0.242 C 
ATOM     17  O   UNL     1      -8.371  -8.396   8.124  0.00  0.00    -0.273 OA
ATOM     18  N   UNL     1      -8.385  -7.114   8.756  0.00  0.00    -0.200 NA
BRANCH  18  19
ATOM     19  C   UNL     1      -9.127  -6.961   8.427  0.00  0.00    +0.143 C 
BRANCH  19  20
ATOM     20  C   UNL     1      -9.521  -6.260   8.611  0.00  0.00    +0.019 A 
ATOM     21  C   UNL     1      -9.205  -5.535   8.374  0.00  0.00    +0.001 A 
ATOM     22  C   UNL     1      -9.599  -4.834   8.558  0.00  0.00    +0.020 A 
ATOM     23  C   UNL     1     -10.308  -4.857   8.977  0.00  0.00    +0.099 A 
ATOM     24  N   UNL     1     -10.625  -5.581   9.213  0.00  0.00    -0.243 NA
ATOM     25  C   UNL     1     -10.230  -6.283   9.030  0.00  0.00    +0.096 A 
ENDBRANCH  19  20
ENDBRANCH  18  19
ENDBRANCH  15  16
ENDBRANCH  14  15
TORSDOF 9
ENDMDL
