REMARK  Name = 
REMARK  8 active torsions:
REMARK  status: ('A' for Active; 'I' for Inactive)
REMARK    1  A    between atoms: C_2  and  C_3
REMARK    2  A    between atoms: C_2  and  C_19
REMARK    3  A    between atoms: N_9  and  C_10
REMARK    4  A    between atoms: C_10  and  C_11
REMARK    5  A    between atoms: C_11  and  C_12
REMARK    6  A    between atoms: C_12  and  C_13
REMARK    7  A    between atoms: C_22  and  N_23
REMARK    8  A    between atoms: C_24  and  C_26
REMARK                            x       y       z     vdW  Elec       q    Type
REMARK                         _______ _______ _______ _____ _____    ______ ____
ROOT
ATOM      1  O   UNL     1       0.000   9.654   0.000  0.00  0.00    -0.216 OA
ATOM      2  C   UNL     1      -0.715   9.241   0.000  0.00  0.00    +0.195 C 
ENDROOT
BRANCH   2   3
ATOM      3  C   UNL     1      -1.429   9.654   0.000  0.00  0.00    +0.139 C 
ATOM      4  C   UNL     1      -2.143   9.241   0.000  0.00  0.00    +0.165 C 
ATOM      5  O   UNL     1      -2.858   9.654   0.000  0.00  0.00    -0.343 OA
ATOM      6  C   UNL     1      -2.858  10.479   0.000  0.00  0.00    +0.227 C 
ATOM      7  C   UNL     1      -2.143  10.891   0.000  0.00  0.00    +0.256 C 
ATOM      8  O   UNL     1      -2.143  11.716   0.000  0.00  0.00    -0.272 OA
ATOM      9  N   UNL     1      -1.429  10.479   0.000  0.00  0.00    -0.274 N 
BRANCH   9  10
ATOM     10  C   UNL     1      -0.715  10.891   0.000  0.00  0.00    +0.094 C 
BRANCH  10  11
ATOM     11  C   UNL     1      -0.715  11.716   0.000  0.00  0.00    +0.026 C 
BRANCH  11  12
ATOM     12  C   UNL     1       0.000  12.129   0.000  0.00  0.00    +0.028 C 
BRANCH  12  13
ATOM     13  C   UNL     1       0.000  12.954   0.000  0.00  0.00    -0.022 A 
ATOM     14  C   UNL     1      -0.715  13.366   0.000  0.00  0.00    -0.004 A 
ATOM     15  C   UNL     1      -0.715  14.191   0.000  0.00  0.00    -0.000 A 
ATOM     16  C   UNL     1       0.000  14.604   0.000  0.00  0.00    -0.000 A 
ATOM     17  C   UNL     1       0.715  14.191   0.000  0.00  0.00    -0.000 A 
ATOM     18  C   UNL     1       0.715  13.366   0.000  0.00  0.00    -0.004 A 
ENDBRANCH  12  13
ENDBRANCH  11  12
ENDBRANCH  10  11
ENDBRANCH   9  10
ENDBRANCH   2   3
BRANCH   2  19
ATOM     19  C   UNL     1      -0.715   8.416   0.000  0.00  0.00    +0.010 A 
ATOM     20  C   UNL     1       0.000   8.004   0.000  0.00  0.00    -0.000 A 
ATOM     21  C   UNL     1       0.000   7.179   0.000  0.00  0.00    +0.016 A 
ATOM     22  C   UNL     1      -0.715   6.766   0.000  0.00  0.00    +0.074 A 
ATOM     31  C   UNL     1      -1.429   7.179   0.000  0.00  0.00    +0.016 A 
ATOM     32  C   UNL     1      -1.429   8.004   0.000  0.00  0.00    -0.000 A 
BRANCH  22  23
ATOM     23  N   UNL     1      -0.715   5.941   0.000  0.00  0.00    -0.175 NA
ATOM     24  C   UNL     1       0.000   5.529   0.000  0.00  0.00    +0.275 C 
ATOM     25  O   UNL     1       0.715   5.941   0.000  0.00  0.00    -0.267 OA
BRANCH  24  26
ATOM     26  C   UNL     1       0.000   4.704   0.000  0.00  0.00    +0.085 A 
ATOM     27  C   UNL     1       0.667   4.219   0.000  0.00  0.00    +0.012 A 
ATOM     28  C   UNL     1       0.412   3.434   0.000  0.00  0.00    +0.008 A 
ATOM     29  C   UNL     1      -0.412   3.434   0.000  0.00  0.00    +0.036 A 
ATOM     30  S   UNL     1      -0.667   4.219   0.000  0.00  0.00    -0.082 S 
ENDBRANCH  24  26
ENDBRANCH  22  23
ENDBRANCH   2  19
TORSDOF 8
