REMARK  Name = 
REMARK  5 active torsions:
REMARK  status: ('A' for Active; 'I' for Inactive)
REMARK    1  A    between atoms: C_3  and  C_4
REMARK    2  A    between atoms: C_4  and  N_5
REMARK    3  A    between atoms: C_6  and  C_8
REMARK    4  A    between atoms: C_13  and  N_14
REMARK    5  A    between atoms: N_14  and  C_15
REMARK                            x       y       z     vdW  Elec       q    Type
REMARK                         _______ _______ _______ _____ _____    ______ ____
ROOT
ATOM      1  O   UNL     1      -4.179   4.219   0.000  0.00  0.00    -0.219 OA
ATOM      2  C   UNL     1      -4.793   3.667   0.000  0.00  0.00    +0.199 C 
ATOM      3  C   UNL     1      -4.706   2.846   0.000  0.00  0.00    +0.169 C 
ATOM     11  O   UNL     1      -5.460   2.511   0.000  0.00  0.00    -0.350 OA
ATOM     12  C   UNL     1      -6.012   3.124   0.000  0.00  0.00    +0.162 C 
ATOM     13  C   UNL     1      -5.599   3.838   0.000  0.00  0.00    +0.135 C 
ENDROOT
BRANCH   3   4
ATOM      4  C   UNL     1      -3.992   2.434   0.000  0.00  0.00    +0.147 C 
BRANCH   4   5
ATOM      5  N   UNL     1      -3.992   1.609   0.000  0.00  0.00    -0.203 NA
ATOM      6  C   UNL     1      -3.277   1.196   0.000  0.00  0.00    +0.241 C 
ATOM      7  O   UNL     1      -2.563   1.609   0.000  0.00  0.00    -0.273 OA
BRANCH   6   8
ATOM      8  C   UNL     1      -3.277   0.371   0.000  0.00  0.00    +0.078 C 
ATOM      9  C   UNL     1      -2.865  -0.343   0.000  0.00  0.00    +0.010 C 
ATOM     10  C   UNL     1      -3.690  -0.343   0.000  0.00  0.00    +0.010 C 
ENDBRANCH   6   8
ENDBRANCH   4   5
ENDBRANCH   3   4
BRANCH  13  14
ATOM     14  N   UNL     1      -5.935   4.592   0.000  0.00  0.00    -0.211 NA
BRANCH  14  15
ATOM     15  C   UNL     1      -5.450   5.259   0.000  0.00  0.00    +0.132 C 
ATOM     16  C   UNL     1      -5.579   6.074   0.000  0.00  0.00    +0.162 C 
ATOM     17  O   UNL     1      -4.764   6.203   0.000  0.00  0.00    -0.351 OA
ATOM     18  C   UNL     1      -4.635   5.388   0.000  0.00  0.00    +0.162 C 
ENDBRANCH  14  15
ENDBRANCH  13  14
TORSDOF 5
