REMARK  Name = 
REMARK  5 active torsions:
REMARK  status: ('A' for Active; 'I' for Inactive)
REMARK    1  A    between atoms: S_2  and  N_5
REMARK    2  A    between atoms: C_8  and  C_10
REMARK    3  A    between atoms: N_12  and  N_13
REMARK    4  A    between atoms: C_14  and  C_16
REMARK    5  A    between atoms: C_16  and  C_17
REMARK                            x       y       z     vdW  Elec       q    Type
REMARK                         _______ _______ _______ _____ _____    ______ ____
ROOT
ATOM     10  C   UNL     1       2.143  -3.712   0.000  0.00  0.00    +0.262 C 
ATOM     11  O   UNL     1       2.143  -2.888   0.000  0.00  0.00    -0.272 OA
ATOM     12  N   UNL     1       2.858  -4.125   0.000  0.00  0.00    -0.088 NA
ENDROOT
BRANCH  10   8
ATOM      5  N   UNL     1       0.536  -5.117   0.000  0.00  0.00    -0.159 NA
ATOM      6  C   UNL     1       0.123  -4.402   0.000  0.00  0.00    +0.096 C 
ATOM      7  C   UNL     1       0.675  -3.789   0.000  0.00  0.00    +0.030 C 
ATOM      8  C   UNL     1       1.429  -4.125   0.000  0.00  0.00    +0.099 C 
ATOM      9  C   UNL     1       1.343  -4.946   0.000  0.00  0.00    +0.105 C 
BRANCH   5   2
ATOM      1  C   UNL     1      -0.135  -6.624   0.000  0.00  0.00    +0.196 C 
ATOM      2  S   UNL     1       0.200  -5.871   0.000  0.00  0.00    +0.046 S 
ATOM      3  O   UNL     1       0.954  -6.206   0.000  0.00  0.00    -0.157 OA
ATOM      4  O   UNL     1      -0.553  -5.535   0.000  0.00  0.00    -0.157 OA
ENDBRANCH   5   2
ENDBRANCH  10   8
BRANCH  12  13
ATOM     13  N   UNL     1       3.572  -3.712   0.000  0.00  0.00    -0.087 NA
ATOM     14  C   UNL     1       4.287  -4.125   0.000  0.00  0.00    +0.265 C 
ATOM     15  O   UNL     1       4.287  -4.950   0.000  0.00  0.00    -0.271 OA
BRANCH  14  16
ATOM     16  C   UNL     1       5.001  -3.712   0.000  0.00  0.00    +0.115 C 
BRANCH  16  17
ATOM     17  C   UNL     1       5.716  -4.125   0.000  0.00  0.00    -0.013 A 
ATOM     18  C   UNL     1       6.430  -3.712   0.000  0.00  0.00    -0.004 A 
ATOM     19  C   UNL     1       7.145  -4.125   0.000  0.00  0.00    -0.000 A 
ATOM     20  C   UNL     1       7.145  -4.950   0.000  0.00  0.00    -0.000 A 
ATOM     21  C   UNL     1       6.430  -5.362   0.000  0.00  0.00    -0.000 A 
ATOM     22  C   UNL     1       5.716  -4.950   0.000  0.00  0.00    -0.004 A 
ENDBRANCH  16  17
ENDBRANCH  14  16
ENDBRANCH  12  13
TORSDOF 5
