MODEL 1
REMARK VINA RESULT:     -15.3      0.000      0.000
REMARK  Name = 
REMARK  6 active torsions:
REMARK  status: ('A' for Active; 'I' for Inactive)
REMARK    1  A    between atoms: C_2  and  C_4
REMARK    2  A    between atoms: C_8  and  C_10
REMARK    3  A    between atoms: C_21  and  N_22
REMARK    4  A    between atoms: C_23  and  C_25
REMARK    5  A    between atoms: C_25  and  O_26
REMARK    6  A    between atoms: O_26  and  C_27
REMARK                            x       y       z     vdW  Elec       q    Type
REMARK                         _______ _______ _______ _____ _____    ______ ____
ROOT
ATOM     10  C   UNL     1      -3.897   0.251  24.729  0.00  0.00    +0.249 C 
ATOM     11  O   UNL     1      -3.356   0.652  24.250  0.00  0.00    -0.270 OA
ATOM     12  N   UNL     1      -4.590   0.628  24.973  0.00  0.00    -0.276 N 
ATOM     13  C   UNL     1      -5.325   0.736  25.354  0.00  0.00    +0.096 C 
ATOM     14  C   UNL     1      -5.519   1.665  25.081  0.00  0.00    +0.043 C 
ATOM     15  C   UNL     1      -5.821   2.410  24.946  0.00  0.00    +0.011 C 
ATOM     16  C   UNL     1      -5.250   2.042  24.769  0.00  0.00    +0.058 C 
ATOM     17  C   UNL     1      -5.077   1.143  25.042  0.00  0.00    +0.099 C 
ATOM     18  C   UNL     1      -4.469   2.109  24.290  0.00  0.00    +0.041 A 
ATOM     19  C   UNL     1      -4.047   2.643  23.824  0.00  0.00    +0.014 A 
ATOM     20  C   UNL     1      -3.323   2.423  23.497  0.00  0.00    +0.023 A 
ATOM     21  C   UNL     1      -3.020   1.668  23.635  0.00  0.00    +0.129 A 
ATOM     33  C   UNL     1      -3.442   1.133  24.100  0.00  0.00    +0.276 A 
ATOM     34  O   UNL     1      -2.950   0.471  24.090  0.00  0.00    -0.266 OA
ATOM     35  N   UNL     1      -4.167   1.354  24.428  0.00  0.00    -0.298 N 
ATOM     36  C   UNL     1      -4.701   1.726  24.582  0.00  0.00    +0.110 C 
ENDROOT
BRANCH  10   8
ATOM      4  C   UNL     1      -3.784  -1.928  24.697  0.00  0.00    +0.080 A 
ATOM      5  C   UNL     1      -3.442  -2.077  25.432  0.00  0.00    +0.007 A 
ATOM      6  C   UNL     1      -3.251  -1.451  25.934  0.00  0.00    +0.000 A 
ATOM      7  C   UNL     1      -3.403  -0.674  25.699  0.00  0.00    +0.005 A 
ATOM      8  C   UNL     1      -3.746  -0.525  24.963  0.00  0.00    +0.054 A 
ATOM      9  C   UNL     1      -3.936  -1.152  24.462  0.00  0.00    +0.011 A 
BRANCH   4   2
ATOM      1  O   UNL     1      -3.638  -3.298  24.318  0.00  0.00    -0.241 OA
ATOM      2  C   UNL     1      -3.974  -2.555  24.196  0.00  0.00    +0.388 C 
ATOM      3  O   UNL     1      -4.501  -2.439  23.572  0.00  0.00    -0.241 OA
ENDBRANCH   4   2
ENDBRANCH  10   8
BRANCH  21  22
ATOM     22  N   UNL     1      -2.296   1.448  23.307  0.00  0.00    -0.171 NA
ATOM     23  C   UNL     1      -1.624   1.904  23.449  0.00  0.00    +0.290 C 
ATOM     24  O   UNL     1      -0.899   1.683  23.121  0.00  0.00    -0.269 OA
BRANCH  23  25
ATOM     25  C   UNL     1      -1.675   2.580  23.919  0.00  0.00    +0.291 C 
BRANCH  25  26
ATOM     26  O   UNL     1      -0.989   2.926  24.221  0.00  0.00    -0.466 OA
BRANCH  26  27
ATOM     27  C   UNL     1      -1.023   3.672  24.571  0.00  0.00    +0.139 A 
ATOM     28  C   UNL     1      -1.372   3.764  25.313  0.00  0.00    +0.037 A 
ATOM     29  C   UNL     1      -1.406   4.511  25.663  0.00  0.00    +0.003 A 
ATOM     30  C   UNL     1      -1.091   5.164  25.271  0.00  0.00    +0.000 A 
ATOM     31  C   UNL     1      -0.742   5.072  24.529  0.00  0.00    +0.003 A 
ATOM     32  C   UNL     1      -0.708   4.325  24.179  0.00  0.00    +0.037 A 
ENDBRANCH  26  27
ENDBRANCH  25  26
ENDBRANCH  23  25
ENDBRANCH  21  22
TORSDOF 6
ENDMDL
MODEL 2
REMARK VINA RESULT:     -13.7      1.428      2.743
REMARK  Name = 
REMARK  6 active torsions:
REMARK  status: ('A' for Active; 'I' for Inactive)
REMARK    1  A    between atoms: C_2  and  C_4
REMARK    2  A    between atoms: C_8  and  C_10
REMARK    3  A    between atoms: C_21  and  N_22
REMARK    4  A    between atoms: C_23  and  C_25
REMARK    5  A    between atoms: C_25  and  O_26
REMARK    6  A    between atoms: O_26  and  C_27
REMARK                            x       y       z     vdW  Elec       q    Type
REMARK                         _______ _______ _______ _____ _____    ______ ____
ROOT
ATOM     10  C   UNL     1      -2.312  -0.269  24.480  0.00  0.00    +0.249 C 
ATOM     11  O   UNL     1      -2.694   0.368  24.119  0.00  0.00    -0.270 OA
ATOM     12  N   UNL     1      -1.488  -0.313  24.474  0.00  0.00    -0.276 N 
ATOM     13  C   UNL     1      -0.723  -0.615  24.622  0.00  0.00    +0.096 C 
ATOM     14  C   UNL     1      -0.181   0.088  24.187  0.00  0.00    +0.043 C 
ATOM     15  C   UNL     1       0.397   0.572  23.880  0.00  0.00    +0.011 C 
ATOM     16  C   UNL     1      -0.304   0.559  23.915  0.00  0.00    +0.058 C 
ATOM     17  C   UNL     1      -0.814  -0.128  24.339  0.00  0.00    +0.099 C 
ATOM     18  C   UNL     1      -1.048   1.036  23.662  0.00  0.00    +0.041 A 
ATOM     19  C   UNL     1      -1.261   1.725  23.263  0.00  0.00    +0.014 A 
ATOM     20  C   UNL     1      -2.057   1.922  23.178  0.00  0.00    +0.023 A 
ATOM     21  C   UNL     1      -2.641   1.430  23.491  0.00  0.00    +0.129 A 
ATOM     33  C   UNL     1      -2.427   0.740  23.889  0.00  0.00    +0.276 A 
ATOM     34  O   UNL     1      -3.161   0.429  24.100  0.00  0.00    -0.266 OA
ATOM     35  N   UNL     1      -1.631   0.543  23.975  0.00  0.00    -0.298 N 
ATOM     36  C   UNL     1      -0.964   0.579  23.928  0.00  0.00    +0.110 C 
ENDROOT
BRANCH  10   8
ATOM      4  C   UNL     1      -3.484  -2.088  24.770  0.00  0.00    +0.080 A 
ATOM      5  C   UNL     1      -3.640  -2.045  25.579  0.00  0.00    +0.007 A 
ATOM      6  C   UNL     1      -3.354  -1.411  26.021  0.00  0.00    +0.000 A 
ATOM      7  C   UNL     1      -2.911  -0.818  25.655  0.00  0.00    +0.005 A 
ATOM      8  C   UNL     1      -2.755  -0.861  24.846  0.00  0.00    +0.054 A 
ATOM      9  C   UNL     1      -3.041  -1.495  24.404  0.00  0.00    +0.011 A 
BRANCH   4   2
ATOM      1  O   UNL     1      -4.402  -2.611  23.808  0.00  0.00    -0.241 OA
ATOM      2  C   UNL     1      -3.770  -2.722  24.328  0.00  0.00    +0.388 C 
ATOM      3  O   UNL     1      -3.425  -3.467  24.403  0.00  0.00    -0.241 OA
ENDBRANCH   4   2
ENDBRANCH  10   8
BRANCH  21  22
ATOM     22  N   UNL     1      -3.437   1.627  23.404  0.00  0.00    -0.171 NA
ATOM     23  C   UNL     1      -3.714   2.353  23.682  0.00  0.00    +0.290 C 
ATOM     24  O   UNL     1      -4.511   2.550  23.596  0.00  0.00    -0.269 OA
BRANCH  23  25
ATOM     25  C   UNL     1      -3.195   2.881  24.047  0.00  0.00    +0.291 C 
BRANCH  25  26
ATOM     26  O   UNL     1      -3.487   3.567  24.400  0.00  0.00    -0.466 OA
BRANCH  26  27
ATOM     27  C   UNL     1      -3.042   3.955  24.977  0.00  0.00    +0.139 A 
ATOM     28  C   UNL     1      -2.446   4.480  24.755  0.00  0.00    +0.037 A 
ATOM     29  C   UNL     1      -2.002   4.867  25.332  0.00  0.00    +0.003 A 
ATOM     30  C   UNL     1      -2.154   4.729  26.131  0.00  0.00    +0.000 A 
ATOM     31  C   UNL     1      -2.750   4.204  26.353  0.00  0.00    +0.003 A 
ATOM     32  C   UNL     1      -3.194   3.816  25.776  0.00  0.00    +0.037 A 
ENDBRANCH  26  27
ENDBRANCH  25  26
ENDBRANCH  23  25
ENDBRANCH  21  22
TORSDOF 6
ENDMDL
MODEL 3
REMARK VINA RESULT:     -13.6      1.748      4.619
REMARK  Name = 
REMARK  6 active torsions:
REMARK  status: ('A' for Active; 'I' for Inactive)
REMARK    1  A    between atoms: C_2  and  C_4
REMARK    2  A    between atoms: C_8  and  C_10
REMARK    3  A    between atoms: C_21  and  N_22
REMARK    4  A    between atoms: C_23  and  C_25
REMARK    5  A    between atoms: C_25  and  O_26
REMARK    6  A    between atoms: O_26  and  C_27
REMARK                            x       y       z     vdW  Elec       q    Type
REMARK                         _______ _______ _______ _____ _____    ______ ____
ROOT
ATOM     10  C   UNL     1      -2.877   2.495  24.551  0.00  0.00    +0.249 C 
ATOM     11  O   UNL     1      -2.354   1.925  24.837  0.00  0.00    -0.270 OA
ATOM     12  N   UNL     1      -2.990   2.580  23.737  0.00  0.00    -0.276 N 
ATOM     13  C   UNL     1      -3.293   2.883  23.020  0.00  0.00    +0.096 C 
ATOM     14  C   UNL     1      -2.807   2.309  22.379  0.00  0.00    +0.043 C 
ATOM     15  C   UNL     1      -2.491   1.925  21.734  0.00  0.00    +0.011 C 
ATOM     16  C   UNL     1      -2.435   1.897  22.433  0.00  0.00    +0.058 C 
ATOM     17  C   UNL     1      -2.912   2.459  23.040  0.00  0.00    +0.099 C 
ATOM     18  C   UNL     1      -2.000   1.443  23.103  0.00  0.00    +0.041 A 
ATOM     19  C   UNL     1      -1.452   0.837  23.216  0.00  0.00    +0.014 A 
ATOM     20  C   UNL     1      -1.226   0.622  23.979  0.00  0.00    +0.023 A 
ATOM     21  C   UNL     1      -1.547   1.013  24.631  0.00  0.00    +0.129 A 
ATOM     33  C   UNL     1      -2.095   1.620  24.518  0.00  0.00    +0.276 A 
ATOM     34  O   UNL     1      -2.263   1.845  25.294  0.00  0.00    -0.266 OA
ATOM     35  N   UNL     1      -2.321   1.835  23.755  0.00  0.00    -0.298 N 
ATOM     36  C   UNL     1      -2.357   1.841  23.087  0.00  0.00    +0.110 C 
ENDROOT
BRANCH  10   8
ATOM      4  C   UNL     1      -4.504   3.342  25.735  0.00  0.00    +0.080 A 
ATOM      5  C   UNL     1      -4.109   3.950  26.129  0.00  0.00    +0.007 A 
ATOM      6  C   UNL     1      -3.305   4.074  25.997  0.00  0.00    +0.000 A 
ATOM      7  C   UNL     1      -2.893   3.589  25.470  0.00  0.00    +0.005 A 
ATOM      8  C   UNL     1      -3.288   2.980  25.076  0.00  0.00    +0.054 A 
ATOM      9  C   UNL     1      -4.093   2.857  25.209  0.00  0.00    +0.011 A 
BRANCH   4   2
ATOM      1  O   UNL     1      -5.848   3.827  25.723  0.00  0.00    -0.241 OA
ATOM      2  C   UNL     1      -5.308   3.219  25.867  0.00  0.00    +0.388 C 
ATOM      3  O   UNL     1      -5.574   2.488  26.143  0.00  0.00    -0.241 OA
ENDBRANCH   4   2
ENDBRANCH  10   8
BRANCH  21  22
ATOM     22  N   UNL     1      -1.321   0.798  25.394  0.00  0.00    -0.171 NA
ATOM     23  C   UNL     1      -1.465   0.033  25.667  0.00  0.00    +0.290 C 
ATOM     24  O   UNL     1      -1.238  -0.182  26.431  0.00  0.00    -0.269 OA
BRANCH  23  25
ATOM     25  C   UNL     1      -1.837  -0.517  25.176  0.00  0.00    +0.291 C 
BRANCH  25  26
ATOM     26  O   UNL     1      -2.102  -1.234  25.488  0.00  0.00    -0.466 OA
BRANCH  26  27
ATOM     27  C   UNL     1      -2.634  -1.697  25.060  0.00  0.00    +0.139 A 
ATOM     28  C   UNL     1      -3.439  -1.514  25.067  0.00  0.00    +0.037 A 
ATOM     29  C   UNL     1      -3.971  -1.977  24.639  0.00  0.00    +0.003 A 
ATOM     30  C   UNL     1      -3.698  -2.623  24.205  0.00  0.00    +0.000 A 
ATOM     31  C   UNL     1      -2.894  -2.806  24.198  0.00  0.00    +0.003 A 
ATOM     32  C   UNL     1      -2.362  -2.343  24.626  0.00  0.00    +0.037 A 
ENDBRANCH  26  27
ENDBRANCH  25  26
ENDBRANCH  23  25
ENDBRANCH  21  22
TORSDOF 6
ENDMDL
MODEL 4
REMARK VINA RESULT:     -13.5      1.412      4.410
REMARK  Name = 
REMARK  6 active torsions:
REMARK  status: ('A' for Active; 'I' for Inactive)
REMARK    1  A    between atoms: C_2  and  C_4
REMARK    2  A    between atoms: C_8  and  C_10
REMARK    3  A    between atoms: C_21  and  N_22
REMARK    4  A    between atoms: C_23  and  C_25
REMARK    5  A    between atoms: C_25  and  O_26
REMARK    6  A    between atoms: O_26  and  C_27
REMARK                            x       y       z     vdW  Elec       q    Type
REMARK                         _______ _______ _______ _____ _____    ______ ____
ROOT
ATOM     10  C   UNL     1      -2.592   3.384  25.013  0.00  0.00    +0.249 C 
ATOM     11  O   UNL     1      -2.779   2.937  24.345  0.00  0.00    -0.270 OA
ATOM     12  N   UNL     1      -3.185   3.597  25.546  0.00  0.00    -0.276 N 
ATOM     13  C   UNL     1      -3.541   3.943  26.219  0.00  0.00    +0.096 C 
ATOM     14  C   UNL     1      -4.479   3.670  26.068  0.00  0.00    +0.043 C 
ATOM     15  C   UNL     1      -5.281   3.529  26.089  0.00  0.00    +0.011 C 
ATOM     16  C   UNL     1      -4.738   3.376  25.671  0.00  0.00    +0.058 C 
ATOM     17  C   UNL     1      -3.836   3.647  25.831  0.00  0.00    +0.099 C 
ATOM     18  C   UNL     1      -4.530   2.937  24.891  0.00  0.00    +0.041 A 
ATOM     19  C   UNL     1      -4.884   2.499  24.289  0.00  0.00    +0.014 A 
ATOM     20  C   UNL     1      -4.426   2.205  23.668  0.00  0.00    +0.023 A 
ATOM     21  C   UNL     1      -3.614   2.350  23.650  0.00  0.00    +0.129 A 
ATOM     33  C   UNL     1      -3.260   2.788  24.253  0.00  0.00    +0.276 A 
ATOM     34  O   UNL     1      -2.470   2.795  24.018  0.00  0.00    -0.266 OA
ATOM     35  N   UNL     1      -3.718   3.082  24.873  0.00  0.00    -0.298 N 
ATOM     36  C   UNL     1      -4.252   3.214  25.254  0.00  0.00    +0.110 C 
ENDROOT
BRANCH  10   8
ATOM      4  C   UNL     1      -0.495   3.319  25.615  0.00  0.00    +0.080 A 
ATOM      5  C   UNL     1      -0.254   4.083  25.420  0.00  0.00    +0.007 A 
ATOM      6  C   UNL     1      -0.791   4.614  25.091  0.00  0.00    +0.000 A 
ATOM      7  C   UNL     1      -1.571   4.381  24.955  0.00  0.00    +0.005 A 
ATOM      8  C   UNL     1      -1.813   3.616  25.149  0.00  0.00    +0.054 A 
ATOM      9  C   UNL     1      -1.275   3.086  25.479  0.00  0.00    +0.011 A 
BRANCH   4   2
ATOM      1  O   UNL     1       0.560   2.368  25.457  0.00  0.00    -0.241 OA
ATOM      2  C   UNL     1       0.043   2.788  25.945  0.00  0.00    +0.388 C 
ATOM      3  O   UNL     1       0.063   2.674  26.761  0.00  0.00    -0.241 OA
ENDBRANCH   4   2
ENDBRANCH  10   8
BRANCH  21  22
ATOM     22  N   UNL     1      -3.157   2.056  23.030  0.00  0.00    -0.171 NA
ATOM     23  C   UNL     1      -3.043   1.243  22.950  0.00  0.00    +0.290 C 
ATOM     24  O   UNL     1      -2.585   0.950  22.329  0.00  0.00    -0.269 OA
BRANCH  23  25
ATOM     25  C   UNL     1      -3.386   0.723  23.491  0.00  0.00    +0.291 C 
BRANCH  25  26
ATOM     26  O   UNL     1      -3.227  -0.085  23.444  0.00  0.00    -0.466 OA
BRANCH  26  27
ATOM     27  C   UNL     1      -3.375  -0.573  24.093  0.00  0.00    +0.139 A 
ATOM     28  C   UNL     1      -2.871  -0.555  24.746  0.00  0.00    +0.037 A 
ATOM     29  C   UNL     1      -3.020  -1.043  25.395  0.00  0.00    +0.003 A 
ATOM     30  C   UNL     1      -3.672  -1.548  25.390  0.00  0.00    +0.000 A 
ATOM     31  C   UNL     1      -4.175  -1.566  24.737  0.00  0.00    +0.003 A 
ATOM     32  C   UNL     1      -4.027  -1.078  24.088  0.00  0.00    +0.037 A 
ENDBRANCH  26  27
ENDBRANCH  25  26
ENDBRANCH  23  25
ENDBRANCH  21  22
TORSDOF 6
ENDMDL
MODEL 5
REMARK VINA RESULT:     -13.1      2.142      5.457
REMARK  Name = 
REMARK  6 active torsions:
REMARK  status: ('A' for Active; 'I' for Inactive)
REMARK    1  A    between atoms: C_2  and  C_4
REMARK    2  A    between atoms: C_8  and  C_10
REMARK    3  A    between atoms: C_21  and  N_22
REMARK    4  A    between atoms: C_23  and  C_25
REMARK    5  A    between atoms: C_25  and  O_26
REMARK    6  A    between atoms: O_26  and  C_27
REMARK                            x       y       z     vdW  Elec       q    Type
REMARK                         _______ _______ _______ _____ _____    ______ ____
ROOT
ATOM     10  C   UNL     1      -0.818   1.297  25.012  0.00  0.00    +0.249 C 
ATOM     11  O   UNL     1      -1.075   0.646  25.449  0.00  0.00    -0.270 OA
ATOM     12  N   UNL     1      -0.366   1.184  24.330  0.00  0.00    -0.276 N 
ATOM     13  C   UNL     1       0.074   1.376  23.646  0.00  0.00    +0.096 C 
ATOM     14  C   UNL     1       0.315   0.466  23.344  0.00  0.00    +0.043 C 
ATOM     15  C   UNL     1       0.592  -0.201  22.968  0.00  0.00    +0.011 C 
ATOM     16  C   UNL     1       0.212  -0.046  23.537  0.00  0.00    +0.058 C 
ATOM     17  C   UNL     1      -0.013   0.839  23.817  0.00  0.00    +0.099 C 
ATOM     18  C   UNL     1      -0.230  -0.443  24.239  0.00  0.00    +0.041 A 
ATOM     19  C   UNL     1      -0.399  -1.188  24.550  0.00  0.00    +0.014 A 
ATOM     20  C   UNL     1      -0.848  -1.255  25.239  0.00  0.00    +0.023 A 
ATOM     21  C   UNL     1      -1.128  -0.576  25.617  0.00  0.00    +0.129 A 
ATOM     33  C   UNL     1      -0.958   0.169  25.306  0.00  0.00    +0.276 A 
ATOM     34  O   UNL     1      -1.334   0.669  25.843  0.00  0.00    -0.266 OA
ATOM     35  N   UNL     1      -0.509   0.235  24.617  0.00  0.00    -0.298 N 
ATOM     36  C   UNL     1      -0.149   0.061  24.080  0.00  0.00    +0.110 C 
ENDROOT
BRANCH  10   8
ATOM      4  C   UNL     1      -1.943   3.145  25.304  0.00  0.00    +0.080 A 
ATOM      5  C   UNL     1      -1.402   3.588  25.742  0.00  0.00    +0.007 A 
ATOM      6  C   UNL     1      -0.668   3.269  25.937  0.00  0.00    +0.000 A 
ATOM      7  C   UNL     1      -0.473   2.504  25.693  0.00  0.00    +0.005 A 
ATOM      8  C   UNL     1      -1.013   2.060  25.255  0.00  0.00    +0.054 A 
ATOM      9  C   UNL     1      -1.748   2.380  25.061  0.00  0.00    +0.011 A 
BRANCH   4   2
ATOM      1  O   UNL     1      -3.243   3.588  25.699  0.00  0.00    -0.241 OA
ATOM      2  C   UNL     1      -2.677   3.464  25.110  0.00  0.00    +0.388 C 
ATOM      3  O   UNL     1      -2.849   3.660  24.327  0.00  0.00    -0.241 OA
ENDBRANCH   4   2
ENDBRANCH  10   8
BRANCH  21  22
ATOM     22  N   UNL     1      -1.576  -0.644  26.305  0.00  0.00    -0.171 NA
ATOM     23  C   UNL     1      -2.281  -1.071  26.299  0.00  0.00    +0.290 C 
ATOM     24  O   UNL     1      -2.730  -1.139  26.989  0.00  0.00    -0.269 OA
BRANCH  23  25
ATOM     25  C   UNL     1      -2.538  -1.432  25.603  0.00  0.00    +0.291 C 
BRANCH  25  26
ATOM     26  O   UNL     1      -3.255  -1.843  25.591  0.00  0.00    -0.466 OA
BRANCH  26  27
ATOM     27  C   UNL     1      -3.618  -2.017  24.871  0.00  0.00    +0.139 A 
ATOM     28  C   UNL     1      -4.028  -1.430  24.463  0.00  0.00    +0.037 A 
ATOM     29  C   UNL     1      -4.391  -1.604  23.743  0.00  0.00    +0.003 A 
ATOM     30  C   UNL     1      -4.344  -2.367  23.432  0.00  0.00    +0.000 A 
ATOM     31  C   UNL     1      -3.934  -2.954  23.841  0.00  0.00    +0.003 A 
ATOM     32  C   UNL     1      -3.571  -2.780  24.560  0.00  0.00    +0.037 A 
ENDBRANCH  26  27
ENDBRANCH  25  26
ENDBRANCH  23  25
ENDBRANCH  21  22
TORSDOF 6
ENDMDL
MODEL 6
REMARK VINA RESULT:     -13.0      1.804      4.271
REMARK  Name = 
REMARK  6 active torsions:
REMARK  status: ('A' for Active; 'I' for Inactive)
REMARK    1  A    between atoms: C_2  and  C_4
REMARK    2  A    between atoms: C_8  and  C_10
REMARK    3  A    between atoms: C_21  and  N_22
REMARK    4  A    between atoms: C_23  and  C_25
REMARK    5  A    between atoms: C_25  and  O_26
REMARK    6  A    between atoms: O_26  and  C_27
REMARK                            x       y       z     vdW  Elec       q    Type
REMARK                         _______ _______ _______ _____ _____    ______ ____
ROOT
ATOM     10  C   UNL     1      -1.437   0.699  24.642  0.00  0.00    +0.249 C 
ATOM     11  O   UNL     1      -2.037   0.992  24.156  0.00  0.00    -0.270 OA
ATOM     12  N   UNL     1      -1.538  -0.019  25.034  0.00  0.00    -0.276 N 
ATOM     13  C   UNL     1      -1.358  -0.670  25.527  0.00  0.00    +0.096 C 
ATOM     14  C   UNL     1      -2.192  -1.190  25.425  0.00  0.00    +0.043 C 
ATOM     15  C   UNL     1      -2.804  -1.727  25.446  0.00  0.00    +0.011 C 
ATOM     16  C   UNL     1      -2.664  -1.113  25.137  0.00  0.00    +0.058 C 
ATOM     17  C   UNL     1      -1.852  -0.622  25.247  0.00  0.00    +0.099 C 
ATOM     18  C   UNL     1      -3.032  -0.493  24.568  0.00  0.00    +0.041 A 
ATOM     19  C   UNL     1      -3.717  -0.350  24.131  0.00  0.00    +0.014 A 
ATOM     20  C   UNL     1      -3.781   0.334  23.676  0.00  0.00    +0.023 A 
ATOM     21  C   UNL     1      -3.160   0.877  23.656  0.00  0.00    +0.129 A 
ATOM     33  C   UNL     1      -2.474   0.735  24.092  0.00  0.00    +0.276 A 
ATOM     34  O   UNL     1      -2.017   1.398  23.915  0.00  0.00    -0.266 OA
ATOM     35  N   UNL     1      -2.410   0.050  24.548  0.00  0.00    -0.298 N 
ATOM     36  C   UNL     1      -2.568  -0.536  24.830  0.00  0.00    +0.110 C 
ENDROOT
BRANCH  10   8
ATOM      4  C   UNL     1       0.035   2.103  25.436  0.00  0.00    +0.080 A 
ATOM      5  C   UNL     1       0.665   1.976  24.919  0.00  0.00    +0.007 A 
ATOM      6  C   UNL     1       0.596   1.425  24.311  0.00  0.00    +0.000 A 
ATOM      7  C   UNL     1      -0.105   0.998  24.218  0.00  0.00    +0.005 A 
ATOM      8  C   UNL     1      -0.736   1.125  24.734  0.00  0.00    +0.054 A 
ATOM      9  C   UNL     1      -0.666   1.677  25.343  0.00  0.00    +0.011 A 
BRANCH   4   2
ATOM      1  O   UNL     1      -0.333   3.355  26.018  0.00  0.00    -0.241 OA
ATOM      2  C   UNL     1       0.104   2.655  26.044  0.00  0.00    +0.388 C 
ATOM      3  O   UNL     1       0.609   2.509  26.679  0.00  0.00    -0.241 OA
ENDBRANCH   4   2
ENDBRANCH  10   8
BRANCH  21  22
ATOM     22  N   UNL     1      -3.224   1.561  23.201  0.00  0.00    -0.171 NA
ATOM     23  C   UNL     1      -3.814   2.113  23.366  0.00  0.00    +0.290 C 
ATOM     24  O   UNL     1      -3.879   2.798  22.909  0.00  0.00    -0.269 OA
BRANCH  23  25
ATOM     25  C   UNL     1      -4.340   1.981  23.988  0.00  0.00    +0.291 C 
BRANCH  25  26
ATOM     26  O   UNL     1      -4.892   2.560  24.192  0.00  0.00    -0.466 OA
BRANCH  26  27
ATOM     27  C   UNL     1      -5.303   2.505  24.905  0.00  0.00    +0.139 A 
ATOM     28  C   UNL     1      -5.963   2.014  24.964  0.00  0.00    +0.037 A 
ATOM     29  C   UNL     1      -6.374   1.959  25.677  0.00  0.00    +0.003 A 
ATOM     30  C   UNL     1      -6.125   2.395  26.331  0.00  0.00    +0.000 A 
ATOM     31  C   UNL     1      -5.465   2.886  26.272  0.00  0.00    +0.003 A 
ATOM     32  C   UNL     1      -5.054   2.941  25.559  0.00  0.00    +0.037 A 
ENDBRANCH  26  27
ENDBRANCH  25  26
ENDBRANCH  23  25
ENDBRANCH  21  22
TORSDOF 6
ENDMDL
MODEL 7
REMARK VINA RESULT:     -12.9      1.720      3.271
REMARK  Name = 
REMARK  6 active torsions:
REMARK  status: ('A' for Active; 'I' for Inactive)
REMARK    1  A    between atoms: C_2  and  C_4
REMARK    2  A    between atoms: C_8  and  C_10
REMARK    3  A    between atoms: C_21  and  N_22
REMARK    4  A    between atoms: C_23  and  C_25
REMARK    5  A    between atoms: C_25  and  O_26
REMARK    6  A    between atoms: O_26  and  C_27
REMARK                            x       y       z     vdW  Elec       q    Type
REMARK                         _______ _______ _______ _____ _____    ______ ____
ROOT
ATOM     10  C   UNL     1      -1.386   0.476  24.836  0.00  0.00    +0.249 C 
ATOM     11  O   UNL     1      -1.652   0.964  24.225  0.00  0.00    -0.270 OA
ATOM     12  N   UNL     1      -0.944   0.796  25.456  0.00  0.00    -0.276 N 
ATOM     13  C   UNL     1      -0.508   0.824  26.168  0.00  0.00    +0.096 C 
ATOM     14  C   UNL     1      -0.290   1.788  26.190  0.00  0.00    +0.043 C 
ATOM     15  C   UNL     1      -0.031   2.543  26.354  0.00  0.00    +0.011 C 
ATOM     16  C   UNL     1      -0.402   2.218  25.854  0.00  0.00    +0.058 C 
ATOM     17  C   UNL     1      -0.604   1.285  25.846  0.00  0.00    +0.099 C 
ATOM     18  C   UNL     1      -0.845   2.380  25.065  0.00  0.00    +0.041 A 
ATOM     19  C   UNL     1      -1.027   2.996  24.548  0.00  0.00    +0.014 A 
ATOM     20  C   UNL     1      -1.470   2.846  23.868  0.00  0.00    +0.023 A 
ATOM     21  C   UNL     1      -1.730   2.081  23.705  0.00  0.00    +0.129 A 
ATOM     33  C   UNL     1      -1.548   1.465  24.223  0.00  0.00    +0.276 A 
ATOM     34  O   UNL     1      -1.907   0.820  23.855  0.00  0.00    -0.266 OA
ATOM     35  N   UNL     1      -1.105   1.614  24.902  0.00  0.00    -0.298 N 
ATOM     36  C   UNL     1      -0.755   1.947  25.365  0.00  0.00    +0.110 C 
ENDROOT
BRANCH  10   8
ATOM      4  C   UNL     1      -2.456  -1.405  25.122  0.00  0.00    +0.080 A 
ATOM      5  C   UNL     1      -1.913  -1.942  24.810  0.00  0.00    +0.007 A 
ATOM      6  C   UNL     1      -1.195  -1.673  24.507  0.00  0.00    +0.000 A 
ATOM      7  C   UNL     1      -1.019  -0.867  24.515  0.00  0.00    +0.005 A 
ATOM      8  C   UNL     1      -1.562  -0.329  24.828  0.00  0.00    +0.054 A 
ATOM      9  C   UNL     1      -2.280  -0.598  25.131  0.00  0.00    +0.011 A 
BRANCH   4   2
ATOM      1  O   UNL     1      -3.526  -2.351  25.113  0.00  0.00    -0.241 OA
ATOM      2  C   UNL     1      -3.174  -1.673  25.426  0.00  0.00    +0.388 C 
ATOM      3  O   UNL     1      -3.541  -1.265  26.042  0.00  0.00    -0.241 OA
ENDBRANCH   4   2
ENDBRANCH  10   8
BRANCH  21  22
ATOM     22  N   UNL     1      -2.173   1.932  23.026  0.00  0.00    -0.171 NA
ATOM     23  C   UNL     1      -2.940   2.227  22.959  0.00  0.00    +0.290 C 
ATOM     24  O   UNL     1      -3.382   2.078  22.278  0.00  0.00    -0.269 OA
BRANCH  23  25
ATOM     25  C   UNL     1      -3.265   2.673  23.573  0.00  0.00    +0.291 C 
BRANCH  25  26
ATOM     26  O   UNL     1      -4.069   2.857  23.567  0.00  0.00    -0.466 OA
BRANCH  26  27
ATOM     27  C   UNL     1      -4.476   2.949  24.279  0.00  0.00    +0.139 A 
ATOM     28  C   UNL     1      -4.418   3.656  24.699  0.00  0.00    +0.037 A 
ATOM     29  C   UNL     1      -4.825   3.748  25.411  0.00  0.00    +0.003 A 
ATOM     30  C   UNL     1      -5.290   3.132  25.703  0.00  0.00    +0.000 A 
ATOM     31  C   UNL     1      -5.348   2.425  25.282  0.00  0.00    +0.003 A 
ATOM     32  C   UNL     1      -4.941   2.333  24.570  0.00  0.00    +0.037 A 
ENDBRANCH  26  27
ENDBRANCH  25  26
ENDBRANCH  23  25
ENDBRANCH  21  22
TORSDOF 6
ENDMDL
MODEL 8
REMARK VINA RESULT:     -12.7      2.035      3.856
REMARK  Name = 
REMARK  6 active torsions:
REMARK  status: ('A' for Active; 'I' for Inactive)
REMARK    1  A    between atoms: C_2  and  C_4
REMARK    2  A    between atoms: C_8  and  C_10
REMARK    3  A    between atoms: C_21  and  N_22
REMARK    4  A    between atoms: C_23  and  C_25
REMARK    5  A    between atoms: C_25  and  O_26
REMARK    6  A    between atoms: O_26  and  C_27
REMARK                            x       y       z     vdW  Elec       q    Type
REMARK                         _______ _______ _______ _____ _____    ______ ____
ROOT
ATOM     10  C   UNL     1      -3.508   0.653  24.748  0.00  0.00    +0.249 C 
ATOM     11  O   UNL     1      -2.734   0.756  25.015  0.00  0.00    -0.270 OA
ATOM     12  N   UNL     1      -3.779  -0.101  24.547  0.00  0.00    -0.276 N 
ATOM     13  C   UNL     1      -4.303  -0.697  24.286  0.00  0.00    +0.096 C 
ATOM     14  C   UNL     1      -3.710  -1.484  24.361  0.00  0.00    +0.043 C 
ATOM     15  C   UNL     1      -3.357  -2.218  24.366  0.00  0.00    +0.011 C 
ATOM     16  C   UNL     1      -3.182  -1.556  24.523  0.00  0.00    +0.058 C 
ATOM     17  C   UNL     1      -3.767  -0.806  24.445  0.00  0.00    +0.099 C 
ATOM     18  C   UNL     1      -2.478  -1.051  24.828  0.00  0.00    +0.041 A 
ATOM     19  C   UNL     1      -1.693  -1.126  25.072  0.00  0.00    +0.014 A 
ATOM     20  C   UNL     1      -1.270  -0.459  25.310  0.00  0.00    +0.023 A 
ATOM     21  C   UNL     1      -1.631   0.283  25.304  0.00  0.00    +0.129 A 
ATOM     33  C   UNL     1      -2.415   0.358  25.060  0.00  0.00    +0.276 A 
ATOM     34  O   UNL     1      -2.543   1.169  25.140  0.00  0.00    -0.266 OA
ATOM     35  N   UNL     1      -2.839  -0.309  24.822  0.00  0.00    -0.298 N 
ATOM     36  C   UNL     1      -2.981  -0.947  24.680  0.00  0.00    +0.110 C 
ENDROOT
BRANCH  10   8
ATOM      4  C   UNL     1      -5.059   2.118  25.213  0.00  0.00    +0.080 A 
ATOM      5  C   UNL     1      -5.019   2.603  24.547  0.00  0.00    +0.007 A 
ATOM      6  C   UNL     1      -4.477   2.439  23.948  0.00  0.00    +0.000 A 
ATOM      7  C   UNL     1      -3.973   1.788  24.015  0.00  0.00    +0.005 A 
ATOM      8  C   UNL     1      -4.012   1.302  24.681  0.00  0.00    +0.054 A 
ATOM      9  C   UNL     1      -4.555   1.467  25.280  0.00  0.00    +0.011 A 
BRANCH   4   2
ATOM      1  O   UNL     1      -5.508   2.957  26.278  0.00  0.00    -0.241 OA
ATOM      2  C   UNL     1      -5.601   2.282  25.812  0.00  0.00    +0.388 C 
ATOM      3  O   UNL     1      -6.236   1.773  25.946  0.00  0.00    -0.241 OA
ENDBRANCH   4   2
ENDBRANCH  10   8
BRANCH  21  22
ATOM     22  N   UNL     1      -1.207   0.949  25.542  0.00  0.00    -0.171 NA
ATOM     23  C   UNL     1      -0.518   1.164  25.144  0.00  0.00    +0.290 C 
ATOM     24  O   UNL     1      -0.094   1.831  25.382  0.00  0.00    -0.269 OA
BRANCH  23  25
ATOM     25  C   UNL     1      -0.252   0.713  24.506  0.00  0.00    +0.291 C 
BRANCH  25  26
ATOM     26  O   UNL     1       0.182   1.069  23.901  0.00  0.00    -0.466 OA
BRANCH  26  27
ATOM     27  C   UNL     1       0.686   0.614  23.432  0.00  0.00    +0.139 A 
ATOM     28  C   UNL     1       0.373   0.106  22.863  0.00  0.00    +0.037 A 
ATOM     29  C   UNL     1       0.877  -0.349  22.394  0.00  0.00    +0.003 A 
ATOM     30  C   UNL     1       1.694  -0.295  22.495  0.00  0.00    +0.000 A 
ATOM     31  C   UNL     1       2.007   0.213  23.064  0.00  0.00    +0.003 A 
ATOM     32  C   UNL     1       1.502   0.668  23.533  0.00  0.00    +0.037 A 
ENDBRANCH  26  27
ENDBRANCH  25  26
ENDBRANCH  23  25
ENDBRANCH  21  22
TORSDOF 6
ENDMDL
MODEL 9
REMARK VINA RESULT:     -12.5      1.426      3.173
REMARK  Name = 
REMARK  6 active torsions:
REMARK  status: ('A' for Active; 'I' for Inactive)
REMARK    1  A    between atoms: C_2  and  C_4
REMARK    2  A    between atoms: C_8  and  C_10
REMARK    3  A    between atoms: C_21  and  N_22
REMARK    4  A    between atoms: C_23  and  C_25
REMARK    5  A    between atoms: C_25  and  O_26
REMARK    6  A    between atoms: O_26  and  C_27
REMARK                            x       y       z     vdW  Elec       q    Type
REMARK                         _______ _______ _______ _____ _____    ______ ____
ROOT
ATOM     10  C   UNL     1      -4.303   0.770  24.794  0.00  0.00    +0.249 C 
ATOM     11  O   UNL     1      -3.746   0.984  24.224  0.00  0.00    -0.270 OA
ATOM     12  N   UNL     1      -4.190   0.089  25.246  0.00  0.00    -0.276 N 
ATOM     13  C   UNL     1      -4.342  -0.501  25.817  0.00  0.00    +0.096 C 
ATOM     14  C   UNL     1      -3.544  -1.069  25.685  0.00  0.00    +0.043 C 
ATOM     15  C   UNL     1      -2.955  -1.632  25.700  0.00  0.00    +0.011 C 
ATOM     16  C   UNL     1      -3.102  -1.044  25.346  0.00  0.00    +0.058 C 
ATOM     17  C   UNL     1      -3.879  -0.505  25.486  0.00  0.00    +0.099 C 
ATOM     18  C   UNL     1      -2.773  -0.501  24.682  0.00  0.00    +0.041 A 
ATOM     19  C   UNL     1      -2.131  -0.435  24.168  0.00  0.00    +0.014 A 
ATOM     20  C   UNL     1      -2.089   0.198  23.641  0.00  0.00    +0.023 A 
ATOM     21  C   UNL     1      -2.687   0.766  23.629  0.00  0.00    +0.129 A 
ATOM     33  C   UNL     1      -3.328   0.701  24.143  0.00  0.00    +0.276 A 
ATOM     34  O   UNL     1      -3.775   1.365  23.946  0.00  0.00    -0.266 OA
ATOM     35  N   UNL     1      -3.371   0.067  24.670  0.00  0.00    -0.298 N 
ATOM     36  C   UNL     1      -3.208  -0.496  24.993  0.00  0.00    +0.110 C 
ENDROOT
BRANCH  10   8
ATOM      4  C   UNL     1      -5.587   2.403  25.465  0.00  0.00    +0.080 A 
ATOM      5  C   UNL     1      -6.313   2.170  25.150  0.00  0.00    +0.007 A 
ATOM      6  C   UNL     1      -6.369   1.471  24.717  0.00  0.00    +0.000 A 
ATOM      7  C   UNL     1      -5.699   1.004  24.598  0.00  0.00    +0.005 A 
ATOM      8  C   UNL     1      -4.972   1.237  24.913  0.00  0.00    +0.054 A 
ATOM      9  C   UNL     1      -4.917   1.936  25.346  0.00  0.00    +0.011 A 
BRANCH   4   2
ATOM      1  O   UNL     1      -5.386   3.817  25.512  0.00  0.00    -0.241 OA
ATOM      2  C   UNL     1      -5.530   3.102  25.899  0.00  0.00    +0.388 C 
ATOM      3  O   UNL     1      -5.618   3.088  26.719  0.00  0.00    -0.241 OA
ENDBRANCH   4   2
ENDBRANCH  10   8
BRANCH  21  22
ATOM     22  N   UNL     1      -2.643   1.399  23.102  0.00  0.00    -0.171 NA
ATOM     23  C   UNL     1      -2.040   1.956  23.175  0.00  0.00    +0.290 C 
ATOM     24  O   UNL     1      -1.996   2.590  22.647  0.00  0.00    -0.269 OA
BRANCH  23  25
ATOM     25  C   UNL     1      -1.479   1.881  23.776  0.00  0.00    +0.291 C 
BRANCH  25  26
ATOM     26  O   UNL     1      -0.992   2.520  23.968  0.00  0.00    -0.466 OA
BRANCH  26  27
ATOM     27  C   UNL     1      -0.658   2.571  24.721  0.00  0.00    +0.139 A 
ATOM     28  C   UNL     1      -1.027   3.019  25.306  0.00  0.00    +0.037 A 
ATOM     29  C   UNL     1      -0.692   3.071  26.059  0.00  0.00    +0.003 A 
ATOM     30  C   UNL     1       0.011   2.673  26.225  0.00  0.00    +0.000 A 
ATOM     31  C   UNL     1       0.380   2.225  25.639  0.00  0.00    +0.003 A 
ATOM     32  C   UNL     1       0.045   2.173  24.887  0.00  0.00    +0.037 A 
ENDBRANCH  26  27
ENDBRANCH  25  26
ENDBRANCH  23  25
ENDBRANCH  21  22
TORSDOF 6
ENDMDL
