MODEL 1
REMARK VINA RESULT:     -12.3      0.000      0.000
REMARK  Name = 
REMARK  6 active torsions:
REMARK  status: ('A' for Active; 'I' for Inactive)
REMARK    1  A    between atoms: C_6  and  C_8
REMARK    2  A    between atoms: C_10  and  C_11
REMARK    3  A    between atoms: C_11  and  C_12
REMARK    4  A    between atoms: C_12  and  N_16
REMARK    5  A    between atoms: N_16  and  C_17
REMARK    6  A    between atoms: C_17  and  C_18
REMARK                            x       y       z     vdW  Elec       q    Type
REMARK                         _______ _______ _______ _____ _____    ______ ____
ROOT
ATOM     11  C   UNL     1      -4.213   2.378  24.636  0.00  0.00    +0.070 C 
ENDROOT
BRANCH  11  10
ATOM      8  C   UNL     1      -4.296   0.273  24.978  0.00  0.00    +0.177 A 
ATOM      9  C   UNL     1      -3.939   0.934  24.638  0.00  0.00    +0.058 A 
ATOM     10  C   UNL     1      -4.375   1.599  24.855  0.00  0.00    +0.102 A 
ATOM     24  N   UNL     1      -5.002   1.350  25.329  0.00  0.00    -0.081 NA
ATOM     25  O   UNL     1      -4.953   0.530  25.405  0.00  0.00    -0.354 OA
BRANCH   8   6
ATOM      1  O   UNL     1      -4.266  -2.196  23.539  0.00  0.00    -0.287 OA
ATOM      2  C   UNL     1      -4.025  -1.743  24.186  0.00  0.00    +0.196 A 
ATOM      3  C   UNL     1      -3.531  -2.071  24.758  0.00  0.00    +0.042 A 
ATOM      4  C   UNL     1      -3.291  -1.617  25.405  0.00  0.00    +0.003 A 
ATOM      5  C   UNL     1      -3.546  -0.836  25.478  0.00  0.00    +0.003 A 
ATOM      6  C   UNL     1      -4.041  -0.508  24.905  0.00  0.00    +0.040 A 
ATOM      7  C   UNL     1      -4.281  -0.961  24.259  0.00  0.00    +0.045 A 
ENDBRANCH   8   6
ENDBRANCH  11  10
BRANCH  11  12
ATOM     12  C   UNL     1      -4.317   2.990  25.180  0.00  0.00    +0.119 C 
ATOM     13  C   UNL     1      -4.420   3.602  25.724  0.00  0.00    +0.161 C 
ATOM     14  O   UNL     1      -5.236   3.575  25.598  0.00  0.00    -0.351 OA
ATOM     15  C   UNL     1      -5.132   2.964  25.054  0.00  0.00    +0.161 C 
BRANCH  12  16
ATOM     16  N   UNL     1      -3.502   3.016  25.306  0.00  0.00    -0.215 NA
BRANCH  16  17
ATOM     17  C   UNL     1      -3.131   3.740  25.447  0.00  0.00    +0.089 C 
BRANCH  17  18
ATOM     18  C   UNL     1      -2.308   3.792  25.419  0.00  0.00    +0.017 C 
ATOM     19  C   UNL     1      -1.948   4.393  24.982  0.00  0.00    +0.001 C 
ATOM     20  C   UNL     1      -1.125   4.447  24.953  0.00  0.00    +0.000 C 
ATOM     21  C   UNL     1      -0.662   3.900  25.361  0.00  0.00    +0.000 C 
ATOM     22  C   UNL     1      -1.022   3.299  25.798  0.00  0.00    +0.000 C 
ATOM     23  C   UNL     1      -1.845   3.246  25.826  0.00  0.00    +0.001 C 
ENDBRANCH  17  18
ENDBRANCH  16  17
ENDBRANCH  12  16
ENDBRANCH  11  12
TORSDOF 6
ENDMDL
MODEL 2
REMARK VINA RESULT:     -12.1      1.225      4.627
REMARK  Name = 
REMARK  6 active torsions:
REMARK  status: ('A' for Active; 'I' for Inactive)
REMARK    1  A    between atoms: C_6  and  C_8
REMARK    2  A    between atoms: C_10  and  C_11
REMARK    3  A    between atoms: C_11  and  C_12
REMARK    4  A    between atoms: C_12  and  N_16
REMARK    5  A    between atoms: N_16  and  C_17
REMARK    6  A    between atoms: C_17  and  C_18
REMARK                            x       y       z     vdW  Elec       q    Type
REMARK                         _______ _______ _______ _____ _____    ______ ____
ROOT
ATOM     11  C   UNL     1      -4.392   2.005  24.485  0.00  0.00    +0.070 C 
ENDROOT
BRANCH  11  10
ATOM      8  C   UNL     1      -2.874   3.338  25.174  0.00  0.00    +0.177 A 
ATOM      9  C   UNL     1      -3.139   2.754  24.655  0.00  0.00    +0.058 A 
ATOM     10  C   UNL     1      -3.915   2.563  24.860  0.00  0.00    +0.102 A 
ATOM     24  N   UNL     1      -4.130   3.028  25.506  0.00  0.00    -0.081 NA
ATOM     25  O   UNL     1      -3.487   3.507  25.700  0.00  0.00    -0.354 OA
BRANCH   8   6
ATOM      1  O   UNL     1      -1.244   5.683  25.048  0.00  0.00    -0.287 OA
ATOM      2  C   UNL     1      -1.313   4.861  25.106  0.00  0.00    +0.196 A 
ATOM      3  C   UNL     1      -0.636   4.394  25.158  0.00  0.00    +0.042 A 
ATOM      4  C   UNL     1      -0.705   3.573  25.217  0.00  0.00    +0.003 A 
ATOM      5  C   UNL     1      -1.451   3.222  25.222  0.00  0.00    +0.003 A 
ATOM      6  C   UNL     1      -2.128   3.690  25.169  0.00  0.00    +0.040 A 
ATOM      7  C   UNL     1      -2.060   4.510  25.111  0.00  0.00    +0.045 A 
ENDBRANCH   8   6
ENDBRANCH  11  10
BRANCH  11  12
ATOM     12  C   UNL     1      -4.977   1.608  24.911  0.00  0.00    +0.119 C 
ATOM     13  C   UNL     1      -5.562   1.212  25.338  0.00  0.00    +0.161 C 
ATOM     14  O   UNL     1      -6.064   1.861  25.251  0.00  0.00    -0.351 OA
ATOM     15  C   UNL     1      -5.480   2.257  24.825  0.00  0.00    +0.161 C 
BRANCH  12  16
ATOM     16  N   UNL     1      -4.474   0.960  24.998  0.00  0.00    -0.215 NA
BRANCH  16  17
ATOM     17  C   UNL     1      -4.764   0.196  24.882  0.00  0.00    +0.089 C 
BRANCH  17  18
ATOM     18  C   UNL     1      -4.245  -0.446  24.879  0.00  0.00    +0.017 C 
ATOM     19  C   UNL     1      -4.130  -0.879  24.186  0.00  0.00    +0.001 C 
ATOM     20  C   UNL     1      -3.612  -1.520  24.182  0.00  0.00    +0.000 C 
ATOM     21  C   UNL     1      -3.208  -1.728  24.871  0.00  0.00    +0.000 C 
ATOM     22  C   UNL     1      -3.323  -1.295  25.564  0.00  0.00    +0.000 C 
ATOM     23  C   UNL     1      -3.842  -0.654  25.567  0.00  0.00    +0.001 C 
ENDBRANCH  17  18
ENDBRANCH  16  17
ENDBRANCH  12  16
ENDBRANCH  11  12
TORSDOF 6
ENDMDL
