MODEL 1
REMARK VINA RESULT:     -10.9      0.000      0.000
REMARK  Name = 
REMARK  6 active torsions:
REMARK  status: ('A' for Active; 'I' for Inactive)
REMARK    1  A    between atoms: C_2  and  N_4
REMARK    2  A    between atoms: N_7  and  C_8
REMARK    3  A    between atoms: C_10  and  C_11
REMARK    4  A    between atoms: C_11  and  C_12
REMARK    5  A    between atoms: C_15  and  C_16
REMARK    6  A    between atoms: C_16  and  N_17
REMARK                            x       y       z     vdW  Elec       q    Type
REMARK                         _______ _______ _______ _____ _____    ______ ____
ROOT
ATOM      8  C   UNL     1      -4.665   1.527  24.973  0.00  0.00    +0.097 C 
ATOM      9  C   UNL     1      -3.952   1.938  24.912  0.00  0.00    +0.022 C 
ATOM     10  C   UNL     1      -4.350   2.648  25.043  0.00  0.00    +0.009 C 
ATOM     24  C   UNL     1      -5.064   2.237  25.104  0.00  0.00    +0.019 C 
ATOM     25  C   UNL     1      -5.616   2.832  25.246  0.00  0.00    +0.002 C 
ATOM     26  C   UNL     1      -5.849   2.003  25.194  0.00  0.00    +0.002 C 
ENDROOT
BRANCH   8   7
ATOM      4  N   UNL     1      -4.538  -0.641  24.749  0.00  0.00    -0.189 NA
ATOM      5  C   UNL     1      -4.315   0.153  24.799  0.00  0.00    +0.339 C 
ATOM      6  O   UNL     1      -3.521   0.364  24.725  0.00  0.00    -0.249 OA
ATOM      7  N   UNL     1      -4.888   0.734  24.923  0.00  0.00    -0.189 NA
BRANCH   4   2
ATOM      1  C   UNL     1      -3.835  -1.516  23.865  0.00  0.00    +0.023 C 
ATOM      2  C   UNL     1      -3.966  -1.222  24.626  0.00  0.00    +0.097 C 
ATOM      3  C   UNL     1      -3.524  -1.509  25.261  0.00  0.00    +0.023 C 
ENDBRANCH   4   2
ENDBRANCH   8   7
BRANCH  10  11
ATOM     11  C   UNL     1      -4.129   3.441  25.093  0.00  0.00    +0.049 C 
BRANCH  11  12
ATOM     12  C   UNL     1      -3.371   3.641  25.355  0.00  0.00    +0.100 A 
ATOM     13  N   UNL     1      -3.162   3.837  26.128  0.00  0.00    -0.082 NA
ATOM     14  O   UNL     1      -2.353   3.997  26.140  0.00  0.00    -0.357 OA
ATOM     15  C   UNL     1      -2.062   3.901  25.373  0.00  0.00    +0.170 A 
ATOM     23  C   UNL     1      -2.692   3.681  24.888  0.00  0.00    +0.055 A 
BRANCH  15  16
ATOM     16  C   UNL     1      -1.280   4.007  25.134  0.00  0.00    +0.141 C 
BRANCH  16  17
ATOM     17  N   UNL     1      -0.758   3.368  25.136  0.00  0.00    -0.262 NA
ATOM     18  C   UNL     1      -0.441   3.096  25.847  0.00  0.00    +0.105 C 
ATOM     19  C   UNL     1       0.081   2.457  25.849  0.00  0.00    +0.159 C 
ATOM     20  O   UNL     1       0.285   2.090  25.138  0.00  0.00    -0.351 OA
ATOM     21  C   UNL     1      -0.032   2.362  24.427  0.00  0.00    +0.159 C 
ATOM     22  C   UNL     1      -0.554   3.001  24.426  0.00  0.00    +0.105 C 
ENDBRANCH  16  17
ENDBRANCH  15  16
ENDBRANCH  11  12
ENDBRANCH  10  11
TORSDOF 6
ENDMDL
MODEL 2
REMARK VINA RESULT:     -10.7      1.294      4.193
REMARK  Name = 
REMARK  6 active torsions:
REMARK  status: ('A' for Active; 'I' for Inactive)
REMARK    1  A    between atoms: C_2  and  N_4
REMARK    2  A    between atoms: N_7  and  C_8
REMARK    3  A    between atoms: C_10  and  C_11
REMARK    4  A    between atoms: C_11  and  C_12
REMARK    5  A    between atoms: C_15  and  C_16
REMARK    6  A    between atoms: C_16  and  N_17
REMARK                            x       y       z     vdW  Elec       q    Type
REMARK                         _______ _______ _______ _____ _____    ______ ____
ROOT
ATOM      8  C   UNL     1      -4.031   2.830  25.203  0.00  0.00    +0.097 C 
ATOM      9  C   UNL     1      -3.765   2.093  24.945  0.00  0.00    +0.022 C 
ATOM     10  C   UNL     1      -4.535   1.800  24.993  0.00  0.00    +0.009 C 
ATOM     24  C   UNL     1      -4.800   2.537  25.252  0.00  0.00    +0.019 C 
ATOM     25  C   UNL     1      -5.610   2.424  25.358  0.00  0.00    +0.002 C 
ATOM     26  C   UNL     1      -5.237   3.186  25.514  0.00  0.00    +0.002 C 
ENDROOT
BRANCH   8   7
ATOM      4  N   UNL     1      -2.502   4.377  25.402  0.00  0.00    -0.189 NA
ATOM      5  C   UNL     1      -2.859   3.647  25.254  0.00  0.00    +0.339 C 
ATOM      6  O   UNL     1      -2.402   3.006  25.008  0.00  0.00    -0.249 OA
ATOM      7  N   UNL     1      -3.674   3.560  25.352  0.00  0.00    -0.189 NA
BRANCH   4   2
ATOM      1  C   UNL     1      -1.392   5.085  24.847  0.00  0.00    +0.023 C 
ATOM      2  C   UNL     1      -1.688   4.464  25.304  0.00  0.00    +0.097 C 
ATOM      3  C   UNL     1      -1.169   3.932  25.663  0.00  0.00    +0.023 C 
ENDBRANCH   4   2
ENDBRANCH   8   7
BRANCH  10  11
ATOM     11  C   UNL     1      -4.892   1.071  24.845  0.00  0.00    +0.049 C 
BRANCH  11  12
ATOM     12  C   UNL     1      -4.425   0.406  24.697  0.00  0.00    +0.100 A 
ATOM     13  N   UNL     1      -4.154   0.159  23.959  0.00  0.00    -0.082 NA
ATOM     14  O   UNL     1      -3.710  -0.528  24.067  0.00  0.00    -0.357 OA
ATOM     15  C   UNL     1      -3.707  -0.705  24.873  0.00  0.00    +0.170 A 
ATOM     23  C   UNL     1      -4.149  -0.128  25.263  0.00  0.00    +0.055 A 
BRANCH  15  16
ATOM     16  C   UNL     1      -3.328  -1.347  25.227  0.00  0.00    +0.141 C 
BRANCH  16  17
ATOM     17  N   UNL     1      -2.507  -1.418  25.181  0.00  0.00    -0.262 NA
ATOM     18  C   UNL     1      -2.169  -1.938  24.637  0.00  0.00    +0.105 C 
ATOM     19  C   UNL     1      -1.349  -2.010  24.591  0.00  0.00    +0.159 C 
ATOM     20  O   UNL     1      -0.867  -1.561  25.088  0.00  0.00    -0.351 OA
ATOM     21  C   UNL     1      -1.205  -1.041  25.632  0.00  0.00    +0.159 C 
ATOM     22  C   UNL     1      -2.026  -0.970  25.678  0.00  0.00    +0.105 C 
ENDBRANCH  16  17
ENDBRANCH  15  16
ENDBRANCH  11  12
ENDBRANCH  10  11
TORSDOF 6
ENDMDL
MODEL 3
REMARK VINA RESULT:     -10.0      1.684      3.709
REMARK  Name = 
REMARK  6 active torsions:
REMARK  status: ('A' for Active; 'I' for Inactive)
REMARK    1  A    between atoms: C_2  and  N_4
REMARK    2  A    between atoms: N_7  and  C_8
REMARK    3  A    between atoms: C_10  and  C_11
REMARK    4  A    between atoms: C_11  and  C_12
REMARK    5  A    between atoms: C_15  and  C_16
REMARK    6  A    between atoms: C_16  and  N_17
REMARK                            x       y       z     vdW  Elec       q    Type
REMARK                         _______ _______ _______ _____ _____    ______ ____
ROOT
ATOM      8  C   UNL     1      -2.716   3.654  25.319  0.00  0.00    +0.097 C 
ATOM      9  C   UNL     1      -2.301   2.947  25.227  0.00  0.00    +0.022 C 
ATOM     10  C   UNL     1      -1.596   3.371  25.161  0.00  0.00    +0.009 C 
ATOM     24  C   UNL     1      -2.011   4.078  25.254  0.00  0.00    +0.019 C 
ATOM     25  C   UNL     1      -1.422   4.653  25.211  0.00  0.00    +0.002 C 
ATOM     26  C   UNL     1      -2.250   4.863  25.328  0.00  0.00    +0.002 C 
ENDROOT
BRANCH   8   7
ATOM      4  N   UNL     1      -4.880   3.468  25.535  0.00  0.00    -0.189 NA
ATOM      5  C   UNL     1      -4.087   3.267  25.424  0.00  0.00    +0.339 C 
ATOM      6  O   UNL     1      -3.874   2.479  25.304  0.00  0.00    -0.249 OA
ATOM      7  N   UNL     1      -3.509   3.855  25.431  0.00  0.00    -0.189 NA
BRANCH   4   2
ATOM      1  C   UNL     1      -5.694   2.542  24.812  0.00  0.00    +0.023 C 
ATOM      2  C   UNL     1      -5.459   2.880  25.528  0.00  0.00    +0.097 C 
ATOM      3  C   UNL     1      -5.803   2.630  26.235  0.00  0.00    +0.023 C 
ENDBRANCH   4   2
ENDBRANCH   8   7
BRANCH  10  11
ATOM     11  C   UNL     1      -0.803   3.170  25.050  0.00  0.00    +0.049 C 
BRANCH  11  12
ATOM     12  C   UNL     1      -0.573   2.378  25.062  0.00  0.00    +0.100 A 
ATOM     13  N   UNL     1      -0.241   1.979  25.703  0.00  0.00    -0.082 NA
ATOM     14  O   UNL     1      -0.097   1.200  25.473  0.00  0.00    -0.357 OA
ATOM     15  C   UNL     1      -0.340   1.118  24.688  0.00  0.00    +0.170 A 
ATOM     23  C   UNL     1      -0.634   1.845  24.434  0.00  0.00    +0.055 A 
BRANCH  15  16
ATOM     16  C   UNL     1      -0.296   0.429  24.237  0.00  0.00    +0.141 C 
BRANCH  16  17
ATOM     17  N   UNL     1      -0.714  -0.244  24.469  0.00  0.00    -0.262 NA
ATOM     18  C   UNL     1      -1.522  -0.301  24.314  0.00  0.00    +0.105 C 
ATOM     19  C   UNL     1      -1.941  -0.972  24.545  0.00  0.00    +0.159 C 
ATOM     20  O   UNL     1      -1.551  -1.588  24.933  0.00  0.00    -0.351 OA
ATOM     21  C   UNL     1      -0.742  -1.531  25.089  0.00  0.00    +0.159 C 
ATOM     22  C   UNL     1      -0.324  -0.859  24.856  0.00  0.00    +0.105 C 
ENDBRANCH  16  17
ENDBRANCH  15  16
ENDBRANCH  11  12
ENDBRANCH  10  11
TORSDOF 6
ENDMDL
MODEL 4
REMARK VINA RESULT:      -9.9      1.735      3.601
REMARK  Name = 
REMARK  6 active torsions:
REMARK  status: ('A' for Active; 'I' for Inactive)
REMARK    1  A    between atoms: C_2  and  N_4
REMARK    2  A    between atoms: N_7  and  C_8
REMARK    3  A    between atoms: C_10  and  C_11
REMARK    4  A    between atoms: C_11  and  C_12
REMARK    5  A    between atoms: C_15  and  C_16
REMARK    6  A    between atoms: C_16  and  N_17
REMARK                            x       y       z     vdW  Elec       q    Type
REMARK                         _______ _______ _______ _____ _____    ______ ____
ROOT
ATOM      8  C   UNL     1      -1.390  -0.104  24.496  0.00  0.00    +0.097 C 
ATOM      9  C   UNL     1      -1.860   0.543  24.699  0.00  0.00    +0.022 C 
ATOM     10  C   UNL     1      -1.260   1.054  24.453  0.00  0.00    +0.009 C 
ATOM     24  C   UNL     1      -0.790   0.406  24.251  0.00  0.00    +0.019 C 
ATOM     25  C   UNL     1      -0.099   0.752  23.965  0.00  0.00    +0.002 C 
ATOM     26  C   UNL     1      -0.195  -0.105  23.997  0.00  0.00    +0.002 C 
ENDROOT
BRANCH   8   7
ATOM      4  N   UNL     1      -2.323  -2.070  24.680  0.00  0.00    -0.189 NA
ATOM      5  C   UNL     1      -2.230  -1.250  24.650  0.00  0.00    +0.339 C 
ATOM      6  O   UNL     1      -2.886  -0.757  24.741  0.00  0.00    -0.249 OA
ATOM      7  N   UNL     1      -1.482  -0.924  24.527  0.00  0.00    -0.189 NA
BRANCH   4   2
ATOM      1  C   UNL     1      -3.549  -2.584  24.157  0.00  0.00    +0.023 C 
ATOM      2  C   UNL     1      -3.071  -2.396  24.803  0.00  0.00    +0.097 C 
ATOM      3  C   UNL     1      -3.340  -2.533  25.570  0.00  0.00    +0.023 C 
ENDBRANCH   4   2
ENDBRANCH   8   7
BRANCH  10  11
ATOM     11  C   UNL     1      -1.167   1.873  24.422  0.00  0.00    +0.049 C 
BRANCH  11  12
ATOM     12  C   UNL     1      -1.768   2.366  24.699  0.00  0.00    +0.100 A 
ATOM     13  N   UNL     1      -1.816   2.695  25.454  0.00  0.00    -0.082 NA
ATOM     14  O   UNL     1      -2.504   3.149  25.492  0.00  0.00    -0.357 OA
ATOM     15  C   UNL     1      -2.881   3.102  24.759  0.00  0.00    +0.170 A 
ATOM     23  C   UNL     1      -2.426   2.618  24.269  0.00  0.00    +0.055 A 
BRANCH  15  16
ATOM     16  C   UNL     1      -3.588   3.472  24.553  0.00  0.00    +0.141 C 
BRANCH  16  17
ATOM     17  N   UNL     1      -4.305   3.182  24.840  0.00  0.00    -0.262 NA
ATOM     18  C   UNL     1      -4.646   3.516  25.513  0.00  0.00    +0.105 C 
ATOM     19  C   UNL     1      -5.362   3.226  25.800  0.00  0.00    +0.159 C 
ATOM     20  O   UNL     1      -5.739   2.601  25.414  0.00  0.00    -0.351 OA
ATOM     21  C   UNL     1      -5.398   2.267  24.740  0.00  0.00    +0.159 C 
ATOM     22  C   UNL     1      -4.681   2.558  24.454  0.00  0.00    +0.105 C 
ENDBRANCH  16  17
ENDBRANCH  15  16
ENDBRANCH  11  12
ENDBRANCH  10  11
TORSDOF 6
ENDMDL
