REMARK  Name = 
REMARK  3 active torsions:
REMARK  status: ('A' for Active; 'I' for Inactive)
REMARK    1  A    between atoms: C_2  and  N_4
REMARK    2  A    between atoms: N_7  and  C_8
REMARK    3  A    between atoms: C_20  and  C_25
REMARK                            x       y       z     vdW  Elec       q    Type
REMARK                         _______ _______ _______ _____ _____    ______ ____
ROOT
ATOM      8  C   UNL     1       6.124   0.851   0.000  0.00  0.00    +0.101 C 
ATOM      9  C   UNL     1       5.940   1.655   0.000  0.00  0.00    +0.043 C 
ATOM     10  C   UNL     1       5.152   1.899   0.000  0.00  0.00    +0.096 C 
ATOM     11  N   UNL     1       4.547   1.337   0.000  0.00  0.00    -0.269 N 
ATOM     12  C   UNL     1       4.731   0.533   0.000  0.00  0.00    +0.156 C 
ATOM     13  C   UNL     1       5.519   0.290   0.000  0.00  0.00    +0.051 C 
ATOM     14  C   UNL     1       4.216  -0.112   0.000  0.00  0.00    +0.264 C 
ATOM     15  O   UNL     1       4.574  -0.855   0.000  0.00  0.00    -0.271 OA
ATOM     16  N   UNL     1       3.391  -0.112   0.000  0.00  0.00    -0.178 NA
ATOM     17  C   UNL     1       2.877   0.533   0.000  0.00  0.00    +0.078 A 
ATOM     18  C   UNL     1       2.088   0.290   0.000  0.00  0.00    +0.017 A 
ATOM     19  C   UNL     1       1.484   0.851   0.000  0.00  0.00    +0.001 A 
ATOM     20  C   UNL     1       1.667   1.655   0.000  0.00  0.00    +0.001 A 
ATOM     21  C   UNL     1       2.456   1.899   0.000  0.00  0.00    +0.006 A 
ATOM     22  C   UNL     1       3.060   1.337   0.000  0.00  0.00    +0.069 A 
ATOM     23  C   UNL     1       3.804   1.695   0.000  0.00  0.00    +0.251 C 
ATOM     24  O   UNL     1       3.804   2.520   0.000  0.00  0.00    -0.270 OA
ENDROOT
BRANCH  20  25
ATOM     25  C   UNL     1       1.062   2.216   0.000  0.00  0.00    +0.007 A 
ATOM     26  C   UNL     1       0.253   2.057   0.000  0.00  0.00    +0.035 A 
ATOM     27  S   UNL     1      -0.149   2.778   0.000  0.00  0.00    -0.086 S 
ATOM     28  C   UNL     1       0.412   3.382   0.000  0.00  0.00    +0.035 A 
ATOM     29  C   UNL     1       1.161   3.035   0.000  0.00  0.00    +0.007 A 
ENDBRANCH  20  25
BRANCH   8   7
ATOM      4  N   UNL     1       7.884  -0.440   0.000  0.00  0.00    -0.189 NA
ATOM      5  C   UNL     1       7.096  -0.197   0.000  0.00  0.00    +0.339 C 
ATOM      6  O   UNL     1       6.491  -0.758   0.000  0.00  0.00    -0.249 OA
ATOM      7  N   UNL     1       6.912   0.608   0.000  0.00  0.00    -0.189 NA
BRANCH   4   2
ATOM      1  C   UNL     1       8.856  -1.487   0.000  0.00  0.00    +0.023 C 
ATOM      2  C   UNL     1       8.068  -1.244   0.000  0.00  0.00    +0.097 C 
ATOM      3  C   UNL     1       7.463  -1.805   0.000  0.00  0.00    +0.023 C 
ENDBRANCH   4   2
ENDBRANCH   8   7
TORSDOF 3
