MODEL 1
REMARK VINA RESULT:     -10.5      0.000      0.000
REMARK  Name = 
REMARK  6 active torsions:
REMARK  status: ('A' for Active; 'I' for Inactive)
REMARK    1  A    between atoms: C_3  and  C_4
REMARK    2  A    between atoms: C_4  and  N_5
REMARK    3  A    between atoms: C_6  and  C_8
REMARK    4  A    between atoms: C_16  and  N_17
REMARK    5  A    between atoms: N_17  and  C_18
REMARK    6  A    between atoms: C_18  and  C_19
REMARK                            x       y       z     vdW  Elec       q    Type
REMARK                         _______ _______ _______ _____ _____    ______ ____
ROOT
ATOM      1  O   UNL     1      -1.140   0.189  24.988  0.00  0.00    -0.219 OA
ATOM      2  C   UNL     1      -1.861   0.589  24.963  0.00  0.00    +0.199 C 
ATOM      3  C   UNL     1      -1.972   1.397  25.088  0.00  0.00    +0.169 C 
ATOM     14  O   UNL     1      -2.777   1.558  25.011  0.00  0.00    -0.350 OA
ATOM     15  C   UNL     1      -3.163   0.850  24.838  0.00  0.00    +0.162 C 
ATOM     16  C   UNL     1      -2.598   0.251  24.808  0.00  0.00    +0.135 C 
ENDROOT
BRANCH   3   4
ATOM      4  C   UNL     1      -1.381   1.947  25.260  0.00  0.00    +0.148 C 
BRANCH   4   5
ATOM      5  N   UNL     1      -1.503   2.747  25.100  0.00  0.00    -0.199 NA
ATOM      6  C   UNL     1      -0.967   3.309  25.378  0.00  0.00    +0.265 C 
ATOM      7  O   UNL     1      -0.310   3.071  25.816  0.00  0.00    -0.268 OA
BRANCH   6   8
ATOM      8  C   UNL     1      -1.089   4.109  25.218  0.00  0.00    +0.055 A 
ATOM      9  C   UNL     1      -0.525   4.535  24.794  0.00  0.00    +0.005 A 
ATOM     10  C   UNL     1      -0.646   5.336  24.634  0.00  0.00    +0.000 A 
ATOM     11  C   UNL     1      -1.333   5.709  24.898  0.00  0.00    +0.000 A 
ATOM     12  C   UNL     1      -1.897   5.283  25.323  0.00  0.00    +0.000 A 
ATOM     13  C   UNL     1      -1.776   4.483  25.483  0.00  0.00    +0.005 A 
ENDBRANCH   6   8
ENDBRANCH   4   5
ENDBRANCH   3   4
BRANCH  16  17
ATOM     17  N   UNL     1      -2.742  -0.545  24.652  0.00  0.00    -0.209 NA
BRANCH  17  18
ATOM     18  C   UNL     1      -3.491  -0.863  24.789  0.00  0.00    +0.115 C 
BRANCH  18  19
ATOM     19  C   UNL     1      -3.663  -1.634  24.549  0.00  0.00    -0.005 A 
ATOM     20  C   UNL     1      -4.157  -1.764  23.902  0.00  0.00    -0.003 A 
ATOM     21  C   UNL     1      -4.329  -2.535  23.662  0.00  0.00    -0.000 A 
ATOM     22  C   UNL     1      -4.005  -3.175  24.069  0.00  0.00    -0.000 A 
ATOM     23  C   UNL     1      -3.511  -3.045  24.717  0.00  0.00    -0.000 A 
ATOM     24  C   UNL     1      -3.339  -2.274  24.957  0.00  0.00    -0.003 A 
ENDBRANCH  18  19
ENDBRANCH  17  18
ENDBRANCH  16  17
TORSDOF 6
ENDMDL
MODEL 2
REMARK VINA RESULT:     -10.4      0.918      6.131
REMARK  Name = 
REMARK  6 active torsions:
REMARK  status: ('A' for Active; 'I' for Inactive)
REMARK    1  A    between atoms: C_3  and  C_4
REMARK    2  A    between atoms: C_4  and  N_5
REMARK    3  A    between atoms: C_6  and  C_8
REMARK    4  A    between atoms: C_16  and  N_17
REMARK    5  A    between atoms: N_17  and  C_18
REMARK    6  A    between atoms: C_18  and  C_19
REMARK                            x       y       z     vdW  Elec       q    Type
REMARK                         _______ _______ _______ _____ _____    ______ ____
ROOT
ATOM      1  O   UNL     1      -3.788   2.273  24.054  0.00  0.00    -0.219 OA
ATOM      2  C   UNL     1      -3.178   1.892  24.457  0.00  0.00    +0.199 C 
ATOM      3  C   UNL     1      -3.143   1.087  24.635  0.00  0.00    +0.169 C 
ATOM     14  O   UNL     1      -2.440   0.946  25.041  0.00  0.00    -0.350 OA
ATOM     15  C   UNL     1      -2.039   1.664  25.114  0.00  0.00    +0.162 C 
ATOM     16  C   UNL     1      -2.495   2.248  24.754  0.00  0.00    +0.135 C 
ENDROOT
BRANCH   3   4
ATOM      4  C   UNL     1      -3.713   0.523  24.441  0.00  0.00    +0.148 C 
BRANCH   4   5
ATOM      5  N   UNL     1      -3.524  -0.280  24.467  0.00  0.00    -0.199 NA
ATOM      6  C   UNL     1      -4.119  -0.847  24.391  0.00  0.00    +0.265 C 
ATOM      7  O   UNL     1      -4.903  -0.610  24.290  0.00  0.00    -0.268 OA
BRANCH   6   8
ATOM      8  C   UNL     1      -3.930  -1.649  24.417  0.00  0.00    +0.055 A 
ATOM      9  C   UNL     1      -4.135  -2.141  23.788  0.00  0.00    +0.005 A 
ATOM     10  C   UNL     1      -3.946  -2.945  23.813  0.00  0.00    +0.000 A 
ATOM     11  C   UNL     1      -3.552  -3.254  24.468  0.00  0.00    +0.000 A 
ATOM     12  C   UNL     1      -3.347  -2.762  25.098  0.00  0.00    +0.000 A 
ATOM     13  C   UNL     1      -3.536  -1.959  25.072  0.00  0.00    +0.005 A 
ENDBRANCH   6   8
ENDBRANCH   4   5
ENDBRANCH   3   4
BRANCH  16  17
ATOM     17  N   UNL     1      -2.303   3.048  24.698  0.00  0.00    -0.209 NA
BRANCH  17  18
ATOM     18  C   UNL     1      -1.742   3.373  25.208  0.00  0.00    +0.115 C 
BRANCH  18  19
ATOM     19  C   UNL     1      -1.486   4.151  25.099  0.00  0.00    -0.005 A 
ATOM     20  C   UNL     1      -0.741   4.298  24.778  0.00  0.00    -0.003 A 
ATOM     21  C   UNL     1      -0.485   5.076  24.669  0.00  0.00    -0.000 A 
ATOM     22  C   UNL     1      -0.976   5.704  24.881  0.00  0.00    -0.000 A 
ATOM     23  C   UNL     1      -1.721   5.556  25.202  0.00  0.00    -0.000 A 
ATOM     24  C   UNL     1      -1.977   4.779  25.311  0.00  0.00    -0.003 A 
ENDBRANCH  18  19
ENDBRANCH  17  18
ENDBRANCH  16  17
TORSDOF 6
ENDMDL
MODEL 3
REMARK VINA RESULT:     -10.2      1.049      5.882
REMARK  Name = 
REMARK  6 active torsions:
REMARK  status: ('A' for Active; 'I' for Inactive)
REMARK    1  A    between atoms: C_3  and  C_4
REMARK    2  A    between atoms: C_4  and  N_5
REMARK    3  A    between atoms: C_6  and  C_8
REMARK    4  A    between atoms: C_16  and  N_17
REMARK    5  A    between atoms: N_17  and  C_18
REMARK    6  A    between atoms: C_18  and  C_19
REMARK                            x       y       z     vdW  Elec       q    Type
REMARK                         _______ _______ _______ _____ _____    ______ ____
ROOT
ATOM      1  O   UNL     1      -1.075   1.201  23.743  0.00  0.00    -0.219 OA
ATOM      2  C   UNL     1      -1.031   1.092  24.560  0.00  0.00    +0.199 C 
ATOM      3  C   UNL     1      -1.069   0.370  24.956  0.00  0.00    +0.169 C 
ATOM     14  O   UNL     1      -1.003   0.519  25.764  0.00  0.00    -0.350 OA
ATOM     15  C   UNL     1      -0.923   1.333  25.868  0.00  0.00    +0.162 C 
ATOM     16  C   UNL     1      -0.940   1.688  25.124  0.00  0.00    +0.135 C 
ENDROOT
BRANCH   3   4
ATOM      4  C   UNL     1      -1.158  -0.371  24.604  0.00  0.00    +0.148 C 
BRANCH   4   5
ATOM      5  N   UNL     1      -1.900  -0.733  24.587  0.00  0.00    -0.199 NA
ATOM      6  C   UNL     1      -1.967  -1.525  24.366  0.00  0.00    +0.265 C 
ATOM      7  O   UNL     1      -1.293  -1.955  24.163  0.00  0.00    -0.268 OA
BRANCH   6   8
ATOM      8  C   UNL     1      -2.708  -1.887  24.349  0.00  0.00    +0.055 A 
ATOM      9  C   UNL     1      -2.817  -2.621  24.709  0.00  0.00    +0.005 A 
ATOM     10  C   UNL     1      -3.559  -2.983  24.692  0.00  0.00    +0.000 A 
ATOM     11  C   UNL     1      -4.191  -2.611  24.315  0.00  0.00    +0.000 A 
ATOM     12  C   UNL     1      -4.081  -1.876  23.954  0.00  0.00    +0.000 A 
ATOM     13  C   UNL     1      -3.340  -1.514  23.972  0.00  0.00    +0.005 A 
ENDBRANCH   6   8
ENDBRANCH   4   5
ENDBRANCH   3   4
BRANCH  16  17
ATOM     17  N   UNL     1      -0.878   2.496  24.970  0.00  0.00    -0.209 NA
BRANCH  17  18
ATOM     18  C   UNL     1      -1.045   3.043  25.565  0.00  0.00    +0.115 C 
BRANCH  18  19
ATOM     19  C   UNL     1      -1.178   3.834  25.373  0.00  0.00    -0.005 A 
ATOM     20  C   UNL     1      -0.580   4.278  25.017  0.00  0.00    -0.003 A 
ATOM     21  C   UNL     1      -0.714   5.070  24.825  0.00  0.00    -0.000 A 
ATOM     22  C   UNL     1      -1.444   5.416  24.988  0.00  0.00    -0.000 A 
ATOM     23  C   UNL     1      -2.041   4.972  25.344  0.00  0.00    -0.000 A 
ATOM     24  C   UNL     1      -1.908   4.180  25.536  0.00  0.00    -0.003 A 
ENDBRANCH  18  19
ENDBRANCH  17  18
ENDBRANCH  16  17
TORSDOF 6
ENDMDL
MODEL 4
REMARK VINA RESULT:      -6.7     14.724     16.857
REMARK  Name = 
REMARK  6 active torsions:
REMARK  status: ('A' for Active; 'I' for Inactive)
REMARK    1  A    between atoms: C_3  and  C_4
REMARK    2  A    between atoms: C_4  and  N_5
REMARK    3  A    between atoms: C_6  and  C_8
REMARK    4  A    between atoms: C_16  and  N_17
REMARK    5  A    between atoms: N_17  and  C_18
REMARK    6  A    between atoms: C_18  and  C_19
REMARK                            x       y       z     vdW  Elec       q    Type
REMARK                         _______ _______ _______ _____ _____    ______ ____
ROOT
ATOM      1  O   UNL     1      -2.890 -10.606  14.219  0.00  0.00    -0.219 OA
ATOM      2  C   UNL     1      -3.673 -10.538  13.968  0.00  0.00    +0.199 C 
ATOM      3  C   UNL     1      -3.927 -10.451  13.189  0.00  0.00    +0.169 C 
ATOM     14  O   UNL     1      -4.751 -10.404  13.193  0.00  0.00    -0.350 OA
ATOM     15  C   UNL     1      -5.006 -10.463  13.975  0.00  0.00    +0.162 C 
ATOM     16  C   UNL     1      -4.340 -10.546  14.455  0.00  0.00    +0.135 C 
ENDROOT
BRANCH   3   4
ATOM      4  C   UNL     1      -3.443 -10.416  12.522  0.00  0.00    +0.148 C 
BRANCH   4   5
ATOM      5  N   UNL     1      -3.754 -10.174  11.797  0.00  0.00    -0.199 NA
ATOM      6  C   UNL     1      -3.281 -10.180  11.121  0.00  0.00    +0.265 C 
ATOM      7  O   UNL     1      -2.496 -10.429  11.171  0.00  0.00    -0.268 OA
BRANCH   6   8
ATOM      8  C   UNL     1      -3.593  -9.937  10.397  0.00  0.00    +0.055 A 
ATOM      9  C   UNL     1      -3.924 -10.492   9.885  0.00  0.00    +0.005 A 
ATOM     10  C   UNL     1      -4.236 -10.250   9.160  0.00  0.00    +0.000 A 
ATOM     11  C   UNL     1      -4.216  -9.453   8.949  0.00  0.00    +0.000 A 
ATOM     12  C   UNL     1      -3.884  -8.898   9.462  0.00  0.00    +0.000 A 
ATOM     13  C   UNL     1      -3.573  -9.140  10.186  0.00  0.00    +0.005 A 
ENDBRANCH   6   8
ENDBRANCH   4   5
ENDBRANCH   3   4
BRANCH  16  17
ATOM     17  N   UNL     1      -4.341 -10.622  15.276  0.00  0.00    -0.209 NA
BRANCH  17  18
ATOM     18  C   UNL     1      -4.952 -10.293  15.720  0.00  0.00    +0.115 C 
BRANCH  18  19
ATOM     19  C   UNL     1      -5.010 -10.456  16.527  0.00  0.00    -0.005 A 
ATOM     20  C   UNL     1      -5.751 -10.507  16.886  0.00  0.00    -0.003 A 
ATOM     21  C   UNL     1      -5.809 -10.670  17.693  0.00  0.00    -0.000 A 
ATOM     22  C   UNL     1      -5.125 -10.781  18.141  0.00  0.00    -0.000 A 
ATOM     23  C   UNL     1      -4.384 -10.730  17.782  0.00  0.00    -0.000 A 
ATOM     24  C   UNL     1      -4.326 -10.567  16.975  0.00  0.00    -0.003 A 
ENDBRANCH  18  19
ENDBRANCH  17  18
ENDBRANCH  16  17
TORSDOF 6
ENDMDL
