MODEL 1
REMARK VINA RESULT:     -12.8      0.000      0.000
REMARK  Name = 
REMARK  2 active torsions:
REMARK  status: ('A' for Active; 'I' for Inactive)
REMARK    1  A    between atoms: C_7  and  N_10
REMARK    2  A    between atoms: C_13  and  C_15
REMARK                            x       y       z     vdW  Elec       q    Type
REMARK                         _______ _______ _______ _____ _____    ______ ____
ROOT
ATOM     10  N   UNL     1      -3.382   2.244  24.931  0.00  0.00    -0.273 NA
ATOM     11  C   UNL     1      -4.203   2.241  25.007  0.00  0.00    +0.073 C 
ATOM     12  C   UNL     1      -4.463   1.461  24.931  0.00  0.00    +0.026 C 
ATOM     13  C   UNL     1      -3.802   0.983  24.806  0.00  0.00    +0.076 C 
ATOM     14  C   UNL     1      -3.134   1.466  24.807  0.00  0.00    +0.080 C 
ENDROOT
BRANCH  13  15
ATOM     15  C   UNL     1      -3.809   0.165  24.701  0.00  0.00    +0.140 A 
ATOM     16  N   UNL     1      -3.435  -0.390  25.183  0.00  0.00    -0.229 NA
ATOM     17  C   UNL     1      -3.586  -1.139  24.875  0.00  0.00    +0.100 A 
ATOM     18  C   UNL     1      -4.053  -1.048  24.201  0.00  0.00    +0.100 A 
ATOM     19  N   UNL     1      -4.191  -0.243  24.093  0.00  0.00    -0.229 NA
ATOM     20  C   UNL     1      -4.292  -1.712  23.773  0.00  0.00    +0.020 A 
ATOM     21  C   UNL     1      -4.065  -2.466  24.018  0.00  0.00    -0.003 A 
ATOM     22  C   UNL     1      -3.598  -2.556  24.692  0.00  0.00    -0.020 A 
ATOM     23  C   UNL     1      -3.369  -3.310  24.938  0.00  0.00    +0.031 C 
ATOM     24  C   UNL     1      -3.358  -1.894  25.120  0.00  0.00    +0.016 A 
ENDBRANCH  13  15
BRANCH  10   7
ATOM      1  C   UNL     1      -0.653   4.859  24.811  0.00  0.00    +0.095 C 
ATOM      2  C   UNL     1      -1.428   4.899  25.093  0.00  0.00    +0.226 C 
ATOM      3  O   UNL     1      -1.714   5.602  25.415  0.00  0.00    -0.275 OA
ATOM      4  N   UNL     1      -1.917   4.235  25.052  0.00  0.00    -0.279 N 
ATOM      5  C   UNL     1      -2.691   4.274  25.334  0.00  0.00    +0.095 C 
ATOM      6  C   UNL     1      -3.179   3.611  25.293  0.00  0.00    +0.038 C 
ATOM      7  C   UNL     1      -2.893   2.907  24.971  0.00  0.00    +0.061 C 
ATOM      8  C   UNL     1      -2.118   2.868  24.689  0.00  0.00    +0.038 C 
ATOM      9  C   UNL     1      -1.630   3.532  24.730  0.00  0.00    +0.095 C 
ENDBRANCH  10   7
TORSDOF 2
ENDMDL
MODEL 2
REMARK VINA RESULT:     -12.6      1.938      5.536
REMARK  Name = 
REMARK  2 active torsions:
REMARK  status: ('A' for Active; 'I' for Inactive)
REMARK    1  A    between atoms: C_7  and  N_10
REMARK    2  A    between atoms: C_13  and  C_15
REMARK                            x       y       z     vdW  Elec       q    Type
REMARK                         _______ _______ _______ _____ _____    ______ ____
ROOT
ATOM     10  N   UNL     1      -3.874   0.636  24.846  0.00  0.00    -0.273 NA
ATOM     11  C   UNL     1      -4.562   1.089  24.889  0.00  0.00    +0.073 C 
ATOM     12  C   UNL     1      -4.342   1.881  24.956  0.00  0.00    +0.026 C 
ATOM     13  C   UNL     1      -3.517   1.918  24.955  0.00  0.00    +0.076 C 
ATOM     14  C   UNL     1      -3.228   1.148  24.887  0.00  0.00    +0.080 C 
ENDROOT
BRANCH  13  15
ATOM     15  C   UNL     1      -3.062   2.603  25.012  0.00  0.00    +0.140 A 
ATOM     16  N   UNL     1      -2.301   2.707  24.711  0.00  0.00    -0.229 NA
ATOM     17  C   UNL     1      -2.057   3.473  24.893  0.00  0.00    +0.100 A 
ATOM     18  C   UNL     1      -2.667   3.843  25.307  0.00  0.00    +0.100 A 
ATOM     19  N   UNL     1      -3.288   3.306  25.381  0.00  0.00    -0.229 NA
ATOM     20  C   UNL     1      -2.577   4.623  25.564  0.00  0.00    +0.020 A 
ATOM     21  C   UNL     1      -1.878   5.031  25.406  0.00  0.00    -0.003 A 
ATOM     22  C   UNL     1      -1.268   4.661  24.992  0.00  0.00    -0.020 A 
ATOM     23  C   UNL     1      -0.569   5.068  24.834  0.00  0.00    +0.031 C 
ATOM     24  C   UNL     1      -1.357   3.882  24.735  0.00  0.00    +0.016 A 
ENDBRANCH  13  15
BRANCH  10   7
ATOM      1  C   UNL     1      -3.940  -3.011  23.851  0.00  0.00    +0.095 C 
ATOM      2  C   UNL     1      -3.728  -2.649  24.563  0.00  0.00    +0.226 C 
ATOM      3  O   UNL     1      -3.481  -3.108  25.201  0.00  0.00    -0.275 OA
ATOM      4  N   UNL     1      -3.765  -1.828  24.633  0.00  0.00    -0.279 N 
ATOM      5  C   UNL     1      -3.554  -1.465  25.343  0.00  0.00    +0.095 C 
ATOM      6  C   UNL     1      -3.590  -0.644  25.414  0.00  0.00    +0.038 C 
ATOM      7  C   UNL     1      -3.838  -0.185  24.775  0.00  0.00    +0.061 C 
ATOM      8  C   UNL     1      -4.049  -0.548  24.065  0.00  0.00    +0.038 C 
ATOM      9  C   UNL     1      -4.012  -1.370  23.994  0.00  0.00    +0.095 C 
ENDBRANCH  10   7
TORSDOF 2
ENDMDL
MODEL 3
REMARK VINA RESULT:      -9.7      3.107      4.267
REMARK  Name = 
REMARK  2 active torsions:
REMARK  status: ('A' for Active; 'I' for Inactive)
REMARK    1  A    between atoms: C_7  and  N_10
REMARK    2  A    between atoms: C_13  and  C_15
REMARK                            x       y       z     vdW  Elec       q    Type
REMARK                         _______ _______ _______ _____ _____    ______ ____
ROOT
ATOM     10  N   UNL     1      -0.889   0.461  24.454  0.00  0.00    -0.273 NA
ATOM     11  C   UNL     1      -1.080   0.016  25.121  0.00  0.00    +0.073 C 
ATOM     12  C   UNL     1      -1.848   0.214  25.349  0.00  0.00    +0.026 C 
ATOM     13  C   UNL     1      -2.132   0.782  24.821  0.00  0.00    +0.076 C 
ATOM     14  C   UNL     1      -1.539   0.934  24.268  0.00  0.00    +0.080 C 
ENDROOT
BRANCH  13  15
ATOM     15  C   UNL     1      -2.877   1.134  24.844  0.00  0.00    +0.140 A 
ATOM     16  N   UNL     1      -3.600   0.739  24.869  0.00  0.00    -0.229 NA
ATOM     17  C   UNL     1      -4.200   1.305  24.886  0.00  0.00    +0.100 A 
ATOM     18  C   UNL     1      -3.847   2.050  24.870  0.00  0.00    +0.100 A 
ATOM     19  N   UNL     1      -3.030   1.946  24.845  0.00  0.00    -0.229 NA
ATOM     20  C   UNL     1      -4.317   2.729  24.882  0.00  0.00    +0.020 A 
ATOM     21  C   UNL     1      -5.139   2.661  24.909  0.00  0.00    -0.003 A 
ATOM     22  C   UNL     1      -5.491   1.916  24.924  0.00  0.00    -0.020 A 
ATOM     23  C   UNL     1      -6.313   1.848  24.951  0.00  0.00    +0.031 C 
ATOM     24  C   UNL     1      -5.022   1.237  24.912  0.00  0.00    +0.016 A 
ENDBRANCH  13  15
BRANCH  10   7
ATOM      1  C   UNL     1       2.139  -0.266  22.309  0.00  0.00    +0.095 C 
ATOM      2  C   UNL     1       1.972   0.368  22.811  0.00  0.00    +0.226 C 
ATOM      3  O   UNL     1       2.519   0.977  22.902  0.00  0.00    -0.275 OA
ATOM      4  N   UNL     1       1.256   0.391  23.222  0.00  0.00    -0.279 N 
ATOM      5  C   UNL     1       1.089   1.024  23.723  0.00  0.00    +0.095 C 
ATOM      6  C   UNL     1       0.374   1.047  24.134  0.00  0.00    +0.038 C 
ATOM      7  C   UNL     1      -0.174   0.438  24.043  0.00  0.00    +0.061 C 
ATOM      8  C   UNL     1      -0.007  -0.196  23.541  0.00  0.00    +0.038 C 
ATOM      9  C   UNL     1       0.709  -0.219  23.130  0.00  0.00    +0.095 C 
ENDBRANCH  10   7
TORSDOF 2
ENDMDL
MODEL 4
REMARK VINA RESULT:      -9.2      2.151      2.761
REMARK  Name = 
REMARK  2 active torsions:
REMARK  status: ('A' for Active; 'I' for Inactive)
REMARK    1  A    between atoms: C_7  and  N_10
REMARK    2  A    between atoms: C_13  and  C_15
REMARK                            x       y       z     vdW  Elec       q    Type
REMARK                         _______ _______ _______ _____ _____    ______ ____
ROOT
ATOM     10  N   UNL     1      -4.450   0.887  24.853  0.00  0.00    -0.273 NA
ATOM     11  C   UNL     1      -4.900   0.280  24.523  0.00  0.00    +0.073 C 
ATOM     12  C   UNL     1      -4.419  -0.386  24.454  0.00  0.00    +0.026 C 
ATOM     13  C   UNL     1      -3.670  -0.191  24.741  0.00  0.00    +0.076 C 
ATOM     14  C   UNL     1      -3.689   0.596  24.987  0.00  0.00    +0.080 C 
ENDROOT
BRANCH  13  15
ATOM     15  C   UNL     1      -3.017  -0.694  24.775  0.00  0.00    +0.140 A 
ATOM     16  N   UNL     1      -2.278  -0.509  25.090  0.00  0.00    -0.229 NA
ATOM     17  C   UNL     1      -1.793  -1.171  25.009  0.00  0.00    +0.100 A 
ATOM     18  C   UNL     1      -2.233  -1.766  24.644  0.00  0.00    +0.100 A 
ATOM     19  N   UNL     1      -2.989  -1.472  24.499  0.00  0.00    -0.229 NA
ATOM     20  C   UNL     1      -1.887  -2.500  24.491  0.00  0.00    +0.020 A 
ATOM     21  C   UNL     1      -1.102  -2.638  24.703  0.00  0.00    -0.003 A 
ATOM     22  C   UNL     1      -0.663  -2.043  25.068  0.00  0.00    -0.020 A 
ATOM     23  C   UNL     1       0.123  -2.181  25.280  0.00  0.00    +0.031 C 
ATOM     24  C   UNL     1      -1.007  -1.310  25.221  0.00  0.00    +0.016 A 
ENDBRANCH  13  15
BRANCH  10   7
ATOM      1  C   UNL     1      -5.025   4.592  25.338  0.00  0.00    +0.095 C 
ATOM      2  C   UNL     1      -5.502   3.943  25.520  0.00  0.00    +0.226 C 
ATOM      3  O   UNL     1      -6.240   4.058  25.868  0.00  0.00    -0.275 OA
ATOM      4  N   UNL     1      -5.238   3.179  25.353  0.00  0.00    -0.279 N 
ATOM      5  C   UNL     1      -5.714   2.530  25.534  0.00  0.00    +0.095 C 
ATOM      6  C   UNL     1      -5.451   1.767  25.368  0.00  0.00    +0.038 C 
ATOM      7  C   UNL     1      -4.712   1.651  25.020  0.00  0.00    +0.061 C 
ATOM      8  C   UNL     1      -4.236   2.300  24.838  0.00  0.00    +0.038 C 
ATOM      9  C   UNL     1      -4.500   3.065  25.005  0.00  0.00    +0.095 C 
ENDBRANCH  10   7
TORSDOF 2
ENDMDL
