MODEL 1
REMARK VINA RESULT:     -12.2      0.000      0.000
REMARK  Name = 
REMARK  5 active torsions:
REMARK  status: ('A' for Active; 'I' for Inactive)
REMARK    1  A    between atoms: O_2  and  C_3
REMARK    2  A    between atoms: C_6  and  C_9
REMARK    3  A    between atoms: C_12  and  C_14
REMARK    4  A    between atoms: N_19  and  C_20
REMARK    5  A    between atoms: C_20  and  C_21
REMARK                            x       y       z     vdW  Elec       q    Type
REMARK                         _______ _______ _______ _____ _____    ______ ____
ROOT
ATOM     14  C   UNL     1      -4.432   2.335  24.975  0.00  0.00    +0.140 C 
ATOM     15  C   UNL     1      -5.197   2.608  25.123  0.00  0.00    +0.060 C 
ATOM     16  C   UNL     1      -5.140   3.353  25.471  0.00  0.00    +0.170 C 
ATOM     17  O   UNL     1      -5.772   3.827  25.710  0.00  0.00    -0.222 OA
ATOM     18  C   UNL     1      -4.339   3.542  25.540  0.00  0.00    +0.106 C 
ATOM     19  N   UNL     1      -3.902   2.912  25.233  0.00  0.00    -0.260 NA
ENDROOT
BRANCH  14  12
ATOM      9  C   UNL     1      -3.978   0.313  24.465  0.00  0.00    +0.203 A 
ATOM     10  N   UNL     1      -3.875   0.688  23.737  0.00  0.00    -0.056 NA
ATOM     11  O   UNL     1      -4.032   1.492  23.840  0.00  0.00    -0.336 OA
ATOM     12  C   UNL     1      -4.233   1.613  24.631  0.00  0.00    +0.251 A 
ATOM     13  N   UNL     1      -4.200   0.884  25.017  0.00  0.00    -0.190 NA
BRANCH   9   6
ATOM      3  C   UNL     1      -3.677  -2.103  24.912  0.00  0.00    +0.139 A 
ATOM      4  C   UNL     1      -3.437  -1.546  25.471  0.00  0.00    +0.037 A 
ATOM      5  C   UNL     1      -3.537  -0.741  25.322  0.00  0.00    +0.006 A 
ATOM      6  C   UNL     1      -3.878  -0.492  24.614  0.00  0.00    +0.039 A 
ATOM      7  C   UNL     1      -4.119  -1.048  24.054  0.00  0.00    +0.006 A 
ATOM      8  C   UNL     1      -4.019  -1.853  24.203  0.00  0.00    +0.037 A 
BRANCH   3   2
ATOM      1  C   UNL     1      -3.063  -3.353  24.593  0.00  0.00    +0.252 C 
ATOM      2  O   UNL     1      -3.577  -2.908  25.061  0.00  0.00    -0.471 OA
ENDBRANCH   3   2
ENDBRANCH   9   6
ENDBRANCH  14  12
BRANCH  19  20
ATOM     20  C   UNL     1      -3.079   2.868  25.192  0.00  0.00    +0.100 C 
BRANCH  20  21
ATOM     21  C   UNL     1      -2.627   3.557  25.221  0.00  0.00    -0.006 A 
ATOM     22  C   UNL     1      -2.430   3.950  24.523  0.00  0.00    -0.001 A 
ATOM     23  C   UNL     1      -1.977   4.640  24.552  0.00  0.00    +0.029 A 
ATOM     24  C   UNL     1      -1.723   4.936  25.279  0.00  0.00    +0.140 A 
ATOM     25  F   UNL     1      -1.270   5.626  25.307  0.00  0.00    -0.204 F 
ATOM     26  C   UNL     1      -1.920   4.543  25.976  0.00  0.00    +0.029 A 
ATOM     27  C   UNL     1      -2.372   3.854  25.948  0.00  0.00    -0.001 A 
ENDBRANCH  20  21
ENDBRANCH  19  20
TORSDOF 5
ENDMDL
MODEL 2
REMARK VINA RESULT:     -11.2      2.842      5.873
REMARK  Name = 
REMARK  5 active torsions:
REMARK  status: ('A' for Active; 'I' for Inactive)
REMARK    1  A    between atoms: O_2  and  C_3
REMARK    2  A    between atoms: C_6  and  C_9
REMARK    3  A    between atoms: C_12  and  C_14
REMARK    4  A    between atoms: N_19  and  C_20
REMARK    5  A    between atoms: C_20  and  C_21
REMARK                            x       y       z     vdW  Elec       q    Type
REMARK                         _______ _______ _______ _____ _____    ______ ____
ROOT
ATOM     14  C   UNL     1      -0.861   0.240  24.892  0.00  0.00    +0.140 C 
ATOM     15  C   UNL     1      -0.207  -0.056  24.486  0.00  0.00    +0.060 C 
ATOM     16  C   UNL     1      -0.410  -0.794  24.177  0.00  0.00    +0.170 C 
ATOM     17  O   UNL     1       0.080  -1.285  23.731  0.00  0.00    -0.222 OA
ATOM     18  C   UNL     1      -1.191  -0.954  24.392  0.00  0.00    +0.106 C 
ATOM     19  N   UNL     1      -1.469  -0.315  24.834  0.00  0.00    -0.260 NA
ENDROOT
BRANCH  14  12
ATOM      9  C   UNL     1      -1.076   2.261  25.542  0.00  0.00    +0.203 A 
ATOM     10  N   UNL     1      -0.845   1.892  26.244  0.00  0.00    -0.056 NA
ATOM     11  O   UNL     1      -0.736   1.089  26.085  0.00  0.00    -0.336 OA
ATOM     12  C   UNL     1      -0.900   0.963  25.286  0.00  0.00    +0.251 A 
ATOM     13  N   UNL     1      -1.110   1.687  24.951  0.00  0.00    -0.190 NA
BRANCH   9   6
ATOM      3  C   UNL     1      -1.579   4.669  25.264  0.00  0.00    +0.139 A 
ATOM      4  C   UNL     1      -2.136   4.168  25.609  0.00  0.00    +0.037 A 
ATOM      5  C   UNL     1      -1.968   3.365  25.702  0.00  0.00    +0.006 A 
ATOM      6  C   UNL     1      -1.244   3.064  25.450  0.00  0.00    +0.039 A 
ATOM      7  C   UNL     1      -0.685   3.564  25.104  0.00  0.00    +0.006 A 
ATOM      8  C   UNL     1      -0.853   4.366  25.011  0.00  0.00    +0.037 A 
BRANCH   3   2
ATOM      1  C   UNL     1      -1.196   5.968  24.808  0.00  0.00    +0.252 C 
ATOM      2  O   UNL     1      -1.746   5.471  25.171  0.00  0.00    -0.471 OA
ENDBRANCH   3   2
ENDBRANCH   9   6
ENDBRANCH  14  12
BRANCH  19  20
ATOM     20  C   UNL     1      -2.223  -0.244  25.161  0.00  0.00    +0.100 C 
BRANCH  20  21
ATOM     21  C   UNL     1      -2.840  -0.713  24.881  0.00  0.00    -0.006 A 
ATOM     22  C   UNL     1      -2.973  -1.459  25.208  0.00  0.00    -0.001 A 
ATOM     23  C   UNL     1      -3.591  -1.929  24.927  0.00  0.00    +0.029 A 
ATOM     24  C   UNL     1      -4.076  -1.652  24.319  0.00  0.00    +0.140 A 
ATOM     25  F   UNL     1      -4.693  -2.123  24.039  0.00  0.00    -0.204 F 
ATOM     26  C   UNL     1      -3.943  -0.907  23.992  0.00  0.00    +0.029 A 
ATOM     27  C   UNL     1      -3.325  -0.438  24.273  0.00  0.00    -0.001 A 
ENDBRANCH  20  21
ENDBRANCH  19  20
TORSDOF 5
ENDMDL
MODEL 3
REMARK VINA RESULT:     -11.1      2.175      2.818
REMARK  Name = 
REMARK  5 active torsions:
REMARK  status: ('A' for Active; 'I' for Inactive)
REMARK    1  A    between atoms: O_2  and  C_3
REMARK    2  A    between atoms: C_6  and  C_9
REMARK    3  A    between atoms: C_12  and  C_14
REMARK    4  A    between atoms: N_19  and  C_20
REMARK    5  A    between atoms: C_20  and  C_21
REMARK                            x       y       z     vdW  Elec       q    Type
REMARK                         _______ _______ _______ _____ _____    ______ ____
ROOT
ATOM     14  C   UNL     1      -0.636   1.758  25.501  0.00  0.00    +0.140 C 
ATOM     15  C   UNL     1      -0.100   1.606  26.110  0.00  0.00    +0.060 C 
ATOM     16  C   UNL     1       0.117   2.327  26.445  0.00  0.00    +0.170 C 
ATOM     17  O   UNL     1       0.643   2.432  27.071  0.00  0.00    -0.222 OA
ATOM     18  C   UNL     1      -0.285   2.926  26.043  0.00  0.00    +0.106 C 
ATOM     19  N   UNL     1      -0.750   2.574  25.459  0.00  0.00    -0.260 NA
ENDROOT
BRANCH  14  12
ATOM      9  C   UNL     1      -1.841   0.267  24.561  0.00  0.00    +0.203 A 
ATOM     10  N   UNL     1      -1.253   0.379  23.992  0.00  0.00    -0.056 NA
ATOM     11  O   UNL     1      -0.730   0.952  24.275  0.00  0.00    -0.336 OA
ATOM     12  C   UNL     1      -0.994   1.193  25.018  0.00  0.00    +0.251 A 
ATOM     13  N   UNL     1      -1.681   0.769  25.195  0.00  0.00    -0.190 NA
BRANCH   9   6
ATOM      3  C   UNL     1      -3.747  -1.303  24.393  0.00  0.00    +0.139 A 
ATOM      4  C   UNL     1      -3.825  -0.528  24.121  0.00  0.00    +0.037 A 
ATOM      5  C   UNL     1      -3.189  -0.005  24.177  0.00  0.00    +0.006 A 
ATOM      6  C   UNL     1      -2.476  -0.256  24.505  0.00  0.00    +0.039 A 
ATOM      7  C   UNL     1      -2.397  -1.031  24.777  0.00  0.00    +0.006 A 
ATOM      8  C   UNL     1      -3.032  -1.555  24.721  0.00  0.00    +0.037 A 
BRANCH   3   2
ATOM      1  C   UNL     1      -4.366  -2.436  23.780  0.00  0.00    +0.252 C 
ATOM      2  O   UNL     1      -4.382  -1.826  24.337  0.00  0.00    -0.471 OA
ENDBRANCH   3   2
ENDBRANCH   9   6
ENDBRANCH  14  12
BRANCH  19  20
ATOM     20  C   UNL     1      -1.242   2.968  24.928  0.00  0.00    +0.100 C 
BRANCH  20  21
ATOM     21  C   UNL     1      -1.351   3.783  24.994  0.00  0.00    -0.006 A 
ATOM     22  C   UNL     1      -0.797   4.301  24.669  0.00  0.00    -0.001 A 
ATOM     23  C   UNL     1      -0.906   5.116  24.734  0.00  0.00    +0.029 A 
ATOM     24  C   UNL     1      -1.569   5.413  25.125  0.00  0.00    +0.140 A 
ATOM     25  F   UNL     1      -1.678   6.229  25.190  0.00  0.00    -0.204 F 
ATOM     26  C   UNL     1      -2.123   4.896  25.449  0.00  0.00    +0.029 A 
ATOM     27  C   UNL     1      -2.015   4.081  25.384  0.00  0.00    -0.001 A 
ENDBRANCH  20  21
ENDBRANCH  19  20
TORSDOF 5
ENDMDL
MODEL 4
REMARK VINA RESULT:     -11.0      2.391      5.453
REMARK  Name = 
REMARK  5 active torsions:
REMARK  status: ('A' for Active; 'I' for Inactive)
REMARK    1  A    between atoms: O_2  and  C_3
REMARK    2  A    between atoms: C_6  and  C_9
REMARK    3  A    between atoms: C_12  and  C_14
REMARK    4  A    between atoms: N_19  and  C_20
REMARK    5  A    between atoms: C_20  and  C_21
REMARK                            x       y       z     vdW  Elec       q    Type
REMARK                         _______ _______ _______ _____ _____    ______ ____
ROOT
ATOM     14  C   UNL     1      -2.227   0.545  24.347  0.00  0.00    +0.140 C 
ATOM     15  C   UNL     1      -1.407   0.578  24.262  0.00  0.00    +0.060 C 
ATOM     16  C   UNL     1      -1.101  -0.166  24.445  0.00  0.00    +0.170 C 
ATOM     17  O   UNL     1      -0.305  -0.380  24.432  0.00  0.00    -0.222 OA
ATOM     18  C   UNL     1      -1.733  -0.659  24.642  0.00  0.00    +0.106 C 
ATOM     19  N   UNL     1      -2.429  -0.219  24.582  0.00  0.00    -0.260 NA
ENDROOT
BRANCH  14  12
ATOM      9  C   UNL     1      -3.658   2.128  24.423  0.00  0.00    +0.203 A 
ATOM     10  N   UNL     1      -3.466   2.125  23.620  0.00  0.00    -0.056 NA
ATOM     11  O   UNL     1      -2.907   1.531  23.494  0.00  0.00    -0.336 OA
ATOM     12  C   UNL     1      -2.753   1.168  24.218  0.00  0.00    +0.251 A 
ATOM     13  N   UNL     1      -3.217   1.536  24.793  0.00  0.00    -0.190 NA
BRANCH   9   6
ATOM      3  C   UNL     1      -5.272   3.644  25.528  0.00  0.00    +0.139 A 
ATOM      4  C   UNL     1      -5.516   2.902  25.265  0.00  0.00    +0.037 A 
ATOM      5  C   UNL     1      -4.978   2.396  24.897  0.00  0.00    +0.006 A 
ATOM      6  C   UNL     1      -4.196   2.633  24.791  0.00  0.00    +0.039 A 
ATOM      7  C   UNL     1      -3.950   3.376  25.054  0.00  0.00    +0.006 A 
ATOM      8  C   UNL     1      -4.488   3.881  25.422  0.00  0.00    +0.037 A 
BRANCH   3   2
ATOM      1  C   UNL     1      -6.060   4.836  25.512  0.00  0.00    +0.252 C 
ATOM      2  O   UNL     1      -5.810   4.150  25.896  0.00  0.00    -0.471 OA
ENDBRANCH   3   2
ENDBRANCH   9   6
ENDBRANCH  14  12
BRANCH  19  20
ATOM     20  C   UNL     1      -3.191  -0.496  24.730  0.00  0.00    +0.100 C 
BRANCH  20  21
ATOM     21  C   UNL     1      -3.359  -1.300  24.662  0.00  0.00    -0.006 A 
ATOM     22  C   UNL     1      -3.219  -1.806  25.298  0.00  0.00    -0.001 A 
ATOM     23  C   UNL     1      -3.387  -2.612  25.230  0.00  0.00    +0.029 A 
ATOM     24  C   UNL     1      -3.695  -2.910  24.525  0.00  0.00    +0.140 A 
ATOM     25  F   UNL     1      -3.863  -3.715  24.457  0.00  0.00    -0.204 F 
ATOM     26  C   UNL     1      -3.835  -2.404  23.889  0.00  0.00    +0.029 A 
ATOM     27  C   UNL     1      -3.667  -1.600  23.957  0.00  0.00    -0.001 A 
ENDBRANCH  20  21
ENDBRANCH  19  20
TORSDOF 5
ENDMDL
MODEL 5
REMARK VINA RESULT:     -10.8      2.186      5.082
REMARK  Name = 
REMARK  5 active torsions:
REMARK  status: ('A' for Active; 'I' for Inactive)
REMARK    1  A    between atoms: O_2  and  C_3
REMARK    2  A    between atoms: C_6  and  C_9
REMARK    3  A    between atoms: C_12  and  C_14
REMARK    4  A    between atoms: N_19  and  C_20
REMARK    5  A    between atoms: C_20  and  C_21
REMARK                            x       y       z     vdW  Elec       q    Type
REMARK                         _______ _______ _______ _____ _____    ______ ____
ROOT
ATOM     14  C   UNL     1      -4.661   1.733  24.976  0.00  0.00    +0.140 C 
ATOM     15  C   UNL     1      -5.371   1.904  25.359  0.00  0.00    +0.060 C 
ATOM     16  C   UNL     1      -5.719   1.191  25.583  0.00  0.00    +0.170 C 
ATOM     17  O   UNL     1      -6.436   1.105  25.982  0.00  0.00    -0.222 OA
ATOM     18  C   UNL     1      -5.224   0.578  25.338  0.00  0.00    +0.106 C 
ATOM     19  N   UNL     1      -4.570   0.913  24.962  0.00  0.00    -0.260 NA
ENDROOT
BRANCH  14  12
ATOM      9  C   UNL     1      -3.121   3.144  24.535  0.00  0.00    +0.203 A 
ATOM     10  N   UNL     1      -3.528   3.123  23.818  0.00  0.00    -0.056 NA
ATOM     11  O   UNL     1      -4.155   2.592  23.895  0.00  0.00    -0.336 OA
ATOM     12  C   UNL     1      -4.135   2.284  24.661  0.00  0.00    +0.251 A 
ATOM     13  N   UNL     1      -3.496   2.626  25.056  0.00  0.00    -0.190 NA
BRANCH   9   6
ATOM      3  C   UNL     1      -1.125   4.519  25.036  0.00  0.00    +0.139 A 
ATOM      4  C   UNL     1      -1.037   3.769  24.704  0.00  0.00    +0.037 A 
ATOM      5  C   UNL     1      -1.703   3.311  24.537  0.00  0.00    +0.006 A 
ATOM      6  C   UNL     1      -2.456   3.602  24.702  0.00  0.00    +0.039 A 
ATOM      7  C   UNL     1      -2.545   4.352  25.035  0.00  0.00    +0.006 A 
ATOM      8  C   UNL     1      -1.880   4.811  25.202  0.00  0.00    +0.037 A 
BRANCH   3   2
ATOM      1  C   UNL     1      -0.209   5.551  24.665  0.00  0.00    +0.252 C 
ATOM      2  O   UNL     1      -0.460   4.978  25.203  0.00  0.00    -0.471 OA
ENDBRANCH   3   2
ENDBRANCH   9   6
ENDBRANCH  14  12
BRANCH  19  20
ATOM     20  C   UNL     1      -3.937   0.501  24.632  0.00  0.00    +0.100 C 
BRANCH  20  21
ATOM     21  C   UNL     1      -3.889  -0.318  24.716  0.00  0.00    -0.006 A 
ATOM     22  C   UNL     1      -4.184  -0.812  24.126  0.00  0.00    -0.001 A 
ATOM     23  C   UNL     1      -4.136  -1.632  24.210  0.00  0.00    +0.029 A 
ATOM     24  C   UNL     1      -3.791  -1.957  24.886  0.00  0.00    +0.140 A 
ATOM     25  F   UNL     1      -3.743  -2.776  24.971  0.00  0.00    -0.204 F 
ATOM     26  C   UNL     1      -3.495  -1.462  25.476  0.00  0.00    +0.029 A 
ATOM     27  C   UNL     1      -3.544  -0.644  25.392  0.00  0.00    -0.001 A 
ENDBRANCH  20  21
ENDBRANCH  19  20
TORSDOF 5
ENDMDL
