MODEL 1
REMARK VINA RESULT:     -13.5      0.000      0.000
REMARK  Name = 
REMARK  4 active torsions:
REMARK  status: ('A' for Active; 'I' for Inactive)
REMARK    1  A    between atoms: C_2  and  C_5
REMARK    2  A    between atoms: C_8  and  C_9
REMARK    3  A    between atoms: C_9  and  N_10
REMARK    4  A    between atoms: C_13  and  C_15
REMARK                            x       y       z     vdW  Elec       q    Type
REMARK                         _______ _______ _______ _____ _____    ______ ____
ROOT
ATOM     10  N   UNL     1      -4.572   2.122  24.693  0.00  0.00    -0.268 NA
ATOM     11  C   UNL     1      -5.138   1.912  25.255  0.00  0.00    +0.073 C 
ATOM     12  C   UNL     1      -5.103   1.094  25.359  0.00  0.00    +0.028 C 
ATOM     13  C   UNL     1      -4.515   0.798  24.861  0.00  0.00    +0.094 C 
ATOM     14  C   UNL     1      -4.188   1.433  24.449  0.00  0.00    +0.082 C 
ENDROOT
BRANCH  13  15
ATOM     15  C   UNL     1      -4.295   0.007  24.787  0.00  0.00    +0.207 A 
ATOM     16  N   UNL     1      -3.843  -0.423  25.327  0.00  0.00    -0.212 NA
ATOM     17  C   UNL     1      -3.757  -1.189  25.035  0.00  0.00    +0.119 A 
ATOM     18  C   UNL     1      -4.156  -1.233  24.314  0.00  0.00    +0.164 A 
ATOM     19  O   UNL     1      -4.489  -0.494  24.161  0.00  0.00    -0.438 OA
ATOM     20  C   UNL     1      -4.164  -1.941  23.890  0.00  0.00    +0.039 A 
ATOM     21  C   UNL     1      -3.774  -2.604  24.187  0.00  0.00    +0.003 A 
ATOM     22  C   UNL     1      -3.375  -2.560  24.908  0.00  0.00    +0.002 A 
ATOM     23  C   UNL     1      -3.366  -1.853  25.332  0.00  0.00    +0.022 A 
ENDBRANCH  13  15
BRANCH  10   9
ATOM      9  C   UNL     1      -4.418   2.885  24.421  0.00  0.00    +0.099 C 
BRANCH   9   8
ATOM      5  C   UNL     1      -2.362   4.062  25.137  0.00  0.00    +0.071 A 
ATOM      6  C   UNL     1      -2.367   3.633  24.432  0.00  0.00    +0.004 A 
ATOM      7  C   UNL     1      -3.053   3.241  24.193  0.00  0.00    -0.003 A 
ATOM      8  C   UNL     1      -3.733   3.277  24.660  0.00  0.00    -0.006 A 
ATOM     24  C   UNL     1      -3.727   3.706  25.365  0.00  0.00    -0.003 A 
ATOM     25  C   UNL     1      -3.041   4.098  25.603  0.00  0.00    +0.004 A 
BRANCH   5   2
ATOM      1  F   UNL     1      -0.990   4.847  25.613  0.00  0.00    -0.166 F 
ATOM      2  C   UNL     1      -1.676   4.454  25.375  0.00  0.00    +0.419 C 
ATOM      3  F   UNL     1      -1.932   5.137  24.988  0.00  0.00    -0.166 F 
ATOM      4  F   UNL     1      -1.420   3.773  25.762  0.00  0.00    -0.166 F 
ENDBRANCH   5   2
ENDBRANCH   9   8
ENDBRANCH  10   9
TORSDOF 4
ENDMDL
MODEL 2
REMARK VINA RESULT:     -13.4      2.845      5.406
REMARK  Name = 
REMARK  4 active torsions:
REMARK  status: ('A' for Active; 'I' for Inactive)
REMARK    1  A    between atoms: C_2  and  C_5
REMARK    2  A    between atoms: C_8  and  C_9
REMARK    3  A    between atoms: C_9  and  N_10
REMARK    4  A    between atoms: C_13  and  C_15
REMARK                            x       y       z     vdW  Elec       q    Type
REMARK                         _______ _______ _______ _____ _____    ______ ____
ROOT
ATOM     10  N   UNL     1      -3.962   1.052  24.620  0.00  0.00    -0.268 NA
ATOM     11  C   UNL     1      -3.908   1.206  23.811  0.00  0.00    +0.073 C 
ATOM     12  C   UNL     1      -3.419   1.864  23.709  0.00  0.00    +0.028 C 
ATOM     13  C   UNL     1      -3.172   2.116  24.455  0.00  0.00    +0.094 C 
ATOM     14  C   UNL     1      -3.507   1.614  25.018  0.00  0.00    +0.082 C 
ENDROOT
BRANCH  13  15
ATOM     15  C   UNL     1      -2.676   2.757  24.611  0.00  0.00    +0.207 A 
ATOM     16  N   UNL     1      -1.858   2.774  24.508  0.00  0.00    -0.212 NA
ATOM     17  C   UNL     1      -1.589   3.521  24.730  0.00  0.00    +0.119 A 
ATOM     18  C   UNL     1      -2.240   3.966  24.970  0.00  0.00    +0.164 A 
ATOM     19  O   UNL     1      -2.913   3.494  24.896  0.00  0.00    -0.438 OA
ATOM     20  C   UNL     1      -2.136   4.744  25.224  0.00  0.00    +0.039 A 
ATOM     21  C   UNL     1      -1.382   5.076  25.239  0.00  0.00    +0.003 A 
ATOM     22  C   UNL     1      -0.731   4.631  24.999  0.00  0.00    +0.002 A 
ATOM     23  C   UNL     1      -0.833   3.853  24.744  0.00  0.00    +0.022 A 
ENDBRANCH  13  15
BRANCH  10   9
ATOM      9  C   UNL     1      -4.394   0.443  24.970  0.00  0.00    +0.099 C 
BRANCH   9   8
ATOM      5  C   UNL     1      -3.586  -1.892  24.823  0.00  0.00    +0.071 A 
ATOM      6  C   UNL     1      -3.399  -1.431  25.482  0.00  0.00    +0.004 A 
ATOM      7  C   UNL     1      -3.669  -0.653  25.531  0.00  0.00    -0.003 A 
ATOM      8  C   UNL     1      -4.125  -0.335  24.920  0.00  0.00    -0.006 A 
ATOM     24  C   UNL     1      -4.311  -0.796  24.262  0.00  0.00    -0.003 A 
ATOM     25  C   UNL     1      -4.041  -1.574  24.214  0.00  0.00    +0.004 A 
BRANCH   5   2
ATOM      1  F   UNL     1      -3.047  -3.449  24.728  0.00  0.00    -0.166 F 
ATOM      2  C   UNL     1      -3.316  -2.670  24.775  0.00  0.00    +0.419 C 
ATOM      3  F   UNL     1      -3.700  -2.847  25.484  0.00  0.00    -0.166 F 
ATOM      4  F   UNL     1      -2.932  -2.494  24.067  0.00  0.00    -0.166 F 
ENDBRANCH   5   2
ENDBRANCH   9   8
ENDBRANCH  10   9
TORSDOF 4
ENDMDL
MODEL 3
REMARK VINA RESULT:     -12.9      3.206      5.785
REMARK  Name = 
REMARK  4 active torsions:
REMARK  status: ('A' for Active; 'I' for Inactive)
REMARK    1  A    between atoms: C_2  and  C_5
REMARK    2  A    between atoms: C_8  and  C_9
REMARK    3  A    between atoms: C_9  and  N_10
REMARK    4  A    between atoms: C_13  and  C_15
REMARK                            x       y       z     vdW  Elec       q    Type
REMARK                         _______ _______ _______ _____ _____    ______ ____
ROOT
ATOM     10  N   UNL     1      -1.208  -0.024  25.360  0.00  0.00    -0.268 NA
ATOM     11  C   UNL     1      -0.646   0.059  24.762  0.00  0.00    +0.073 C 
ATOM     12  C   UNL     1      -0.563   0.864  24.601  0.00  0.00    +0.028 C 
ATOM     13  C   UNL     1      -1.075   1.278  25.099  0.00  0.00    +0.094 C 
ATOM     14  C   UNL     1      -1.473   0.729  25.568  0.00  0.00    +0.082 C 
ENDROOT
BRANCH  13  15
ATOM     15  C   UNL     1      -1.170   2.097  25.124  0.00  0.00    +0.207 A 
ATOM     16  N   UNL     1      -0.616   2.658  24.883  0.00  0.00    -0.212 NA
ATOM     17  C   UNL     1      -0.940   3.406  25.004  0.00  0.00    +0.119 A 
ATOM     18  C   UNL     1      -1.696   3.308  25.320  0.00  0.00    +0.164 A 
ATOM     19  O   UNL     1      -1.838   2.500  25.395  0.00  0.00    -0.438 OA
ATOM     20  C   UNL     1      -2.156   3.969  25.500  0.00  0.00    +0.039 A 
ATOM     21  C   UNL     1      -1.861   4.727  25.363  0.00  0.00    +0.003 A 
ATOM     22  C   UNL     1      -1.106   4.825  25.047  0.00  0.00    +0.002 A 
ATOM     23  C   UNL     1      -0.645   4.165  24.867  0.00  0.00    +0.022 A 
ENDBRANCH  13  15
BRANCH  10   9
ATOM      9  C   UNL     1      -1.462  -0.736  25.692  0.00  0.00    +0.099 C 
BRANCH   9   8
ATOM      5  C   UNL     1      -3.274  -2.030  24.612  0.00  0.00    +0.071 A 
ATOM      6  C   UNL     1      -2.487  -2.179  24.415  0.00  0.00    +0.004 A 
ATOM      7  C   UNL     1      -1.882  -1.747  24.775  0.00  0.00    -0.003 A 
ATOM      8  C   UNL     1      -2.066  -1.167  25.332  0.00  0.00    -0.006 A 
ATOM     24  C   UNL     1      -2.853  -1.018  25.529  0.00  0.00    -0.003 A 
ATOM     25  C   UNL     1      -3.457  -1.450  25.169  0.00  0.00    +0.004 A 
BRANCH   5   2
ATOM      1  F   UNL     1      -4.481  -2.894  23.892  0.00  0.00    -0.166 F 
ATOM      2  C   UNL     1      -3.878  -2.462  24.251  0.00  0.00    +0.419 C 
ATOM      3  F   UNL     1      -3.736  -3.090  24.767  0.00  0.00    -0.166 F 
ATOM      4  F   UNL     1      -4.020  -1.834  23.737  0.00  0.00    -0.166 F 
ENDBRANCH   5   2
ENDBRANCH   9   8
ENDBRANCH  10   9
TORSDOF 4
ENDMDL
MODEL 4
REMARK VINA RESULT:     -12.9      1.904      2.506
REMARK  Name = 
REMARK  4 active torsions:
REMARK  status: ('A' for Active; 'I' for Inactive)
REMARK    1  A    between atoms: C_2  and  C_5
REMARK    2  A    between atoms: C_8  and  C_9
REMARK    3  A    between atoms: C_9  and  N_10
REMARK    4  A    between atoms: C_13  and  C_15
REMARK                            x       y       z     vdW  Elec       q    Type
REMARK                         _______ _______ _______ _____ _____    ______ ____
ROOT
ATOM     10  N   UNL     1      -0.776   1.293  25.258  0.00  0.00    -0.268 NA
ATOM     11  C   UNL     1      -0.381   1.026  24.585  0.00  0.00    +0.073 C 
ATOM     12  C   UNL     1      -0.818   0.405  24.262  0.00  0.00    +0.028 C 
ATOM     13  C   UNL     1      -1.483   0.287  24.737  0.00  0.00    +0.094 C 
ATOM     14  C   UNL     1      -1.457   0.835  25.352  0.00  0.00    +0.082 C 
ENDROOT
BRANCH  13  15
ATOM     15  C   UNL     1      -2.070  -0.280  24.616  0.00  0.00    +0.207 A 
ATOM     16  N   UNL     1      -1.999  -1.089  24.757  0.00  0.00    -0.212 NA
ATOM     17  C   UNL     1      -2.716  -1.446  24.562  0.00  0.00    +0.119 A 
ATOM     18  C   UNL     1      -3.231  -0.857  24.300  0.00  0.00    +0.164 A 
ATOM     19  O   UNL     1      -2.832  -0.136  24.334  0.00  0.00    -0.438 OA
ATOM     20  C   UNL     1      -3.997  -1.054  24.065  0.00  0.00    +0.039 A 
ATOM     21  C   UNL     1      -4.248  -1.839  24.092  0.00  0.00    +0.003 A 
ATOM     22  C   UNL     1      -3.733  -2.428  24.353  0.00  0.00    +0.002 A 
ATOM     23  C   UNL     1      -2.967  -2.232  24.589  0.00  0.00    +0.022 A 
ENDBRANCH  13  15
BRANCH  10   9
ATOM      9  C   UNL     1      -0.534   1.907  25.752  0.00  0.00    +0.099 C 
BRANCH   9   8
ATOM      5  C   UNL     1      -1.196   4.237  25.244  0.00  0.00    +0.071 A 
ATOM      6  C   UNL     1      -1.635   3.792  25.781  0.00  0.00    +0.004 A 
ATOM      7  C   UNL     1      -1.414   3.015  25.951  0.00  0.00    -0.003 A 
ATOM      8  C   UNL     1      -0.754   2.684  25.582  0.00  0.00    -0.006 A 
ATOM     24  C   UNL     1      -0.315   3.130  25.045  0.00  0.00    -0.003 A 
ATOM     25  C   UNL     1      -0.536   3.907  24.876  0.00  0.00    +0.004 A 
BRANCH   5   2
ATOM      1  F   UNL     1      -1.639   5.791  24.906  0.00  0.00    -0.166 F 
ATOM      2  C   UNL     1      -1.417   5.014  25.075  0.00  0.00    +0.419 C 
ATOM      3  F   UNL     1      -2.210   4.785  25.060  0.00  0.00    -0.166 F 
ATOM      4  F   UNL     1      -0.625   5.243  25.090  0.00  0.00    -0.166 F 
ENDBRANCH   5   2
ENDBRANCH   9   8
ENDBRANCH  10   9
TORSDOF 4
ENDMDL
