MODEL 1
REMARK VINA RESULT:     -12.1      0.000      0.000
REMARK  Name = 
REMARK  7 active torsions:
REMARK  status: ('A' for Active; 'I' for Inactive)
REMARK    1  A    between atoms: C_5  and  C_6
REMARK    2  A    between atoms: C_6  and  C_7
REMARK    3  A    between atoms: C_10  and  C_11
REMARK    4  A    between atoms: C_11  and  O_12
REMARK    5  A    between atoms: O_12  and  C_13
REMARK    6  A    between atoms: C_21  and  C_22
REMARK    7  A    between atoms: C_22  and  N_23
REMARK                            x       y       z     vdW  Elec       q    Type
REMARK                         _______ _______ _______ _____ _____    ______ ____
ROOT
ATOM      1  O   UNL     1      -1.637   4.933  25.054  0.00  0.00    -0.220 OA
ATOM      2  C   UNL     1      -1.379   4.170  25.232  0.00  0.00    +0.181 C 
ATOM      3  C   UNL     1      -0.596   3.955  25.084  0.00  0.00    +0.038 C 
ATOM      4  C   UNL     1      -0.338   3.191  25.262  0.00  0.00    +0.033 C 
ATOM      5  C   UNL     1      -0.862   2.644  25.589  0.00  0.00    +0.121 C 
ATOM     20  O   UNL     1      -1.644   2.860  25.737  0.00  0.00    -0.354 OA
ATOM     21  C   UNL     1      -1.902   3.622  25.558  0.00  0.00    +0.167 C 
ENDROOT
BRANCH   5   6
ATOM      6  C   UNL     1      -0.603   1.881  25.767  0.00  0.00    +0.079 C 
BRANCH   6   7
ATOM      7  C   UNL     1      -0.798   1.252  25.269  0.00  0.00    +0.103 A 
ATOM      8  N   UNL     1      -0.528   1.143  24.497  0.00  0.00    -0.082 NA
ATOM      9  O   UNL     1      -0.860   0.446  24.207  0.00  0.00    -0.354 OA
ATOM     10  C   UNL     1      -1.336   0.125  24.800  0.00  0.00    +0.198 A 
ATOM     19  C   UNL     1      -1.297   0.623  25.456  0.00  0.00    +0.057 A 
BRANCH  10  11
ATOM     11  C   UNL     1      -1.773  -0.573  24.746  0.00  0.00    +0.272 C 
BRANCH  11  12
ATOM     12  O   UNL     1      -2.590  -0.557  24.853  0.00  0.00    -0.467 OA
BRANCH  12  13
ATOM     13  C   UNL     1      -3.044  -1.221  24.666  0.00  0.00    +0.139 A 
ATOM     14  C   UNL     1      -2.901  -1.939  25.045  0.00  0.00    +0.037 A 
ATOM     15  C   UNL     1      -3.356  -2.602  24.858  0.00  0.00    +0.003 A 
ATOM     16  C   UNL     1      -3.952  -2.546  24.290  0.00  0.00    +0.000 A 
ATOM     17  C   UNL     1      -4.094  -1.828  23.911  0.00  0.00    +0.003 A 
ATOM     18  C   UNL     1      -3.640  -1.165  24.098  0.00  0.00    +0.037 A 
ENDBRANCH  12  13
ENDBRANCH  11  12
ENDBRANCH  10  11
ENDBRANCH   6   7
ENDBRANCH   5   6
BRANCH  21  22
ATOM     22  C   UNL     1      -2.685   3.838  25.707  0.00  0.00    +0.149 C 
BRANCH  22  23
ATOM     23  N   UNL     1      -3.303   3.362  25.436  0.00  0.00    -0.186 NA
ATOM     24  C   UNL     1      -4.065   3.466  25.734  0.00  0.00    +0.323 C 
ATOM     25  O   UNL     1      -4.209   4.046  26.302  0.00  0.00    -0.251 OA
ATOM     26  N   UNL     1      -4.682   2.990  25.464  0.00  0.00    -0.258 N 
ATOM     27  C   UNL     1      -5.444   3.094  25.762  0.00  0.00    +0.127 C 
ATOM     28  C   UNL     1      -6.062   2.618  25.491  0.00  0.00    +0.164 C 
ATOM     29  O   UNL     1      -5.916   2.038  24.923  0.00  0.00    -0.350 OA
ATOM     30  C   UNL     1      -5.154   1.934  24.625  0.00  0.00    +0.164 C 
ATOM     31  C   UNL     1      -4.537   2.409  24.895  0.00  0.00    +0.127 C 
ENDBRANCH  22  23
ENDBRANCH  21  22
TORSDOF 7
ENDMDL
MODEL 2
REMARK VINA RESULT:     -11.8      1.201      3.598
REMARK  Name = 
REMARK  7 active torsions:
REMARK  status: ('A' for Active; 'I' for Inactive)
REMARK    1  A    between atoms: C_5  and  C_6
REMARK    2  A    between atoms: C_6  and  C_7
REMARK    3  A    between atoms: C_10  and  C_11
REMARK    4  A    between atoms: C_11  and  O_12
REMARK    5  A    between atoms: O_12  and  C_13
REMARK    6  A    between atoms: C_21  and  C_22
REMARK    7  A    between atoms: C_22  and  N_23
REMARK                            x       y       z     vdW  Elec       q    Type
REMARK                         _______ _______ _______ _____ _____    ______ ____
ROOT
ATOM      1  O   UNL     1      -1.338   4.250  25.776  0.00  0.00    -0.220 OA
ATOM      2  C   UNL     1      -2.012   3.915  25.439  0.00  0.00    +0.181 C 
ATOM      3  C   UNL     1      -2.760   4.168  25.678  0.00  0.00    +0.038 C 
ATOM      4  C   UNL     1      -3.436   3.834  25.341  0.00  0.00    +0.033 C 
ATOM      5  C   UNL     1      -3.362   3.247  24.767  0.00  0.00    +0.121 C 
ATOM     20  O   UNL     1      -2.614   2.994  24.528  0.00  0.00    -0.354 OA
ATOM     21  C   UNL     1      -1.940   3.328  24.865  0.00  0.00    +0.167 C 
ENDROOT
BRANCH   5   6
ATOM      6  C   UNL     1      -4.038   2.912  24.430  0.00  0.00    +0.079 C 
BRANCH   6   7
ATOM      7  C   UNL     1      -4.303   2.173  24.684  0.00  0.00    +0.103 A 
ATOM      8  N   UNL     1      -4.761   2.026  25.355  0.00  0.00    -0.082 NA
ATOM      9  O   UNL     1      -4.897   1.214  25.397  0.00  0.00    -0.354 OA
ATOM     10  C   UNL     1      -4.523   0.859  24.753  0.00  0.00    +0.198 A 
ATOM     19  C   UNL     1      -4.156   1.451  24.313  0.00  0.00    +0.057 A 
BRANCH  10  11
ATOM     11  C   UNL     1      -4.517   0.052  24.580  0.00  0.00    +0.272 C 
BRANCH  11  12
ATOM     12  O   UNL     1      -4.098  -0.470  25.060  0.00  0.00    -0.467 OA
BRANCH  12  13
ATOM     13  C   UNL     1      -3.969  -1.247  24.813  0.00  0.00    +0.139 A 
ATOM     14  C   UNL     1      -4.264  -1.502  24.086  0.00  0.00    +0.037 A 
ATOM     15  C   UNL     1      -4.135  -2.279  23.838  0.00  0.00    +0.003 A 
ATOM     16  C   UNL     1      -3.712  -2.800  24.318  0.00  0.00    +0.000 A 
ATOM     17  C   UNL     1      -3.418  -2.544  25.045  0.00  0.00    +0.003 A 
ATOM     18  C   UNL     1      -3.547  -1.768  25.292  0.00  0.00    +0.037 A 
ENDBRANCH  12  13
ENDBRANCH  11  12
ENDBRANCH  10  11
ENDBRANCH   6   7
ENDBRANCH   5   6
BRANCH  21  22
ATOM     22  C   UNL     1      -1.191   3.075  24.626  0.00  0.00    +0.149 C 
BRANCH  22  23
ATOM     23  N   UNL     1      -1.038   2.269  24.534  0.00  0.00    -0.186 NA
ATOM     24  C   UNL     1      -0.345   2.021  24.161  0.00  0.00    +0.323 C 
ATOM     25  O   UNL     1       0.193   2.579  23.879  0.00  0.00    -0.251 OA
ATOM     26  N   UNL     1      -0.192   1.216  24.069  0.00  0.00    -0.258 N 
ATOM     27  C   UNL     1       0.500   0.968  23.696  0.00  0.00    +0.127 C 
ATOM     28  C   UNL     1       0.654   0.162  23.604  0.00  0.00    +0.164 C 
ATOM     29  O   UNL     1       0.115  -0.395  23.887  0.00  0.00    -0.350 OA
ATOM     30  C   UNL     1      -0.578  -0.147  24.260  0.00  0.00    +0.164 C 
ATOM     31  C   UNL     1      -0.731   0.658  24.351  0.00  0.00    +0.127 C 
ENDBRANCH  22  23
ENDBRANCH  21  22
TORSDOF 7
ENDMDL
MODEL 3
REMARK VINA RESULT:     -10.9      1.236      4.396
REMARK  Name = 
REMARK  7 active torsions:
REMARK  status: ('A' for Active; 'I' for Inactive)
REMARK    1  A    between atoms: C_5  and  C_6
REMARK    2  A    between atoms: C_6  and  C_7
REMARK    3  A    between atoms: C_10  and  C_11
REMARK    4  A    between atoms: C_11  and  O_12
REMARK    5  A    between atoms: O_12  and  C_13
REMARK    6  A    between atoms: C_21  and  C_22
REMARK    7  A    between atoms: C_22  and  N_23
REMARK                            x       y       z     vdW  Elec       q    Type
REMARK                         _______ _______ _______ _____ _____    ______ ____
ROOT
ATOM      1  O   UNL     1      -3.428  -2.291  24.302  0.00  0.00    -0.220 OA
ATOM      2  C   UNL     1      -2.771  -1.863  24.558  0.00  0.00    +0.181 C 
ATOM      3  C   UNL     1      -2.012  -2.162  24.438  0.00  0.00    +0.038 C 
ATOM      4  C   UNL     1      -1.354  -1.734  24.694  0.00  0.00    +0.033 C 
ATOM      5  C   UNL     1      -1.457  -1.006  25.069  0.00  0.00    +0.121 C 
ATOM     20  O   UNL     1      -2.216  -0.707  25.189  0.00  0.00    -0.354 OA
ATOM     21  C   UNL     1      -2.873  -1.135  24.933  0.00  0.00    +0.167 C 
ENDROOT
BRANCH   5   6
ATOM      6  C   UNL     1      -0.799  -0.578  25.325  0.00  0.00    +0.079 C 
BRANCH   6   7
ATOM      7  C   UNL     1      -0.628   0.156  24.988  0.00  0.00    +0.103 A 
ATOM      8  N   UNL     1      -0.329   0.284  24.230  0.00  0.00    -0.082 NA
ATOM      9  O   UNL     1      -0.242   1.097  24.124  0.00  0.00    -0.354 OA
ATOM     10  C   UNL     1      -0.488   1.471  24.817  0.00  0.00    +0.198 A 
ATOM     19  C   UNL     1      -0.726   0.890  25.351  0.00  0.00    +0.057 A 
BRANCH  10  11
ATOM     11  C   UNL     1      -0.494   2.286  24.952  0.00  0.00    +0.272 C 
BRANCH  11  12
ATOM     12  O   UNL     1      -1.034   2.766  24.557  0.00  0.00    -0.467 OA
BRANCH  12  13
ATOM     13  C   UNL     1      -1.117   3.558  24.771  0.00  0.00    +0.139 A 
ATOM     14  C   UNL     1      -0.568   4.116  24.511  0.00  0.00    +0.037 A 
ATOM     15  C   UNL     1      -0.651   4.908  24.725  0.00  0.00    +0.003 A 
ATOM     16  C   UNL     1      -1.284   5.143  25.200  0.00  0.00    +0.000 A 
ATOM     17  C   UNL     1      -1.833   4.585  25.460  0.00  0.00    +0.003 A 
ATOM     18  C   UNL     1      -1.750   3.793  25.246  0.00  0.00    +0.037 A 
ENDBRANCH  12  13
ENDBRANCH  11  12
ENDBRANCH  10  11
ENDBRANCH   6   7
ENDBRANCH   5   6
BRANCH  21  22
ATOM     22  C   UNL     1      -3.632  -0.836  25.053  0.00  0.00    +0.149 C 
BRANCH  22  23
ATOM     23  N   UNL     1      -3.825  -0.080  24.783  0.00  0.00    -0.186 NA
ATOM     24  C   UNL     1      -4.427   0.348  25.150  0.00  0.00    +0.323 C 
ATOM     25  O   UNL     1      -4.836   0.020  25.788  0.00  0.00    -0.251 OA
ATOM     26  N   UNL     1      -4.620   1.103  24.881  0.00  0.00    -0.258 N 
ATOM     27  C   UNL     1      -5.222   1.531  25.248  0.00  0.00    +0.127 C 
ATOM     28  C   UNL     1      -5.415   2.287  24.978  0.00  0.00    +0.164 C 
ATOM     29  O   UNL     1      -5.006   2.614  24.341  0.00  0.00    -0.350 OA
ATOM     30  C   UNL     1      -4.404   2.186  23.974  0.00  0.00    +0.164 C 
ATOM     31  C   UNL     1      -4.211   1.431  24.243  0.00  0.00    +0.127 C 
ENDBRANCH  22  23
ENDBRANCH  21  22
TORSDOF 7
ENDMDL
MODEL 4
REMARK VINA RESULT:     -10.6      1.490      4.941
REMARK  Name = 
REMARK  7 active torsions:
REMARK  status: ('A' for Active; 'I' for Inactive)
REMARK    1  A    between atoms: C_5  and  C_6
REMARK    2  A    between atoms: C_6  and  C_7
REMARK    3  A    between atoms: C_10  and  C_11
REMARK    4  A    between atoms: C_11  and  O_12
REMARK    5  A    between atoms: O_12  and  C_13
REMARK    6  A    between atoms: C_21  and  C_22
REMARK    7  A    between atoms: C_22  and  N_23
REMARK                            x       y       z     vdW  Elec       q    Type
REMARK                         _______ _______ _______ _____ _____    ______ ____
ROOT
ATOM      1  O   UNL     1      -0.083  -1.926  25.159  0.00  0.00    -0.220 OA
ATOM      2  C   UNL     1      -0.863  -1.786  24.928  0.00  0.00    +0.181 C 
ATOM      3  C   UNL     1      -1.433  -2.374  25.025  0.00  0.00    +0.038 C 
ATOM      4  C   UNL     1      -2.214  -2.234  24.795  0.00  0.00    +0.033 C 
ATOM      5  C   UNL     1      -2.422  -1.505  24.468  0.00  0.00    +0.121 C 
ATOM     20  O   UNL     1      -1.851  -0.917  24.371  0.00  0.00    -0.354 OA
ATOM     21  C   UNL     1      -1.072  -1.058  24.602  0.00  0.00    +0.167 C 
ENDROOT
BRANCH   5   6
ATOM      6  C   UNL     1      -3.202  -1.365  24.237  0.00  0.00    +0.079 C 
BRANCH   6   7
ATOM      7  C   UNL     1      -3.666  -0.825  24.655  0.00  0.00    +0.103 A 
ATOM      8  N   UNL     1      -3.985  -0.941  25.408  0.00  0.00    -0.082 NA
ATOM      9  O   UNL     1      -4.407  -0.262  25.611  0.00  0.00    -0.354 OA
ATOM     10  C   UNL     1      -4.349   0.272  24.985  0.00  0.00    +0.198 A 
ATOM     19  C   UNL     1      -3.891  -0.076  24.395  0.00  0.00    +0.057 A 
BRANCH  10  11
ATOM     11  C   UNL     1      -4.690   1.023  24.956  0.00  0.00    +0.272 C 
BRANCH  11  12
ATOM     12  O   UNL     1      -4.330   1.655  25.344  0.00  0.00    -0.467 OA
BRANCH  12  13
ATOM     13  C   UNL     1      -4.681   2.402  25.331  0.00  0.00    +0.139 A 
ATOM     14  C   UNL     1      -4.291   3.034  24.974  0.00  0.00    +0.037 A 
ATOM     15  C   UNL     1      -4.642   3.781  24.961  0.00  0.00    +0.003 A 
ATOM     16  C   UNL     1      -5.384   3.895  25.305  0.00  0.00    +0.000 A 
ATOM     17  C   UNL     1      -5.773   3.261  25.662  0.00  0.00    +0.003 A 
ATOM     18  C   UNL     1      -5.422   2.515  25.675  0.00  0.00    +0.037 A 
ENDBRANCH  12  13
ENDBRANCH  11  12
ENDBRANCH  10  11
ENDBRANCH   6   7
ENDBRANCH   5   6
BRANCH  21  22
ATOM     22  C   UNL     1      -0.502  -0.470  24.505  0.00  0.00    +0.149 C 
BRANCH  22  23
ATOM     23  N   UNL     1      -0.602   0.266  24.866  0.00  0.00    -0.186 NA
ATOM     24  C   UNL     1      -0.241   0.936  24.546  0.00  0.00    +0.323 C 
ATOM     25  O   UNL     1       0.220   0.869  23.865  0.00  0.00    -0.251 OA
ATOM     26  N   UNL     1      -0.341   1.670  24.907  0.00  0.00    -0.258 N 
ATOM     27  C   UNL     1       0.020   2.339  24.587  0.00  0.00    +0.127 C 
ATOM     28  C   UNL     1      -0.080   3.075  24.948  0.00  0.00    +0.164 C 
ATOM     29  O   UNL     1      -0.541   3.140  25.629  0.00  0.00    -0.350 OA
ATOM     30  C   UNL     1      -0.902   2.471  25.949  0.00  0.00    +0.164 C 
ATOM     31  C   UNL     1      -0.802   1.736  25.588  0.00  0.00    +0.127 C 
ENDBRANCH  22  23
ENDBRANCH  21  22
TORSDOF 7
ENDMDL
MODEL 5
REMARK VINA RESULT:     -10.6      1.374      4.313
REMARK  Name = 
REMARK  7 active torsions:
REMARK  status: ('A' for Active; 'I' for Inactive)
REMARK    1  A    between atoms: C_5  and  C_6
REMARK    2  A    between atoms: C_6  and  C_7
REMARK    3  A    between atoms: C_10  and  C_11
REMARK    4  A    between atoms: C_11  and  O_12
REMARK    5  A    between atoms: O_12  and  C_13
REMARK    6  A    between atoms: C_21  and  C_22
REMARK    7  A    between atoms: C_22  and  N_23
REMARK                            x       y       z     vdW  Elec       q    Type
REMARK                         _______ _______ _______ _____ _____    ______ ____
ROOT
ATOM      1  O   UNL     1       0.547  -0.245  23.310  0.00  0.00    -0.220 OA
ATOM      2  C   UNL     1       0.296   0.365  23.804  0.00  0.00    +0.181 C 
ATOM      3  C   UNL     1       0.577   1.132  23.688  0.00  0.00    +0.038 C 
ATOM      4  C   UNL     1       0.325   1.743  24.183  0.00  0.00    +0.033 C 
ATOM      5  C   UNL     1      -0.207   1.586  24.793  0.00  0.00    +0.121 C 
ATOM     20  O   UNL     1      -0.488   0.819  24.909  0.00  0.00    -0.354 OA
ATOM     21  C   UNL     1      -0.236   0.209  24.415  0.00  0.00    +0.167 C 
ENDROOT
BRANCH   5   6
ATOM      6  C   UNL     1      -0.458   2.197  25.288  0.00  0.00    +0.079 C 
BRANCH   6   7
ATOM      7  C   UNL     1      -1.143   2.620  25.107  0.00  0.00    +0.103 A 
ATOM      8  N   UNL     1      -1.205   3.228  24.551  0.00  0.00    -0.082 NA
ATOM      9  O   UNL     1      -1.985   3.492  24.550  0.00  0.00    -0.354 OA
ATOM     10  C   UNL     1      -2.406   3.049  25.104  0.00  0.00    +0.198 A 
ATOM     19  C   UNL     1      -1.886   2.510  25.448  0.00  0.00    +0.057 A 
BRANCH  10  11
ATOM     11  C   UNL     1      -3.208   3.131  25.282  0.00  0.00    +0.272 C 
BRANCH  11  12
ATOM     12  O   UNL     1      -3.778   2.930  24.722  0.00  0.00    -0.467 OA
BRANCH  12  13
ATOM     13  C   UNL     1      -4.553   2.775  24.958  0.00  0.00    +0.139 A 
ATOM     14  C   UNL     1      -4.949   3.307  25.449  0.00  0.00    +0.037 A 
ATOM     15  C   UNL     1      -5.724   3.151  25.685  0.00  0.00    +0.003 A 
ATOM     16  C   UNL     1      -6.104   2.464  25.431  0.00  0.00    +0.000 A 
ATOM     17  C   UNL     1      -5.707   1.932  24.940  0.00  0.00    +0.003 A 
ATOM     18  C   UNL     1      -4.932   2.088  24.704  0.00  0.00    +0.037 A 
ENDBRANCH  12  13
ENDBRANCH  11  12
ENDBRANCH  10  11
ENDBRANCH   6   7
ENDBRANCH   5   6
BRANCH  21  22
ATOM     22  C   UNL     1      -0.517  -0.558  24.531  0.00  0.00    +0.149 C 
BRANCH  22  23
ATOM     23  N   UNL     1      -1.326  -0.715  24.475  0.00  0.00    -0.186 NA
ATOM     24  C   UNL     1      -1.617  -1.460  24.676  0.00  0.00    +0.323 C 
ATOM     25  O   UNL     1      -1.099  -2.049  24.933  0.00  0.00    -0.251 OA
ATOM     26  N   UNL     1      -2.424  -1.616  24.621  0.00  0.00    -0.258 N 
ATOM     27  C   UNL     1      -2.715  -2.362  24.822  0.00  0.00    +0.127 C 
ATOM     28  C   UNL     1      -3.524  -2.518  24.766  0.00  0.00    +0.164 C 
ATOM     29  O   UNL     1      -4.041  -1.929  24.509  0.00  0.00    -0.350 OA
ATOM     30  C   UNL     1      -3.750  -1.183  24.308  0.00  0.00    +0.164 C 
ATOM     31  C   UNL     1      -2.942  -1.027  24.364  0.00  0.00    +0.127 C 
ENDBRANCH  22  23
ENDBRANCH  21  22
TORSDOF 7
ENDMDL
MODEL 6
REMARK VINA RESULT:     -10.1      1.482      5.712
REMARK  Name = 
REMARK  7 active torsions:
REMARK  status: ('A' for Active; 'I' for Inactive)
REMARK    1  A    between atoms: C_5  and  C_6
REMARK    2  A    between atoms: C_6  and  C_7
REMARK    3  A    between atoms: C_10  and  C_11
REMARK    4  A    between atoms: C_11  and  O_12
REMARK    5  A    between atoms: O_12  and  C_13
REMARK    6  A    between atoms: C_21  and  C_22
REMARK    7  A    between atoms: C_22  and  N_23
REMARK                            x       y       z     vdW  Elec       q    Type
REMARK                         _______ _______ _______ _____ _____    ______ ____
ROOT
ATOM      1  O   UNL     1      -2.874  -2.485  25.093  0.00  0.00    -0.220 OA
ATOM      2  C   UNL     1      -3.174  -1.773  24.804  0.00  0.00    +0.181 C 
ATOM      3  C   UNL     1      -3.989  -1.654  24.767  0.00  0.00    +0.038 C 
ATOM      4  C   UNL     1      -4.290  -0.942  24.477  0.00  0.00    +0.033 C 
ATOM      5  C   UNL     1      -3.774  -0.350  24.225  0.00  0.00    +0.121 C 
ATOM     20  O   UNL     1      -2.958  -0.469  24.262  0.00  0.00    -0.354 OA
ATOM     21  C   UNL     1      -2.659  -1.180  24.551  0.00  0.00    +0.167 C 
ENDROOT
BRANCH   5   6
ATOM      6  C   UNL     1      -4.074   0.363  23.935  0.00  0.00    +0.079 C 
BRANCH   6   7
ATOM      7  C   UNL     1      -4.000   1.053  24.381  0.00  0.00    +0.103 A 
ATOM      8  N   UNL     1      -4.396   1.220  25.086  0.00  0.00    -0.082 NA
ATOM      9  O   UNL     1      -4.159   1.967  25.340  0.00  0.00    -0.354 OA
ATOM     10  C   UNL     1      -3.617   2.263  24.792  0.00  0.00    +0.198 A 
ATOM     19  C   UNL     1      -3.519   1.698  24.200  0.00  0.00    +0.057 A 
BRANCH  10  11
ATOM     11  C   UNL     1      -3.239   2.996  24.831  0.00  0.00    +0.272 C 
BRANCH  11  12
ATOM     12  O   UNL     1      -2.564   3.088  25.295  0.00  0.00    -0.467 OA
BRANCH  12  13
ATOM     13  C   UNL     1      -2.114   3.778  25.239  0.00  0.00    +0.139 A 
ATOM     14  C   UNL     1      -2.467   4.511  25.371  0.00  0.00    +0.037 A 
ATOM     15  C   UNL     1      -2.017   5.201  25.314  0.00  0.00    +0.003 A 
ATOM     16  C   UNL     1      -1.215   5.157  25.125  0.00  0.00    +0.000 A 
ATOM     17  C   UNL     1      -0.863   4.422  24.992  0.00  0.00    +0.003 A 
ATOM     18  C   UNL     1      -1.313   3.733  25.049  0.00  0.00    +0.037 A 
ENDBRANCH  12  13
ENDBRANCH  11  12
ENDBRANCH  10  11
ENDBRANCH   6   7
ENDBRANCH   5   6
BRANCH  21  22
ATOM     22  C   UNL     1      -1.843  -1.299  24.589  0.00  0.00    +0.149 C 
BRANCH  22  23
ATOM     23  N   UNL     1      -1.327  -0.711  24.325  0.00  0.00    -0.186 NA
ATOM     24  C   UNL     1      -0.546  -0.900  24.139  0.00  0.00    +0.323 C 
ATOM     25  O   UNL     1      -0.281  -1.678  24.216  0.00  0.00    -0.251 OA
ATOM     26  N   UNL     1      -0.031  -0.313  23.875  0.00  0.00    -0.258 N 
ATOM     27  C   UNL     1       0.750  -0.502  23.689  0.00  0.00    +0.127 C 
ATOM     28  C   UNL     1       1.266   0.086  23.425  0.00  0.00    +0.164 C 
ATOM     29  O   UNL     1       0.999   0.863  23.348  0.00  0.00    -0.350 OA
ATOM     30  C   UNL     1       0.218   1.052  23.534  0.00  0.00    +0.164 C 
ATOM     31  C   UNL     1      -0.297   0.465  23.798  0.00  0.00    +0.127 C 
ENDBRANCH  22  23
ENDBRANCH  21  22
TORSDOF 7
ENDMDL
MODEL 7
REMARK VINA RESULT:     -10.0      1.170      3.548
REMARK  Name = 
REMARK  7 active torsions:
REMARK  status: ('A' for Active; 'I' for Inactive)
REMARK    1  A    between atoms: C_5  and  C_6
REMARK    2  A    between atoms: C_6  and  C_7
REMARK    3  A    between atoms: C_10  and  C_11
REMARK    4  A    between atoms: C_11  and  O_12
REMARK    5  A    between atoms: O_12  and  C_13
REMARK    6  A    between atoms: C_21  and  C_22
REMARK    7  A    between atoms: C_22  and  N_23
REMARK                            x       y       z     vdW  Elec       q    Type
REMARK                         _______ _______ _______ _____ _____    ______ ____
ROOT
ATOM      1  O   UNL     1      -4.808   4.359  26.038  0.00  0.00    -0.220 OA
ATOM      2  C   UNL     1      -4.862   3.639  25.640  0.00  0.00    +0.181 C 
ATOM      3  C   UNL     1      -5.569   3.215  25.649  0.00  0.00    +0.038 C 
ATOM      4  C   UNL     1      -5.624   2.494  25.250  0.00  0.00    +0.033 C 
ATOM      5  C   UNL     1      -4.970   2.199  24.842  0.00  0.00    +0.121 C 
ATOM     20  O   UNL     1      -4.263   2.624  24.833  0.00  0.00    -0.354 OA
ATOM     21  C   UNL     1      -4.209   3.343  25.231  0.00  0.00    +0.167 C 
ENDROOT
BRANCH   5   6
ATOM      6  C   UNL     1      -5.025   1.478  24.443  0.00  0.00    +0.079 C 
BRANCH   6   7
ATOM      7  C   UNL     1      -4.671   0.804  24.759  0.00  0.00    +0.103 A 
ATOM      8  N   UNL     1      -4.862   0.448  25.479  0.00  0.00    -0.082 NA
ATOM      9  O   UNL     1      -4.373  -0.209  25.576  0.00  0.00    -0.354 OA
ATOM     10  C   UNL     1      -3.880  -0.259  24.917  0.00  0.00    +0.198 A 
ATOM     19  C   UNL     1      -4.063   0.367  24.412  0.00  0.00    +0.057 A 
BRANCH  10  11
ATOM     11  C   UNL     1      -3.303  -0.835  24.785  0.00  0.00    +0.272 C 
BRANCH  11  12
ATOM     12  O   UNL     1      -2.505  -0.645  24.866  0.00  0.00    -0.467 OA
BRANCH  12  13
ATOM     13  C   UNL     1      -1.936  -1.243  24.866  0.00  0.00    +0.139 A 
ATOM     14  C   UNL     1      -2.112  -1.979  24.539  0.00  0.00    +0.037 A 
ATOM     15  C   UNL     1      -1.543  -2.578  24.539  0.00  0.00    +0.003 A 
ATOM     16  C   UNL     1      -0.798  -2.439  24.867  0.00  0.00    +0.000 A 
ATOM     17  C   UNL     1      -0.623  -1.702  25.194  0.00  0.00    +0.003 A 
ATOM     18  C   UNL     1      -1.192  -1.104  25.193  0.00  0.00    +0.037 A 
ENDBRANCH  12  13
ENDBRANCH  11  12
ENDBRANCH  10  11
ENDBRANCH   6   7
ENDBRANCH   5   6
BRANCH  21  22
ATOM     22  C   UNL     1      -3.501   3.767  25.222  0.00  0.00    +0.149 C 
BRANCH  22  23
ATOM     23  N   UNL     1      -2.789   3.387  25.394  0.00  0.00    -0.186 NA
ATOM     24  C   UNL     1      -2.072   3.759  25.229  0.00  0.00    +0.323 C 
ATOM     25  O   UNL     1      -2.067   4.513  24.893  0.00  0.00    -0.251 OA
ATOM     26  N   UNL     1      -1.361   3.379  25.400  0.00  0.00    -0.258 N 
ATOM     27  C   UNL     1      -0.643   3.752  25.236  0.00  0.00    +0.127 C 
ATOM     28  C   UNL     1       0.069   3.371  25.407  0.00  0.00    +0.164 C 
ATOM     29  O   UNL     1       0.062   2.617  25.743  0.00  0.00    -0.350 OA
ATOM     30  C   UNL     1      -0.655   2.245  25.908  0.00  0.00    +0.164 C 
ATOM     31  C   UNL     1      -1.366   2.625  25.737  0.00  0.00    +0.127 C 
ENDBRANCH  22  23
ENDBRANCH  21  22
TORSDOF 7
ENDMDL
MODEL 8
REMARK VINA RESULT:      -9.2      0.975      1.174
REMARK  Name = 
REMARK  7 active torsions:
REMARK  status: ('A' for Active; 'I' for Inactive)
REMARK    1  A    between atoms: C_5  and  C_6
REMARK    2  A    between atoms: C_6  and  C_7
REMARK    3  A    between atoms: C_10  and  C_11
REMARK    4  A    between atoms: C_11  and  O_12
REMARK    5  A    between atoms: O_12  and  C_13
REMARK    6  A    between atoms: C_21  and  C_22
REMARK    7  A    between atoms: C_22  and  N_23
REMARK                            x       y       z     vdW  Elec       q    Type
REMARK                         _______ _______ _______ _____ _____    ______ ____
ROOT
ATOM      1  O   UNL     1      -1.026   3.603  23.715  0.00  0.00    -0.220 OA
ATOM      2  C   UNL     1      -0.849   2.932  24.160  0.00  0.00    +0.181 C 
ATOM      3  C   UNL     1      -0.185   2.479  23.976  0.00  0.00    +0.038 C 
ATOM      4  C   UNL     1      -0.007   1.807  24.422  0.00  0.00    +0.033 C 
ATOM      5  C   UNL     1      -0.494   1.590  25.051  0.00  0.00    +0.121 C 
ATOM     20  O   UNL     1      -1.158   2.043  25.235  0.00  0.00    -0.354 OA
ATOM     21  C   UNL     1      -1.335   2.714  24.790  0.00  0.00    +0.167 C 
ENDROOT
BRANCH   5   6
ATOM      6  C   UNL     1      -0.316   0.918  25.497  0.00  0.00    +0.079 C 
BRANCH   6   7
ATOM      7  C   UNL     1      -0.879   0.321  25.585  0.00  0.00    +0.103 A 
ATOM      8  N   UNL     1      -1.215   0.074  26.298  0.00  0.00    -0.082 NA
ATOM      9  O   UNL     1      -1.747  -0.533  26.130  0.00  0.00    -0.354 OA
ATOM     10  C   UNL     1      -1.740  -0.662  25.315  0.00  0.00    +0.198 A 
ATOM     19  C   UNL     1      -1.203  -0.134  24.979  0.00  0.00    +0.057 A 
BRANCH  10  11
ATOM     11  C   UNL     1      -2.191  -1.221  24.908  0.00  0.00    +0.272 C 
BRANCH  11  12
ATOM     12  O   UNL     1      -2.995  -1.090  24.783  0.00  0.00    -0.467 OA
BRANCH  12  13
ATOM     13  C   UNL     1      -3.459  -1.675  24.432  0.00  0.00    +0.139 A 
ATOM     14  C   UNL     1      -3.382  -2.461  24.671  0.00  0.00    +0.037 A 
ATOM     15  C   UNL     1      -3.846  -3.046  24.320  0.00  0.00    +0.003 A 
ATOM     16  C   UNL     1      -4.387  -2.845  23.730  0.00  0.00    +0.000 A 
ATOM     17  C   UNL     1      -4.464  -2.059  23.492  0.00  0.00    +0.003 A 
ATOM     18  C   UNL     1      -4.000  -1.475  23.843  0.00  0.00    +0.037 A 
ENDBRANCH  12  13
ENDBRANCH  11  12
ENDBRANCH  10  11
ENDBRANCH   6   7
ENDBRANCH   5   6
BRANCH  21  22
ATOM     22  C   UNL     1      -2.000   3.167  24.974  0.00  0.00    +0.149 C 
BRANCH  22  23
ATOM     23  N   UNL     1      -2.743   2.810  25.023  0.00  0.00    -0.186 NA
ATOM     24  C   UNL     1      -3.362   3.198  25.406  0.00  0.00    +0.323 C 
ATOM     25  O   UNL     1      -3.239   3.943  25.740  0.00  0.00    -0.251 OA
ATOM     26  N   UNL     1      -4.104   2.842  25.455  0.00  0.00    -0.258 N 
ATOM     27  C   UNL     1      -4.723   3.229  25.837  0.00  0.00    +0.127 C 
ATOM     28  C   UNL     1      -5.466   2.872  25.886  0.00  0.00    +0.164 C 
ATOM     29  O   UNL     1      -5.588   2.128  25.552  0.00  0.00    -0.350 OA
ATOM     30  C   UNL     1      -4.969   1.740  25.170  0.00  0.00    +0.164 C 
ATOM     31  C   UNL     1      -4.227   2.097  25.121  0.00  0.00    +0.127 C 
ENDBRANCH  22  23
ENDBRANCH  21  22
TORSDOF 7
ENDMDL
MODEL 9
REMARK VINA RESULT:      -8.2      1.967      2.938
REMARK  Name = 
REMARK  7 active torsions:
REMARK  status: ('A' for Active; 'I' for Inactive)
REMARK    1  A    between atoms: C_5  and  C_6
REMARK    2  A    between atoms: C_6  and  C_7
REMARK    3  A    between atoms: C_10  and  C_11
REMARK    4  A    between atoms: C_11  and  O_12
REMARK    5  A    between atoms: O_12  and  C_13
REMARK    6  A    between atoms: C_21  and  C_22
REMARK    7  A    between atoms: C_22  and  N_23
REMARK                            x       y       z     vdW  Elec       q    Type
REMARK                         _______ _______ _______ _____ _____    ______ ____
ROOT
ATOM      1  O   UNL     1      -2.095   5.192  25.283  0.00  0.00    -0.220 OA
ATOM      2  C   UNL     1      -1.738   4.466  25.441  0.00  0.00    +0.181 C 
ATOM      3  C   UNL     1      -0.917   4.393  25.403  0.00  0.00    +0.038 C 
ATOM      4  C   UNL     1      -0.560   3.666  25.560  0.00  0.00    +0.033 C 
ATOM      5  C   UNL     1      -1.024   3.013  25.757  0.00  0.00    +0.121 C 
ATOM     20  O   UNL     1      -1.845   3.086  25.795  0.00  0.00    -0.354 OA
ATOM     21  C   UNL     1      -2.201   3.812  25.637  0.00  0.00    +0.167 C 
ENDROOT
BRANCH   5   6
ATOM      6  C   UNL     1      -0.666   2.286  25.914  0.00  0.00    +0.079 C 
BRANCH   6   7
ATOM      7  C   UNL     1      -0.519   1.756  25.299  0.00  0.00    +0.103 A 
ATOM      8  N   UNL     1      -0.977   1.097  25.107  0.00  0.00    -0.082 NA
ATOM      9  O   UNL     1      -0.630   0.726  24.458  0.00  0.00    -0.354 OA
ATOM     10  C   UNL     1       0.043   1.156  24.249  0.00  0.00    +0.198 A 
ATOM     19  C   UNL     1       0.111   1.792  24.769  0.00  0.00    +0.057 A 
BRANCH  10  11
ATOM     11  C   UNL     1       0.557   0.979  23.628  0.00  0.00    +0.272 C 
BRANCH  11  12
ATOM     12  O   UNL     1       0.891   0.228  23.569  0.00  0.00    -0.467 OA
BRANCH  12  13
ATOM     13  C   UNL     1       1.397   0.048  22.942  0.00  0.00    +0.139 A 
ATOM     14  C   UNL     1       1.110  -0.359  22.284  0.00  0.00    +0.037 A 
ATOM     15  C   UNL     1       1.616  -0.538  21.657  0.00  0.00    +0.003 A 
ATOM     16  C   UNL     1       2.409  -0.310  21.689  0.00  0.00    +0.000 A 
ATOM     17  C   UNL     1       2.695   0.097  22.347  0.00  0.00    +0.003 A 
ATOM     18  C   UNL     1       2.189   0.276  22.973  0.00  0.00    +0.037 A 
ENDBRANCH  12  13
ENDBRANCH  11  12
ENDBRANCH  10  11
ENDBRANCH   6   7
ENDBRANCH   5   6
BRANCH  21  22
ATOM     22  C   UNL     1      -3.022   3.885  25.676  0.00  0.00    +0.149 C 
BRANCH  22  23
ATOM     23  N   UNL     1      -3.504   3.256  25.445  0.00  0.00    -0.186 NA
ATOM     24  C   UNL     1      -4.317   3.286  25.582  0.00  0.00    +0.323 C 
ATOM     25  O   UNL     1      -4.648   3.946  25.951  0.00  0.00    -0.251 OA
ATOM     26  N   UNL     1      -4.798   2.658  25.352  0.00  0.00    -0.258 N 
ATOM     27  C   UNL     1      -5.611   2.689  25.489  0.00  0.00    +0.127 C 
ATOM     28  C   UNL     1      -6.093   2.059  25.258  0.00  0.00    +0.164 C 
ATOM     29  O   UNL     1      -5.761   1.400  24.890  0.00  0.00    -0.350 OA
ATOM     30  C   UNL     1      -4.948   1.369  24.752  0.00  0.00    +0.164 C 
ATOM     31  C   UNL     1      -4.467   1.998  24.983  0.00  0.00    +0.127 C 
ENDBRANCH  22  23
ENDBRANCH  21  22
TORSDOF 7
ENDMDL
