MODEL 1
REMARK VINA RESULT:     -10.4      0.000      0.000
REMARK  Name = 
REMARK  7 active torsions:
REMARK  status: ('A' for Active; 'I' for Inactive)
REMARK    1  A    between atoms: O_2  and  C_3
REMARK    2  A    between atoms: C_6  and  C_7
REMARK    3  A    between atoms: C_7  and  N_8
REMARK    4  A    between atoms: N_8  and  C_9
REMARK    5  A    between atoms: C_12  and  C_13
REMARK    6  A    between atoms: C_13  and  N_14
REMARK    7  A    between atoms: C_15  and  C_17
REMARK                            x       y       z     vdW  Elec       q    Type
REMARK                         _______ _______ _______ _____ _____    ______ ____
ROOT
ATOM      9  C   UNL     1      -3.944   1.270  24.530  0.00  0.00    +0.135 C 
ATOM     10  C   UNL     1      -4.634   1.702  24.671  0.00  0.00    +0.162 C 
ATOM     11  O   UNL     1      -4.415   2.453  24.934  0.00  0.00    -0.350 OA
ATOM     12  C   UNL     1      -3.591   2.485  24.956  0.00  0.00    +0.169 C 
ATOM     24  C   UNL     1      -3.300   1.754  24.706  0.00  0.00    +0.199 C 
ATOM     25  O   UNL     1      -2.504   1.544  24.643  0.00  0.00    -0.219 OA
ENDROOT
BRANCH   9   8
ATOM      8  N   UNL     1      -3.907   0.491  24.260  0.00  0.00    -0.209 NA
BRANCH   8   7
ATOM      7  C   UNL     1      -4.364  -0.092  24.622  0.00  0.00    +0.115 C 
BRANCH   7   6
ATOM      3  C   UNL     1      -3.731  -2.474  24.398  0.00  0.00    +0.139 A 
ATOM      4  C   UNL     1      -4.144  -2.099  23.791  0.00  0.00    +0.037 A 
ATOM      5  C   UNL     1      -4.355  -1.305  23.866  0.00  0.00    +0.000 A 
ATOM      6  C   UNL     1      -4.153  -0.886  24.547  0.00  0.00    -0.005 A 
ATOM     26  C   UNL     1      -3.740  -1.263  25.155  0.00  0.00    +0.000 A 
ATOM     27  C   UNL     1      -3.529  -2.057  25.080  0.00  0.00    +0.037 A 
BRANCH   3   2
ATOM      1  C   UNL     1      -2.726  -3.479  24.249  0.00  0.00    +0.252 C 
ATOM      2  O   UNL     1      -3.521  -3.269  24.323  0.00  0.00    -0.471 OA
ENDBRANCH   3   2
ENDBRANCH   7   6
ENDBRANCH   8   7
ENDBRANCH   9   8
BRANCH  12  13
ATOM     13  C   UNL     1      -3.137   3.134  25.186  0.00  0.00    +0.148 C 
BRANCH  13  14
ATOM     14  N   UNL     1      -3.339   3.560  25.864  0.00  0.00    -0.199 NA
ATOM     15  C   UNL     1      -2.871   4.193  26.107  0.00  0.00    +0.265 C 
ATOM     16  O   UNL     1      -3.073   4.619  26.785  0.00  0.00    -0.268 OA
BRANCH  15  17
ATOM     17  C   UNL     1      -2.201   4.403  25.674  0.00  0.00    +0.055 A 
ATOM     18  C   UNL     1      -2.243   5.011  25.118  0.00  0.00    +0.007 A 
ATOM     19  C   UNL     1      -1.573   5.220  24.684  0.00  0.00    +0.030 A 
ATOM     20  C   UNL     1      -0.862   4.822  24.807  0.00  0.00    +0.140 A 
ATOM     21  F   UNL     1      -0.192   5.032  24.373  0.00  0.00    -0.204 F 
ATOM     22  C   UNL     1      -0.819   4.214  25.363  0.00  0.00    +0.030 A 
ATOM     23  C   UNL     1      -1.489   4.004  25.797  0.00  0.00    +0.007 A 
ENDBRANCH  15  17
ENDBRANCH  13  14
ENDBRANCH  12  13
TORSDOF 7
ENDMDL
MODEL 2
REMARK VINA RESULT:      -9.5      1.869      5.863
REMARK  Name = 
REMARK  7 active torsions:
REMARK  status: ('A' for Active; 'I' for Inactive)
REMARK    1  A    between atoms: O_2  and  C_3
REMARK    2  A    between atoms: C_6  and  C_7
REMARK    3  A    between atoms: C_7  and  N_8
REMARK    4  A    between atoms: N_8  and  C_9
REMARK    5  A    between atoms: C_12  and  C_13
REMARK    6  A    between atoms: C_13  and  N_14
REMARK    7  A    between atoms: C_15  and  C_17
REMARK                            x       y       z     vdW  Elec       q    Type
REMARK                         _______ _______ _______ _____ _____    ______ ____
ROOT
ATOM      9  C   UNL     1      -4.011   1.583  24.556  0.00  0.00    +0.135 C 
ATOM     10  C   UNL     1      -4.731   1.339  24.877  0.00  0.00    +0.162 C 
ATOM     11  O   UNL     1      -4.751   0.514  24.861  0.00  0.00    -0.350 OA
ATOM     12  C   UNL     1      -4.044   0.248  24.530  0.00  0.00    +0.169 C 
ATOM     24  C   UNL     1      -3.586   0.909  24.342  0.00  0.00    +0.199 C 
ATOM     25  O   UNL     1      -2.835   0.898  23.999  0.00  0.00    -0.219 OA
ENDROOT
BRANCH   9   8
ATOM      8  N   UNL     1      -3.760   2.364  24.466  0.00  0.00    -0.209 NA
BRANCH   8   7
ATOM      7  C   UNL     1      -3.784   2.881  25.109  0.00  0.00    +0.115 C 
BRANCH   7   6
ATOM      3  C   UNL     1      -2.129   4.713  25.282  0.00  0.00    +0.139 A 
ATOM      4  C   UNL     1      -2.571   4.621  24.592  0.00  0.00    +0.037 A 
ATOM      5  C   UNL     1      -3.123   4.010  24.535  0.00  0.00    +0.000 A 
ATOM      6  C   UNL     1      -3.232   3.491  25.167  0.00  0.00    -0.005 A 
ATOM     26  C   UNL     1      -2.789   3.584  25.857  0.00  0.00    +0.000 A 
ATOM     27  C   UNL     1      -2.237   4.194  25.915  0.00  0.00    +0.037 A 
BRANCH   3   2
ATOM      1  C   UNL     1      -0.862   5.274  24.930  0.00  0.00    +0.252 C 
ATOM      2  O   UNL     1      -1.577   5.324  25.340  0.00  0.00    -0.471 OA
ENDBRANCH   3   2
ENDBRANCH   7   6
ENDBRANCH   8   7
ENDBRANCH   9   8
BRANCH  12  13
ATOM     13  C   UNL     1      -3.830  -0.539  24.408  0.00  0.00    +0.148 C 
BRANCH  13  14
ATOM     14  N   UNL     1      -4.372  -1.068  24.080  0.00  0.00    -0.199 NA
ATOM     15  C   UNL     1      -4.194  -1.872  24.045  0.00  0.00    +0.265 C 
ATOM     16  O   UNL     1      -4.736  -2.401  23.717  0.00  0.00    -0.268 OA
BRANCH  15  17
ATOM     17  C   UNL     1      -3.474  -2.148  24.337  0.00  0.00    +0.055 A 
ATOM     18  C   UNL     1      -2.823  -2.216  23.834  0.00  0.00    +0.007 A 
ATOM     19  C   UNL     1      -2.103  -2.493  24.126  0.00  0.00    +0.030 A 
ATOM     20  C   UNL     1      -2.033  -2.702  24.921  0.00  0.00    +0.140 A 
ATOM     21  F   UNL     1      -1.312  -2.979  25.212  0.00  0.00    -0.204 F 
ATOM     22  C   UNL     1      -2.683  -2.634  25.424  0.00  0.00    +0.030 A 
ATOM     23  C   UNL     1      -3.404  -2.358  25.132  0.00  0.00    +0.007 A 
ENDBRANCH  15  17
ENDBRANCH  13  14
ENDBRANCH  12  13
TORSDOF 7
ENDMDL
MODEL 3
REMARK VINA RESULT:      -9.4      4.250      6.197
REMARK  Name = 
REMARK  7 active torsions:
REMARK  status: ('A' for Active; 'I' for Inactive)
REMARK    1  A    between atoms: O_2  and  C_3
REMARK    2  A    between atoms: C_6  and  C_7
REMARK    3  A    between atoms: C_7  and  N_8
REMARK    4  A    between atoms: N_8  and  C_9
REMARK    5  A    between atoms: C_12  and  C_13
REMARK    6  A    between atoms: C_13  and  N_14
REMARK    7  A    between atoms: C_15  and  C_17
REMARK                            x       y       z     vdW  Elec       q    Type
REMARK                         _______ _______ _______ _____ _____    ______ ____
ROOT
ATOM      9  C   UNL     1      -0.211   0.272  23.916  0.00  0.00    +0.135 C 
ATOM     10  C   UNL     1      -0.656   0.962  23.828  0.00  0.00    +0.162 C 
ATOM     11  O   UNL     1      -1.428   0.800  24.069  0.00  0.00    -0.350 OA
ATOM     12  C   UNL     1      -1.461   0.010  24.306  0.00  0.00    +0.169 C 
ATOM     24  C   UNL     1      -0.709  -0.316  24.211  0.00  0.00    +0.199 C 
ATOM     25  O   UNL     1      -0.492  -1.094  24.381  0.00  0.00    -0.219 OA
ENDROOT
BRANCH   9   8
ATOM      8  N   UNL     1       0.590   0.186  23.739  0.00  0.00    -0.209 NA
BRANCH   8   7
ATOM      7  C   UNL     1       0.890   0.482  23.030  0.00  0.00    +0.115 C 
BRANCH   7   6
ATOM      3  C   UNL     1       3.331   0.479  22.622  0.00  0.00    +0.139 A 
ATOM      4  C   UNL     1       2.998   1.043  23.123  0.00  0.00    +0.037 A 
ATOM      5  C   UNL     1       2.184   1.044  23.258  0.00  0.00    +0.000 A 
ATOM      6  C   UNL     1       1.704   0.481  22.894  0.00  0.00    -0.005 A 
ATOM     26  C   UNL     1       2.038  -0.083  22.393  0.00  0.00    +0.000 A 
ATOM     27  C   UNL     1       2.852  -0.085  22.257  0.00  0.00    +0.037 A 
BRANCH   3   2
ATOM      1  C   UNL     1       4.670   0.449  23.123  0.00  0.00    +0.252 C 
ATOM      2  O   UNL     1       4.145   0.478  22.487  0.00  0.00    -0.471 OA
ENDBRANCH   3   2
ENDBRANCH   7   6
ENDBRANCH   8   7
ENDBRANCH   9   8
BRANCH  12  13
ATOM     13  C   UNL     1      -2.128  -0.384  24.587  0.00  0.00    +0.148 C 
BRANCH  13  14
ATOM     14  N   UNL     1      -2.725   0.036  24.973  0.00  0.00    -0.199 NA
ATOM     15  C   UNL     1      -3.453  -0.321  25.116  0.00  0.00    +0.265 C 
ATOM     16  O   UNL     1      -4.050   0.099  25.502  0.00  0.00    -0.268 OA
BRANCH  15  17
ATOM     17  C   UNL     1      -3.587  -1.099  24.876  0.00  0.00    +0.055 A 
ATOM     18  C   UNL     1      -3.376  -1.726  25.370  0.00  0.00    +0.007 A 
ATOM     19  C   UNL     1      -3.510  -2.503  25.129  0.00  0.00    +0.030 A 
ATOM     20  C   UNL     1      -3.855  -2.654  24.395  0.00  0.00    +0.140 A 
ATOM     21  F   UNL     1      -3.988  -3.433  24.155  0.00  0.00    -0.204 F 
ATOM     22  C   UNL     1      -4.065  -2.028  23.901  0.00  0.00    +0.030 A 
ATOM     23  C   UNL     1      -3.932  -1.250  24.142  0.00  0.00    +0.007 A 
ENDBRANCH  15  17
ENDBRANCH  13  14
ENDBRANCH  12  13
TORSDOF 7
ENDMDL
MODEL 4
REMARK VINA RESULT:      -9.4      2.460      6.376
REMARK  Name = 
REMARK  7 active torsions:
REMARK  status: ('A' for Active; 'I' for Inactive)
REMARK    1  A    between atoms: O_2  and  C_3
REMARK    2  A    between atoms: C_6  and  C_7
REMARK    3  A    between atoms: C_7  and  N_8
REMARK    4  A    between atoms: N_8  and  C_9
REMARK    5  A    between atoms: C_12  and  C_13
REMARK    6  A    between atoms: C_13  and  N_14
REMARK    7  A    between atoms: C_15  and  C_17
REMARK                            x       y       z     vdW  Elec       q    Type
REMARK                         _______ _______ _______ _____ _____    ______ ____
ROOT
ATOM      9  C   UNL     1      -1.213   1.194  25.154  0.00  0.00    +0.135 C 
ATOM     10  C   UNL     1      -0.768   0.835  25.749  0.00  0.00    +0.162 C 
ATOM     11  O   UNL     1      -0.914   0.023  25.721  0.00  0.00    -0.350 OA
ATOM     12  C   UNL     1      -1.449  -0.119  25.109  0.00  0.00    +0.169 C 
ATOM     24  C   UNL     1      -1.634   0.605  24.759  0.00  0.00    +0.199 C 
ATOM     25  O   UNL     1      -2.149   0.719  24.124  0.00  0.00    -0.219 OA
ENDROOT
BRANCH   9   8
ATOM      8  N   UNL     1      -1.234   2.001  24.985  0.00  0.00    -0.209 NA
BRANCH   8   7
ATOM      7  C   UNL     1      -1.003   2.549  25.558  0.00  0.00    +0.115 C 
BRANCH   7   6
ATOM      3  C   UNL     1      -1.287   4.971  25.138  0.00  0.00    +0.139 A 
ATOM      4  C   UNL     1      -0.615   4.581  24.861  0.00  0.00    +0.037 A 
ATOM      5  C   UNL     1      -0.521   3.773  25.001  0.00  0.00    +0.000 A 
ATOM      6  C   UNL     1      -1.097   3.356  25.418  0.00  0.00    -0.005 A 
ATOM     26  C   UNL     1      -1.770   3.747  25.695  0.00  0.00    +0.000 A 
ATOM     27  C   UNL     1      -1.864   4.555  25.555  0.00  0.00    +0.037 A 
BRANCH   3   2
ATOM      1  C   UNL     1      -2.139   6.103  24.946  0.00  0.00    +0.252 C 
ATOM      2  O   UNL     1      -1.381   5.779  24.998  0.00  0.00    -0.471 OA
ENDBRANCH   3   2
ENDBRANCH   7   6
ENDBRANCH   8   7
ENDBRANCH   9   8
BRANCH  12  13
ATOM     13  C   UNL     1      -1.746  -0.855  24.886  0.00  0.00    +0.148 C 
BRANCH  13  14
ATOM     14  N   UNL     1      -1.295  -1.537  25.004  0.00  0.00    -0.199 NA
ATOM     15  C   UNL     1      -1.635  -2.280  24.898  0.00  0.00    +0.265 C 
ATOM     16  O   UNL     1      -1.184  -2.961  25.016  0.00  0.00    -0.268 OA
BRANCH  15  17
ATOM     17  C   UNL     1      -2.427  -2.344  24.673  0.00  0.00    +0.055 A 
ATOM     18  C   UNL     1      -2.621  -2.468  23.881  0.00  0.00    +0.007 A 
ATOM     19  C   UNL     1      -3.412  -2.532  23.656  0.00  0.00    +0.030 A 
ATOM     20  C   UNL     1      -4.008  -2.472  24.223  0.00  0.00    +0.140 A 
ATOM     21  F   UNL     1      -4.800  -2.536  23.997  0.00  0.00    -0.204 F 
ATOM     22  C   UNL     1      -3.814  -2.347  25.014  0.00  0.00    +0.030 A 
ATOM     23  C   UNL     1      -3.023  -2.283  25.240  0.00  0.00    +0.007 A 
ENDBRANCH  15  17
ENDBRANCH  13  14
ENDBRANCH  12  13
TORSDOF 7
ENDMDL
MODEL 5
REMARK VINA RESULT:      -8.5      1.809      2.398
REMARK  Name = 
REMARK  7 active torsions:
REMARK  status: ('A' for Active; 'I' for Inactive)
REMARK    1  A    between atoms: O_2  and  C_3
REMARK    2  A    between atoms: C_6  and  C_7
REMARK    3  A    between atoms: C_7  and  N_8
REMARK    4  A    between atoms: N_8  and  C_9
REMARK    5  A    between atoms: C_12  and  C_13
REMARK    6  A    between atoms: C_13  and  N_14
REMARK    7  A    between atoms: C_15  and  C_17
REMARK                            x       y       z     vdW  Elec       q    Type
REMARK                         _______ _______ _______ _____ _____    ______ ____
ROOT
ATOM      9  C   UNL     1      -1.322   0.427  25.021  0.00  0.00    +0.135 C 
ATOM     10  C   UNL     1      -0.738   0.681  25.547  0.00  0.00    +0.162 C 
ATOM     11  O   UNL     1      -0.836   1.492  25.663  0.00  0.00    -0.350 OA
ATOM     12  C   UNL     1      -1.479   1.739  25.209  0.00  0.00    +0.169 C 
ATOM     24  C   UNL     1      -1.779   1.081  24.812  0.00  0.00    +0.199 C 
ATOM     25  O   UNL     1      -2.424   1.077  24.297  0.00  0.00    -0.219 OA
ENDROOT
BRANCH   9   8
ATOM      8  N   UNL     1      -1.428  -0.345  24.751  0.00  0.00    -0.209 NA
BRANCH   8   7
ATOM      7  C   UNL     1      -1.614  -0.946  25.284  0.00  0.00    +0.115 C 
BRANCH   7   6
ATOM      3  C   UNL     1      -3.143  -2.771  24.607  0.00  0.00    +0.139 A 
ATOM      4  C   UNL     1      -3.385  -2.217  25.167  0.00  0.00    +0.037 A 
ATOM      5  C   UNL     1      -2.876  -1.609  25.393  0.00  0.00    +0.000 A 
ATOM      6  C   UNL     1      -2.124  -1.554  25.059  0.00  0.00    -0.005 A 
ATOM     26  C   UNL     1      -1.881  -2.109  24.497  0.00  0.00    +0.000 A 
ATOM     27  C   UNL     1      -2.391  -2.717  24.271  0.00  0.00    +0.037 A 
BRANCH   3   2
ATOM      1  C   UNL     1      -4.239  -3.238  23.817  0.00  0.00    +0.252 C 
ATOM      2  O   UNL     1      -3.653  -3.379  24.381  0.00  0.00    -0.471 OA
ENDBRANCH   3   2
ENDBRANCH   7   6
ENDBRANCH   8   7
ENDBRANCH   9   8
BRANCH  12  13
ATOM     13  C   UNL     1      -1.772   2.509  25.161  0.00  0.00    +0.148 C 
BRANCH  13  14
ATOM     14  N   UNL     1      -1.255   3.151  25.212  0.00  0.00    -0.199 NA
ATOM     15  C   UNL     1      -1.554   3.913  25.310  0.00  0.00    +0.265 C 
ATOM     16  O   UNL     1      -1.038   4.555  25.361  0.00  0.00    -0.268 OA
BRANCH  15  17
ATOM     17  C   UNL     1      -2.369   4.035  25.356  0.00  0.00    +0.055 A 
ATOM     18  C   UNL     1      -2.743   4.045  26.092  0.00  0.00    +0.007 A 
ATOM     19  C   UNL     1      -3.557   4.167  26.138  0.00  0.00    +0.030 A 
ATOM     20  C   UNL     1      -3.997   4.279  25.449  0.00  0.00    +0.140 A 
ATOM     21  F   UNL     1      -4.813   4.401  25.497  0.00  0.00    -0.204 F 
ATOM     22  C   UNL     1      -3.624   4.269  24.715  0.00  0.00    +0.030 A 
ATOM     23  C   UNL     1      -2.809   4.147  24.667  0.00  0.00    +0.007 A 
ENDBRANCH  15  17
ENDBRANCH  13  14
ENDBRANCH  12  13
TORSDOF 7
ENDMDL
MODEL 6
REMARK VINA RESULT:      -8.3      3.715      4.938
REMARK  Name = 
REMARK  7 active torsions:
REMARK  status: ('A' for Active; 'I' for Inactive)
REMARK    1  A    between atoms: O_2  and  C_3
REMARK    2  A    between atoms: C_6  and  C_7
REMARK    3  A    between atoms: C_7  and  N_8
REMARK    4  A    between atoms: N_8  and  C_9
REMARK    5  A    between atoms: C_12  and  C_13
REMARK    6  A    between atoms: C_13  and  N_14
REMARK    7  A    between atoms: C_15  and  C_17
REMARK                            x       y       z     vdW  Elec       q    Type
REMARK                         _______ _______ _______ _____ _____    ______ ____
ROOT
ATOM      9  C   UNL     1      -0.636   0.607  23.899  0.00  0.00    +0.135 C 
ATOM     10  C   UNL     1      -0.897  -0.074  24.286  0.00  0.00    +0.162 C 
ATOM     11  O   UNL     1      -1.686   0.042  24.501  0.00  0.00    -0.350 OA
ATOM     12  C   UNL     1      -1.912   0.793  24.247  0.00  0.00    +0.169 C 
ATOM     24  C   UNL     1      -1.263   1.143  23.875  0.00  0.00    +0.199 C 
ATOM     25  O   UNL     1      -1.245   1.896  23.537  0.00  0.00    -0.219 OA
ENDROOT
BRANCH   9   8
ATOM      8  N   UNL     1       0.119   0.730  23.590  0.00  0.00    -0.209 NA
BRANCH   8   7
ATOM      7  C   UNL     1       0.596   0.085  23.398  0.00  0.00    +0.115 C 
BRANCH   7   6
ATOM      3  C   UNL     1       2.878   0.453  22.516  0.00  0.00    +0.139 A 
ATOM      4  C   UNL     1       2.622   0.868  23.180  0.00  0.00    +0.037 A 
ATOM      5  C   UNL     1       1.861   0.745  23.475  0.00  0.00    +0.000 A 
ATOM      6  C   UNL     1       1.356   0.207  23.104  0.00  0.00    -0.005 A 
ATOM     26  C   UNL     1       1.614  -0.208  22.438  0.00  0.00    +0.000 A 
ATOM     27  C   UNL     1       2.375  -0.085  22.144  0.00  0.00    +0.037 A 
BRANCH   3   2
ATOM      1  C   UNL     1       4.283   0.602  22.738  0.00  0.00    +0.252 C 
ATOM      2  O   UNL     1       3.639   0.576  22.222  0.00  0.00    -0.471 OA
ENDBRANCH   3   2
ENDBRANCH   7   6
ENDBRANCH   8   7
ENDBRANCH   9   8
BRANCH  12  13
ATOM     13  C   UNL     1      -2.656   1.136  24.347  0.00  0.00    +0.148 C 
BRANCH  13  14
ATOM     14  N   UNL     1      -3.315   0.659  24.483  0.00  0.00    -0.199 NA
ATOM     15  C   UNL     1      -4.049   1.003  24.631  0.00  0.00    +0.265 C 
ATOM     16  O   UNL     1      -4.709   0.526  24.768  0.00  0.00    -0.268 OA
BRANCH  15  17
ATOM     17  C   UNL     1      -4.126   1.825  24.642  0.00  0.00    +0.055 A 
ATOM     18  C   UNL     1      -4.024   2.238  25.350  0.00  0.00    +0.007 A 
ATOM     19  C   UNL     1      -4.101   3.059  25.361  0.00  0.00    +0.030 A 
ATOM     20  C   UNL     1      -4.278   3.467  24.667  0.00  0.00    +0.140 A 
ATOM     21  F   UNL     1      -4.354   4.289  24.679  0.00  0.00    -0.204 F 
ATOM     22  C   UNL     1      -4.379   3.054  23.960  0.00  0.00    +0.030 A 
ATOM     23  C   UNL     1      -4.303   2.232  23.948  0.00  0.00    +0.007 A 
ENDBRANCH  15  17
ENDBRANCH  13  14
ENDBRANCH  12  13
TORSDOF 7
ENDMDL
