MODEL 1
REMARK VINA RESULT:     -11.8      0.000      0.000
REMARK  Name = 
REMARK  8 active torsions:
REMARK  status: ('A' for Active; 'I' for Inactive)
REMARK    1  A    between atoms: O_2  and  C_3
REMARK    2  A    between atoms: C_3  and  C_4
REMARK    3  A    between atoms: C_4  and  N_5
REMARK    4  A    between atoms: N_5  and  C_6
REMARK    5  A    between atoms: C_7  and  C_12
REMARK    6  A    between atoms: C_15  and  C_17
REMARK    7  A    between atoms: N_21  and  C_22
REMARK    8  A    between atoms: C_22  and  C_23
REMARK                            x       y       z     vdW  Elec       q    Type
REMARK                         _______ _______ _______ _____ _____    ______ ____
ROOT
ATOM     12  C   UNL     1      -2.812   3.081  24.514  0.00  0.00    +0.206 A 
ATOM     13  N   UNL     1      -3.119   3.012  23.751  0.00  0.00    -0.056 NA
ATOM     14  O   UNL     1      -3.765   2.499  23.782  0.00  0.00    -0.336 OA
ATOM     15  C   UNL     1      -3.857   2.252  24.564  0.00  0.00    +0.251 A 
ATOM     16  N   UNL     1      -3.267   2.612  25.016  0.00  0.00    -0.190 NA
ENDROOT
BRANCH  12   7
ATOM      6  C   UNL     1      -1.399   3.238  24.656  0.00  0.00    +0.151 A 
ATOM      7  C   UNL     1      -2.163   3.540  24.735  0.00  0.00    +0.072 A 
ATOM      8  C   UNL     1      -2.278   4.299  25.036  0.00  0.00    +0.008 A 
ATOM      9  C   UNL     1      -1.629   4.758  25.257  0.00  0.00    +0.021 A 
ATOM     10  C   UNL     1      -0.865   4.457  25.178  0.00  0.00    +0.100 A 
ATOM     11  N   UNL     1      -0.750   3.697  24.877  0.00  0.00    -0.228 NA
BRANCH   6   5
ATOM      5  N   UNL     1      -1.284   2.479  24.355  0.00  0.00    -0.218 NA
BRANCH   5   4
ATOM      4  C   UNL     1      -0.544   2.119  24.415  0.00  0.00    +0.146 C 
BRANCH   4   3
ATOM      3  C   UNL     1      -0.381   1.437  23.982  0.00  0.00    +0.166 C 
BRANCH   3   2
ATOM      1  C   UNL     1      -0.033   0.052  23.939  0.00  0.00    +0.174 C 
ATOM      2  O   UNL     1      -0.191   0.735  24.372  0.00  0.00    -0.349 OA
ENDBRANCH   3   2
ENDBRANCH   4   3
ENDBRANCH   5   4
ENDBRANCH   6   5
ENDBRANCH  12   7
BRANCH  15  17
ATOM     17  C   UNL     1      -4.435   1.735  24.845  0.00  0.00    +0.138 C 
ATOM     18  C   UNL     1      -5.139   1.952  25.219  0.00  0.00    +0.027 C 
ATOM     19  C   UNL     1      -5.551   1.262  25.406  0.00  0.00    +0.019 C 
ATOM     20  C   UNL     1      -5.102   0.619  25.148  0.00  0.00    +0.073 C 
ATOM     21  N   UNL     1      -4.413   0.912  24.801  0.00  0.00    -0.263 NA
BRANCH  21  22
ATOM     22  C   UNL     1      -3.808   0.460  24.470  0.00  0.00    +0.100 C 
BRANCH  22  23
ATOM     23  C   UNL     1      -3.791  -0.356  24.587  0.00  0.00    -0.004 A 
ATOM     24  C   UNL     1      -4.110  -0.862  24.017  0.00  0.00    +0.029 A 
ATOM     25  C   UNL     1      -4.093  -1.678  24.135  0.00  0.00    +0.167 A 
ATOM     26  F   UNL     1      -4.412  -2.183  23.565  0.00  0.00    -0.202 F 
ATOM     27  C   UNL     1      -3.757  -1.989  24.820  0.00  0.00    +0.167 A 
ATOM     28  F   UNL     1      -3.740  -2.806  24.938  0.00  0.00    -0.202 F 
ATOM     29  C   UNL     1      -3.438  -1.485  25.390  0.00  0.00    +0.032 A 
ATOM     30  C   UNL     1      -3.455  -0.668  25.273  0.00  0.00    -0.000 A 
ENDBRANCH  22  23
ENDBRANCH  21  22
ENDBRANCH  15  17
TORSDOF 8
ENDMDL
MODEL 2
REMARK VINA RESULT:     -11.1      1.203      2.990
REMARK  Name = 
REMARK  8 active torsions:
REMARK  status: ('A' for Active; 'I' for Inactive)
REMARK    1  A    between atoms: O_2  and  C_3
REMARK    2  A    between atoms: C_3  and  C_4
REMARK    3  A    between atoms: C_4  and  N_5
REMARK    4  A    between atoms: N_5  and  C_6
REMARK    5  A    between atoms: C_7  and  C_12
REMARK    6  A    between atoms: C_15  and  C_17
REMARK    7  A    between atoms: N_21  and  C_22
REMARK    8  A    between atoms: C_22  and  C_23
REMARK                            x       y       z     vdW  Elec       q    Type
REMARK                         _______ _______ _______ _____ _____    ______ ____
ROOT
ATOM     12  C   UNL     1      -1.184   2.644  25.391  0.00  0.00    +0.206 A 
ATOM     13  N   UNL     1      -1.073   2.280  26.123  0.00  0.00    -0.056 NA
ATOM     14  O   UNL     1      -0.968   1.472  25.993  0.00  0.00    -0.336 OA
ATOM     15  C   UNL     1      -1.014   1.336  25.180  0.00  0.00    +0.251 A 
ATOM     16  N   UNL     1      -1.147   2.061  24.808  0.00  0.00    -0.190 NA
ENDROOT
BRANCH  12   7
ATOM      6  C   UNL     1      -2.075   3.756  25.292  0.00  0.00    +0.151 A 
ATOM      7  C   UNL     1      -1.310   3.449  25.264  0.00  0.00    +0.072 A 
ATOM      8  C   UNL     1      -0.671   3.947  25.109  0.00  0.00    +0.008 A 
ATOM      9  C   UNL     1      -0.796   4.752  24.982  0.00  0.00    +0.021 A 
ATOM     10  C   UNL     1      -1.561   5.060  25.010  0.00  0.00    +0.100 A 
ATOM     11  N   UNL     1      -2.201   4.562  25.165  0.00  0.00    -0.228 NA
BRANCH   6   5
ATOM      5  N   UNL     1      -2.714   3.259  25.446  0.00  0.00    -0.218 NA
BRANCH   5   4
ATOM      4  C   UNL     1      -3.486   3.537  25.355  0.00  0.00    +0.146 C 
BRANCH   4   3
ATOM      3  C   UNL     1      -4.120   3.101  25.651  0.00  0.00    +0.166 C 
BRANCH   3   2
ATOM      1  C   UNL     1      -5.471   2.652  25.526  0.00  0.00    +0.174 C 
ATOM      2  O   UNL     1      -4.799   2.996  25.194  0.00  0.00    -0.349 OA
ENDBRANCH   3   2
ENDBRANCH   4   3
ENDBRANCH   5   4
ENDBRANCH   6   5
ENDBRANCH  12   7
BRANCH  15  17
ATOM     17  C   UNL     1      -0.939   0.606  24.805  0.00  0.00    +0.138 C 
ATOM     18  C   UNL     1      -0.274   0.335  24.398  0.00  0.00    +0.027 C 
ATOM     19  C   UNL     1      -0.440  -0.421  24.113  0.00  0.00    +0.019 C 
ATOM     20  C   UNL     1      -1.207  -0.618  24.343  0.00  0.00    +0.073 C 
ATOM     21  N   UNL     1      -1.516   0.017  24.771  0.00  0.00    -0.263 NA
BRANCH  21  22
ATOM     22  C   UNL     1      -2.269   0.055  25.105  0.00  0.00    +0.100 C 
BRANCH  22  23
ATOM     23  C   UNL     1      -2.859  -0.462  24.854  0.00  0.00    -0.004 A 
ATOM     24  C   UNL     1      -2.960  -1.189  25.233  0.00  0.00    +0.029 A 
ATOM     25  C   UNL     1      -3.550  -1.707  24.981  0.00  0.00    +0.167 A 
ATOM     26  F   UNL     1      -3.651  -2.433  25.360  0.00  0.00    -0.202 F 
ATOM     27  C   UNL     1      -4.040  -1.500  24.351  0.00  0.00    +0.167 A 
ATOM     28  F   UNL     1      -4.631  -2.018  24.099  0.00  0.00    -0.202 F 
ATOM     29  C   UNL     1      -3.940  -0.774  23.972  0.00  0.00    +0.032 A 
ATOM     30  C   UNL     1      -3.349  -0.255  24.224  0.00  0.00    -0.000 A 
ENDBRANCH  22  23
ENDBRANCH  21  22
ENDBRANCH  15  17
TORSDOF 8
ENDMDL
MODEL 3
REMARK VINA RESULT:     -10.9      1.301      2.770
REMARK  Name = 
REMARK  8 active torsions:
REMARK  status: ('A' for Active; 'I' for Inactive)
REMARK    1  A    between atoms: O_2  and  C_3
REMARK    2  A    between atoms: C_3  and  C_4
REMARK    3  A    between atoms: C_4  and  N_5
REMARK    4  A    between atoms: N_5  and  C_6
REMARK    5  A    between atoms: C_7  and  C_12
REMARK    6  A    between atoms: C_15  and  C_17
REMARK    7  A    between atoms: N_21  and  C_22
REMARK    8  A    between atoms: C_22  and  C_23
REMARK                            x       y       z     vdW  Elec       q    Type
REMARK                         _______ _______ _______ _____ _____    ______ ____
ROOT
ATOM     12  C   UNL     1      -3.680   2.148  24.516  0.00  0.00    +0.206 A 
ATOM     13  N   UNL     1      -3.581   2.096  23.698  0.00  0.00    -0.056 NA
ATOM     14  O   UNL     1      -3.048   1.485  23.545  0.00  0.00    -0.336 OA
ATOM     15  C   UNL     1      -2.818   1.160  24.268  0.00  0.00    +0.251 A 
ATOM     16  N   UNL     1      -3.209   1.571  24.868  0.00  0.00    -0.190 NA
ENDROOT
BRANCH  12   7
ATOM      6  C   UNL     1      -3.850   3.389  25.204  0.00  0.00    +0.151 A 
ATOM      7  C   UNL     1      -4.166   2.685  24.911  0.00  0.00    +0.072 A 
ATOM      8  C   UNL     1      -4.967   2.518  25.014  0.00  0.00    +0.008 A 
ATOM      9  C   UNL     1      -5.453   3.054  25.410  0.00  0.00    +0.021 A 
ATOM     10  C   UNL     1      -5.138   3.758  25.703  0.00  0.00    +0.100 A 
ATOM     11  N   UNL     1      -4.336   3.926  25.600  0.00  0.00    -0.228 NA
BRANCH   6   5
ATOM      5  N   UNL     1      -3.050   3.556  25.101  0.00  0.00    -0.218 NA
BRANCH   5   4
ATOM      4  C   UNL     1      -2.738   4.268  25.378  0.00  0.00    +0.146 C 
BRANCH   4   3
ATOM      3  C   UNL     1      -1.923   4.394  25.367  0.00  0.00    +0.166 C 
BRANCH   3   2
ATOM      1  C   UNL     1      -0.864   5.252  24.936  0.00  0.00    +0.174 C 
ATOM      2  O   UNL     1      -1.623   5.153  25.242  0.00  0.00    -0.349 OA
ENDBRANCH   3   2
ENDBRANCH   4   3
ENDBRANCH   5   4
ENDBRANCH   6   5
ENDBRANCH  12   7
BRANCH  15  17
ATOM     17  C   UNL     1      -2.290   0.536  24.373  0.00  0.00    +0.138 C 
ATOM     18  C   UNL     1      -1.472   0.568  24.263  0.00  0.00    +0.027 C 
ATOM     19  C   UNL     1      -1.163  -0.179  24.429  0.00  0.00    +0.019 C 
ATOM     20  C   UNL     1      -1.789  -0.673  24.641  0.00  0.00    +0.073 C 
ATOM     21  N   UNL     1      -2.485  -0.231  24.606  0.00  0.00    -0.263 NA
BRANCH  21  22
ATOM     22  C   UNL     1      -3.243  -0.508  24.776  0.00  0.00    +0.100 C 
BRANCH  22  23
ATOM     23  C   UNL     1      -3.424  -1.306  24.674  0.00  0.00    -0.004 A 
ATOM     24  C   UNL     1      -3.843  -1.553  24.007  0.00  0.00    +0.029 A 
ATOM     25  C   UNL     1      -4.023  -2.351  23.906  0.00  0.00    +0.167 A 
ATOM     26  F   UNL     1      -4.442  -2.598  23.239  0.00  0.00    -0.202 F 
ATOM     27  C   UNL     1      -3.785  -2.903  24.470  0.00  0.00    +0.167 A 
ATOM     28  F   UNL     1      -3.965  -3.702  24.368  0.00  0.00    -0.202 F 
ATOM     29  C   UNL     1      -3.365  -2.657  25.137  0.00  0.00    +0.032 A 
ATOM     30  C   UNL     1      -3.185  -1.858  25.238  0.00  0.00    -0.000 A 
ENDBRANCH  22  23
ENDBRANCH  21  22
ENDBRANCH  15  17
TORSDOF 8
ENDMDL
MODEL 4
REMARK VINA RESULT:     -10.8      2.274      4.436
REMARK  Name = 
REMARK  8 active torsions:
REMARK  status: ('A' for Active; 'I' for Inactive)
REMARK    1  A    between atoms: O_2  and  C_3
REMARK    2  A    between atoms: C_3  and  C_4
REMARK    3  A    between atoms: C_4  and  N_5
REMARK    4  A    between atoms: N_5  and  C_6
REMARK    5  A    between atoms: C_7  and  C_12
REMARK    6  A    between atoms: C_15  and  C_17
REMARK    7  A    between atoms: N_21  and  C_22
REMARK    8  A    between atoms: C_22  and  C_23
REMARK                            x       y       z     vdW  Elec       q    Type
REMARK                         _______ _______ _______ _____ _____    ______ ____
ROOT
ATOM     12  C   UNL     1      -3.678  -0.430  24.345  0.00  0.00    +0.206 A 
ATOM     13  N   UNL     1      -3.751  -0.067  23.607  0.00  0.00    -0.056 NA
ATOM     14  O   UNL     1      -4.058   0.690  23.725  0.00  0.00    -0.336 OA
ATOM     15  C   UNL     1      -4.175   0.794  24.535  0.00  0.00    +0.251 A 
ATOM     16  N   UNL     1      -3.940   0.102  24.918  0.00  0.00    -0.190 NA
ENDROOT
BRANCH  12   7
ATOM      6  C   UNL     1      -2.584  -1.317  24.586  0.00  0.00    +0.151 A 
ATOM      7  C   UNL     1      -3.393  -1.192  24.485  0.00  0.00    +0.072 A 
ATOM      8  C   UNL     1      -3.917  -1.827  24.522  0.00  0.00    +0.008 A 
ATOM      9  C   UNL     1      -3.632  -2.589  24.661  0.00  0.00    +0.021 A 
ATOM     10  C   UNL     1      -2.823  -2.715  24.764  0.00  0.00    +0.100 A 
ATOM     11  N   UNL     1      -2.299  -2.078  24.726  0.00  0.00    -0.228 NA
BRANCH   6   5
ATOM      5  N   UNL     1      -2.060  -0.681  24.549  0.00  0.00    -0.218 NA
BRANCH   5   4
ATOM      4  C   UNL     1      -1.246  -0.817  24.538  0.00  0.00    +0.146 C 
BRANCH   4   3
ATOM      3  C   UNL     1      -0.721  -0.184  24.606  0.00  0.00    +0.166 C 
BRANCH   3   2
ATOM      1  C   UNL     1       0.198   0.693  23.953  0.00  0.00    +0.174 C 
ATOM      2  O   UNL     1      -0.164  -0.045  24.013  0.00  0.00    -0.349 OA
ENDBRANCH   3   2
ENDBRANCH   4   3
ENDBRANCH   5   4
ENDBRANCH   6   5
ENDBRANCH  12   7
BRANCH  15  17
ATOM     17  C   UNL     1      -4.473   1.472  24.898  0.00  0.00    +0.138 C 
ATOM     18  C   UNL     1      -5.198   1.533  25.288  0.00  0.00    +0.027 C 
ATOM     19  C   UNL     1      -5.273   2.307  25.567  0.00  0.00    +0.019 C 
ATOM     20  C   UNL     1      -4.595   2.723  25.349  0.00  0.00    +0.073 C 
ATOM     21  N   UNL     1      -4.101   2.207  24.936  0.00  0.00    -0.263 NA
BRANCH  21  22
ATOM     22  C   UNL     1      -3.363   2.394  24.617  0.00  0.00    +0.100 C 
BRANCH  22  23
ATOM     23  C   UNL     1      -2.948   3.050  24.894  0.00  0.00    -0.004 A 
ATOM     24  C   UNL     1      -2.379   2.958  25.484  0.00  0.00    +0.029 A 
ATOM     25  C   UNL     1      -1.963   3.614  25.762  0.00  0.00    +0.167 A 
ATOM     26  F   UNL     1      -1.394   3.523  26.352  0.00  0.00    -0.202 F 
ATOM     27  C   UNL     1      -2.116   4.362  25.449  0.00  0.00    +0.167 A 
ATOM     28  F   UNL     1      -1.700   5.019  25.727  0.00  0.00    -0.202 F 
ATOM     29  C   UNL     1      -2.685   4.454  24.859  0.00  0.00    +0.032 A 
ATOM     30  C   UNL     1      -3.101   3.797  24.581  0.00  0.00    -0.000 A 
ENDBRANCH  22  23
ENDBRANCH  21  22
ENDBRANCH  15  17
TORSDOF 8
ENDMDL
MODEL 5
REMARK VINA RESULT:     -10.5      2.295      5.312
REMARK  Name = 
REMARK  8 active torsions:
REMARK  status: ('A' for Active; 'I' for Inactive)
REMARK    1  A    between atoms: O_2  and  C_3
REMARK    2  A    between atoms: C_3  and  C_4
REMARK    3  A    between atoms: C_4  and  N_5
REMARK    4  A    between atoms: N_5  and  C_6
REMARK    5  A    between atoms: C_7  and  C_12
REMARK    6  A    between atoms: C_15  and  C_17
REMARK    7  A    between atoms: N_21  and  C_22
REMARK    8  A    between atoms: C_22  and  C_23
REMARK                            x       y       z     vdW  Elec       q    Type
REMARK                         _______ _______ _______ _____ _____    ______ ____
ROOT
ATOM     12  C   UNL     1      -2.139  -0.686  25.005  0.00  0.00    +0.206 A 
ATOM     13  N   UNL     1      -1.839  -0.582  25.767  0.00  0.00    -0.056 NA
ATOM     14  O   UNL     1      -1.248  -0.006  25.731  0.00  0.00    -0.336 OA
ATOM     15  C   UNL     1      -1.184   0.245  24.948  0.00  0.00    +0.251 A 
ATOM     16  N   UNL     1      -1.735  -0.175  24.500  0.00  0.00    -0.190 NA
ENDROOT
BRANCH  12   7
ATOM      6  C   UNL     1      -3.521  -0.948  24.753  0.00  0.00    +0.151 A 
ATOM      7  C   UNL     1      -2.739  -1.209  24.788  0.00  0.00    +0.072 A 
ATOM      8  C   UNL     1      -2.557  -1.992  24.606  0.00  0.00    +0.008 A 
ATOM      9  C   UNL     1      -3.157  -2.515  24.388  0.00  0.00    +0.021 A 
ATOM     10  C   UNL     1      -3.939  -2.255  24.353  0.00  0.00    +0.100 A 
ATOM     11  N   UNL     1      -4.121  -1.471  24.535  0.00  0.00    -0.228 NA
BRANCH   6   5
ATOM      5  N   UNL     1      -3.704  -0.165  24.935  0.00  0.00    -0.218 NA
BRANCH   5   4
ATOM      4  C   UNL     1      -4.463   0.126  24.797  0.00  0.00    +0.146 C 
BRANCH   4   3
ATOM      3  C   UNL     1      -4.708   0.829  25.151  0.00  0.00    +0.166 C 
BRANCH   3   2
ATOM      1  C   UNL     1      -5.574   1.964  25.096  0.00  0.00    +0.174 C 
ATOM      2  O   UNL     1      -5.122   1.391  24.712  0.00  0.00    -0.349 OA
ENDBRANCH   3   2
ENDBRANCH   4   3
ENDBRANCH   5   4
ENDBRANCH   6   5
ENDBRANCH  12   7
BRANCH  15  17
ATOM     17  C   UNL     1      -0.662   0.816  24.664  0.00  0.00    +0.138 C 
ATOM     18  C   UNL     1      -0.044   0.686  24.132  0.00  0.00    +0.027 C 
ATOM     19  C   UNL     1       0.335   1.407  24.000  0.00  0.00    +0.019 C 
ATOM     20  C   UNL     1      -0.048   1.983  24.450  0.00  0.00    +0.073 C 
ATOM     21  N   UNL     1      -0.664   1.618  24.860  0.00  0.00    -0.263 NA
BRANCH  21  22
ATOM     22  C   UNL     1      -1.190   1.989  25.375  0.00  0.00    +0.100 C 
BRANCH  22  23
ATOM     23  C   UNL     1      -1.317   2.802  25.321  0.00  0.00    -0.004 A 
ATOM     24  C   UNL     1      -2.006   3.089  24.969  0.00  0.00    +0.029 A 
ATOM     25  C   UNL     1      -2.133   3.902  24.914  0.00  0.00    +0.167 A 
ATOM     26  F   UNL     1      -2.822   4.190  24.563  0.00  0.00    -0.202 F 
ATOM     27  C   UNL     1      -1.572   4.428  25.211  0.00  0.00    +0.167 A 
ATOM     28  F   UNL     1      -1.698   5.242  25.157  0.00  0.00    -0.202 F 
ATOM     29  C   UNL     1      -0.883   4.142  25.563  0.00  0.00    +0.032 A 
ATOM     30  C   UNL     1      -0.756   3.328  25.618  0.00  0.00    -0.000 A 
ENDBRANCH  22  23
ENDBRANCH  21  22
ENDBRANCH  15  17
TORSDOF 8
ENDMDL
MODEL 6
REMARK VINA RESULT:     -10.3      1.758      3.094
REMARK  Name = 
REMARK  8 active torsions:
REMARK  status: ('A' for Active; 'I' for Inactive)
REMARK    1  A    between atoms: O_2  and  C_3
REMARK    2  A    between atoms: C_3  and  C_4
REMARK    3  A    between atoms: C_4  and  N_5
REMARK    4  A    between atoms: N_5  and  C_6
REMARK    5  A    between atoms: C_7  and  C_12
REMARK    6  A    between atoms: C_15  and  C_17
REMARK    7  A    between atoms: N_21  and  C_22
REMARK    8  A    between atoms: C_22  and  C_23
REMARK                            x       y       z     vdW  Elec       q    Type
REMARK                         _______ _______ _______ _____ _____    ______ ____
ROOT
ATOM     12  C   UNL     1      -4.380   1.845  24.587  0.00  0.00    +0.206 A 
ATOM     13  N   UNL     1      -4.031   1.873  23.839  0.00  0.00    -0.056 NA
ATOM     14  O   UNL     1      -3.786   1.110  23.644  0.00  0.00    -0.336 OA
ATOM     15  C   UNL     1      -3.983   0.610  24.270  0.00  0.00    +0.251 A 
ATOM     16  N   UNL     1      -4.350   1.065  24.853  0.00  0.00    -0.190 NA
ENDROOT
BRANCH  12   7
ATOM      6  C   UNL     1      -4.213   3.102  25.246  0.00  0.00    +0.151 A 
ATOM      7  C   UNL     1      -4.701   2.486  24.996  0.00  0.00    +0.072 A 
ATOM      8  C   UNL     1      -5.510   2.509  25.155  0.00  0.00    +0.008 A 
ATOM      9  C   UNL     1      -5.831   3.149  25.564  0.00  0.00    +0.021 A 
ATOM     10  C   UNL     1      -5.344   3.766  25.814  0.00  0.00    +0.100 A 
ATOM     11  N   UNL     1      -4.535   3.742  25.655  0.00  0.00    -0.228 NA
BRANCH   6   5
ATOM      5  N   UNL     1      -3.404   3.079  25.087  0.00  0.00    -0.218 NA
BRANCH   5   4
ATOM      4  C   UNL     1      -2.909   3.671  25.379  0.00  0.00    +0.146 C 
BRANCH   4   3
ATOM      3  C   UNL     1      -2.115   3.690  25.158  0.00  0.00    +0.166 C 
BRANCH   3   2
ATOM      1  C   UNL     1      -0.906   4.444  25.048  0.00  0.00    +0.174 C 
ATOM      2  O   UNL     1      -1.627   4.302  25.420  0.00  0.00    -0.349 OA
ENDBRANCH   3   2
ENDBRANCH   4   3
ENDBRANCH   5   4
ENDBRANCH   6   5
ENDBRANCH  12   7
BRANCH  15  17
ATOM     17  C   UNL     1      -3.839  -0.201  24.308  0.00  0.00    +0.138 C 
ATOM     18  C   UNL     1      -4.365  -0.797  24.087  0.00  0.00    +0.027 C 
ATOM     19  C   UNL     1      -3.995  -1.524  24.216  0.00  0.00    +0.019 C 
ATOM     20  C   UNL     1      -3.241  -1.376  24.516  0.00  0.00    +0.073 C 
ATOM     21  N   UNL     1      -3.144  -0.558  24.573  0.00  0.00    -0.263 NA
BRANCH  21  22
ATOM     22  C   UNL     1      -2.472  -0.167  24.846  0.00  0.00    +0.100 C 
BRANCH  22  23
ATOM     23  C   UNL     1      -1.777  -0.590  24.986  0.00  0.00    -0.004 A 
ATOM     24  C   UNL     1      -1.208  -0.658  24.392  0.00  0.00    +0.029 A 
ATOM     25  C   UNL     1      -0.514  -1.080  24.533  0.00  0.00    +0.167 A 
ATOM     26  F   UNL     1       0.055  -1.148  23.939  0.00  0.00    -0.202 F 
ATOM     27  C   UNL     1      -0.388  -1.435  25.266  0.00  0.00    +0.167 A 
ATOM     28  F   UNL     1       0.307  -1.858  25.407  0.00  0.00    -0.202 F 
ATOM     29  C   UNL     1      -0.956  -1.367  25.861  0.00  0.00    +0.032 A 
ATOM     30  C   UNL     1      -1.651  -0.944  25.720  0.00  0.00    -0.000 A 
ENDBRANCH  22  23
ENDBRANCH  21  22
ENDBRANCH  15  17
TORSDOF 8
ENDMDL
MODEL 7
REMARK VINA RESULT:      -9.9      2.128      4.272
REMARK  Name = 
REMARK  8 active torsions:
REMARK  status: ('A' for Active; 'I' for Inactive)
REMARK    1  A    between atoms: O_2  and  C_3
REMARK    2  A    between atoms: C_3  and  C_4
REMARK    3  A    between atoms: C_4  and  N_5
REMARK    4  A    between atoms: N_5  and  C_6
REMARK    5  A    between atoms: C_7  and  C_12
REMARK    6  A    between atoms: C_15  and  C_17
REMARK    7  A    between atoms: N_21  and  C_22
REMARK    8  A    between atoms: C_22  and  C_23
REMARK                            x       y       z     vdW  Elec       q    Type
REMARK                         _______ _______ _______ _____ _____    ______ ____
ROOT
ATOM     12  C   UNL     1      -0.162   1.766  24.749  0.00  0.00    +0.206 A 
ATOM     13  N   UNL     1       0.012   1.864  25.550  0.00  0.00    -0.056 NA
ATOM     14  O   UNL     1      -0.309   2.584  25.794  0.00  0.00    -0.336 OA
ATOM     15  C   UNL     1      -0.681   2.931  25.144  0.00  0.00    +0.251 A 
ATOM     16  N   UNL     1      -0.590   2.425  24.498  0.00  0.00    -0.190 NA
ENDROOT
BRANCH  12   7
ATOM      6  C   UNL     1      -0.373   0.417  24.328  0.00  0.00    +0.151 A 
ATOM      7  C   UNL     1       0.054   1.121  24.282  0.00  0.00    +0.072 A 
ATOM      8  C   UNL     1       0.696   1.182  23.768  0.00  0.00    +0.008 A 
ATOM      9  C   UNL     1       0.912   0.537  23.301  0.00  0.00    +0.021 A 
ATOM     10  C   UNL     1       0.486  -0.168  23.347  0.00  0.00    +0.100 A 
ATOM     11  N   UNL     1      -0.157  -0.228  23.861  0.00  0.00    -0.228 NA
BRANCH   6   5
ATOM      5  N   UNL     1      -1.015   0.356  24.842  0.00  0.00    -0.218 NA
BRANCH   5   4
ATOM      4  C   UNL     1      -1.523  -0.292  24.794  0.00  0.00    +0.146 C 
BRANCH   4   3
ATOM      3  C   UNL     1      -2.070  -0.434  25.394  0.00  0.00    +0.166 C 
BRANCH   3   2
ATOM      1  C   UNL     1      -3.345  -1.015  25.673  0.00  0.00    +0.174 C 
ATOM      2  O   UNL     1      -2.870  -0.524  25.212  0.00  0.00    -0.349 OA
ENDBRANCH   3   2
ENDBRANCH   4   3
ENDBRANCH   5   4
ENDBRANCH   6   5
ENDBRANCH  12   7
BRANCH  15  17
ATOM     17  C   UNL     1      -1.074   3.656  25.140  0.00  0.00    +0.138 C 
ATOM     18  C   UNL     1      -0.745   4.385  24.937  0.00  0.00    +0.027 C 
ATOM     19  C   UNL     1      -1.334   4.959  25.010  0.00  0.00    +0.019 C 
ATOM     20  C   UNL     1      -2.026   4.585  25.257  0.00  0.00    +0.073 C 
ATOM     21  N   UNL     1      -1.866   3.779  25.337  0.00  0.00    -0.263 NA
BRANCH  21  22
ATOM     22  C   UNL     1      -2.403   3.200  25.574  0.00  0.00    +0.100 C 
BRANCH  22  23
ATOM     23  C   UNL     1      -3.213   3.331  25.495  0.00  0.00    -0.004 A 
ATOM     24  C   UNL     1      -3.612   3.061  24.824  0.00  0.00    +0.029 A 
ATOM     25  C   UNL     1      -4.422   3.192  24.745  0.00  0.00    +0.167 A 
ATOM     26  F   UNL     1      -4.820   2.922  24.075  0.00  0.00    -0.202 F 
ATOM     27  C   UNL     1      -4.834   3.593  25.336  0.00  0.00    +0.167 A 
ATOM     28  F   UNL     1      -5.645   3.725  25.257  0.00  0.00    -0.202 F 
ATOM     29  C   UNL     1      -4.437   3.864  26.006  0.00  0.00    +0.032 A 
ATOM     30  C   UNL     1      -3.626   3.732  26.085  0.00  0.00    -0.000 A 
ENDBRANCH  22  23
ENDBRANCH  21  22
ENDBRANCH  15  17
TORSDOF 8
ENDMDL
MODEL 8
REMARK VINA RESULT:      -9.8      1.522      3.766
REMARK  Name = 
REMARK  8 active torsions:
REMARK  status: ('A' for Active; 'I' for Inactive)
REMARK    1  A    between atoms: O_2  and  C_3
REMARK    2  A    between atoms: C_3  and  C_4
REMARK    3  A    between atoms: C_4  and  N_5
REMARK    4  A    between atoms: N_5  and  C_6
REMARK    5  A    between atoms: C_7  and  C_12
REMARK    6  A    between atoms: C_15  and  C_17
REMARK    7  A    between atoms: N_21  and  C_22
REMARK    8  A    between atoms: C_22  and  C_23
REMARK                            x       y       z     vdW  Elec       q    Type
REMARK                         _______ _______ _______ _____ _____    ______ ____
ROOT
ATOM     12  C   UNL     1      -3.545   2.859  24.873  0.00  0.00    +0.206 A 
ATOM     13  N   UNL     1      -3.285   3.137  24.141  0.00  0.00    -0.056 NA
ATOM     14  O   UNL     1      -2.460   3.104  24.134  0.00  0.00    -0.336 OA
ATOM     15  C   UNL     1      -2.211   2.806  24.862  0.00  0.00    +0.251 A 
ATOM     16  N   UNL     1      -2.881   2.655  25.318  0.00  0.00    -0.190 NA
ENDROOT
BRANCH  12   7
ATOM      6  C   UNL     1      -4.728   2.078  25.046  0.00  0.00    +0.151 A 
ATOM      7  C   UNL     1      -4.331   2.797  25.117  0.00  0.00    +0.072 A 
ATOM      8  C   UNL     1      -4.718   3.454  25.431  0.00  0.00    +0.008 A 
ATOM      9  C   UNL     1      -5.503   3.391  25.675  0.00  0.00    +0.021 A 
ATOM     10  C   UNL     1      -5.902   2.673  25.604  0.00  0.00    +0.100 A 
ATOM     11  N   UNL     1      -5.514   2.015  25.290  0.00  0.00    -0.228 NA
BRANCH   6   5
ATOM      5  N   UNL     1      -4.341   1.421  24.732  0.00  0.00    -0.218 NA
BRANCH   5   4
ATOM      4  C   UNL     1      -4.690   0.675  24.777  0.00  0.00    +0.146 C 
BRANCH   4   3
ATOM      3  C   UNL     1      -4.403   0.056  24.314  0.00  0.00    +0.166 C 
BRANCH   3   2
ATOM      1  C   UNL     1      -4.180  -1.346  24.147  0.00  0.00    +0.174 C 
ATOM      2  O   UNL     1      -4.318  -0.698  24.638  0.00  0.00    -0.349 OA
ENDBRANCH   3   2
ENDBRANCH   4   3
ENDBRANCH   5   4
ENDBRANCH   6   5
ENDBRANCH  12   7
BRANCH  15  17
ATOM     17  C   UNL     1      -1.429   2.681  25.092  0.00  0.00    +0.138 C 
ATOM     18  C   UNL     1      -1.010   3.126  25.647  0.00  0.00    +0.027 C 
ATOM     19  C   UNL     1      -0.250   2.809  25.707  0.00  0.00    +0.019 C 
ATOM     20  C   UNL     1      -0.200   2.169  25.190  0.00  0.00    +0.073 C 
ATOM     21  N   UNL     1      -0.928   2.089  24.810  0.00  0.00    -0.263 NA
BRANCH  21  22
ATOM     22  C   UNL     1      -1.122   1.519  24.247  0.00  0.00    +0.100 C 
BRANCH  22  23
ATOM     23  C   UNL     1      -0.710   0.805  24.224  0.00  0.00    -0.004 A 
ATOM     24  C   UNL     1      -0.903   0.201  24.753  0.00  0.00    +0.029 A 
ATOM     25  C   UNL     1      -0.491  -0.514  24.731  0.00  0.00    +0.167 A 
ATOM     26  F   UNL     1      -0.684  -1.118  25.260  0.00  0.00    -0.202 F 
ATOM     27  C   UNL     1       0.113  -0.625  24.181  0.00  0.00    +0.167 A 
ATOM     28  F   UNL     1       0.525  -1.340  24.159  0.00  0.00    -0.202 F 
ATOM     29  C   UNL     1       0.306  -0.022  23.652  0.00  0.00    +0.032 A 
ATOM     30  C   UNL     1      -0.106   0.693  23.674  0.00  0.00    -0.000 A 
ENDBRANCH  22  23
ENDBRANCH  21  22
ENDBRANCH  15  17
TORSDOF 8
ENDMDL
MODEL 9
REMARK VINA RESULT:      -9.8      2.351      3.964
REMARK  Name = 
REMARK  8 active torsions:
REMARK  status: ('A' for Active; 'I' for Inactive)
REMARK    1  A    between atoms: O_2  and  C_3
REMARK    2  A    between atoms: C_3  and  C_4
REMARK    3  A    between atoms: C_4  and  N_5
REMARK    4  A    between atoms: N_5  and  C_6
REMARK    5  A    between atoms: C_7  and  C_12
REMARK    6  A    between atoms: C_15  and  C_17
REMARK    7  A    between atoms: N_21  and  C_22
REMARK    8  A    between atoms: C_22  and  C_23
REMARK                            x       y       z     vdW  Elec       q    Type
REMARK                         _______ _______ _______ _____ _____    ______ ____
ROOT
ATOM     12  C   UNL     1      -1.292   0.595  24.641  0.00  0.00    +0.206 A 
ATOM     13  N   UNL     1      -0.951   1.306  24.885  0.00  0.00    -0.056 NA
ATOM     14  O   UNL     1      -1.396   1.925  24.568  0.00  0.00    -0.336 OA
ATOM     15  C   UNL     1      -2.011   1.596  24.128  0.00  0.00    +0.251 A 
ATOM     16  N   UNL     1      -1.947   0.775  24.173  0.00  0.00    -0.190 NA
ENDROOT
BRANCH  12   7
ATOM      6  C   UNL     1      -0.384  -0.486  24.424  0.00  0.00    +0.151 A 
ATOM      7  C   UNL     1      -1.024  -0.162  24.831  0.00  0.00    +0.072 A 
ATOM      8  C   UNL     1      -1.396  -0.592  25.427  0.00  0.00    +0.008 A 
ATOM      9  C   UNL     1      -1.128  -1.349  25.617  0.00  0.00    +0.021 A 
ATOM     10  C   UNL     1      -0.488  -1.675  25.211  0.00  0.00    +0.100 A 
ATOM     11  N   UNL     1      -0.116  -1.243  24.614  0.00  0.00    -0.228 NA
BRANCH   6   5
ATOM      5  N   UNL     1      -0.012  -0.055  23.827  0.00  0.00    -0.218 NA
BRANCH   5   4
ATOM      4  C   UNL     1       0.634  -0.376  23.427  0.00  0.00    +0.146 C 
BRANCH   4   3
ATOM      3  C   UNL     1       1.074   0.092  22.910  0.00  0.00    +0.166 C 
BRANCH   3   2
ATOM      1  C   UNL     1       2.418   0.119  22.424  0.00  0.00    +0.174 C 
ATOM      2  O   UNL     1       1.679  -0.245  22.460  0.00  0.00    -0.349 OA
ENDBRANCH   3   2
ENDBRANCH   4   3
ENDBRANCH   5   4
ENDBRANCH   6   5
ENDBRANCH  12   7
BRANCH  15  17
ATOM     17  C   UNL     1      -2.590   2.015  23.716  0.00  0.00    +0.138 C 
ATOM     18  C   UNL     1      -2.595   2.164  22.904  0.00  0.00    +0.027 C 
ATOM     19  C   UNL     1      -3.274   2.600  22.729  0.00  0.00    +0.019 C 
ATOM     20  C   UNL     1      -3.687   2.721  23.432  0.00  0.00    +0.073 C 
ATOM     21  N   UNL     1      -3.265   2.360  24.042  0.00  0.00    -0.263 NA
BRANCH  21  22
ATOM     22  C   UNL     1      -3.480   2.346  24.838  0.00  0.00    +0.100 C 
BRANCH  22  23
ATOM     23  C   UNL     1      -4.199   2.671  25.077  0.00  0.00    -0.004 A 
ATOM     24  C   UNL     1      -4.878   2.203  25.095  0.00  0.00    +0.029 A 
ATOM     25  C   UNL     1      -5.597   2.528  25.334  0.00  0.00    +0.167 A 
ATOM     26  F   UNL     1      -6.277   2.060  25.352  0.00  0.00    -0.202 F 
ATOM     27  C   UNL     1      -5.638   3.322  25.555  0.00  0.00    +0.167 A 
ATOM     28  F   UNL     1      -6.358   3.648  25.794  0.00  0.00    -0.202 F 
ATOM     29  C   UNL     1      -4.959   3.790  25.537  0.00  0.00    +0.032 A 
ATOM     30  C   UNL     1      -4.239   3.465  25.298  0.00  0.00    -0.000 A 
ENDBRANCH  22  23
ENDBRANCH  21  22
ENDBRANCH  15  17
TORSDOF 8
ENDMDL
MODEL 10
REMARK VINA RESULT:      -9.8      1.154      2.337
REMARK  Name = 
REMARK  8 active torsions:
REMARK  status: ('A' for Active; 'I' for Inactive)
REMARK    1  A    between atoms: O_2  and  C_3
REMARK    2  A    between atoms: C_3  and  C_4
REMARK    3  A    between atoms: C_4  and  N_5
REMARK    4  A    between atoms: N_5  and  C_6
REMARK    5  A    between atoms: C_7  and  C_12
REMARK    6  A    between atoms: C_15  and  C_17
REMARK    7  A    between atoms: N_21  and  C_22
REMARK    8  A    between atoms: C_22  and  C_23
REMARK                            x       y       z     vdW  Elec       q    Type
REMARK                         _______ _______ _______ _____ _____    ______ ____
ROOT
ATOM     12  C   UNL     1      -1.703   1.612  23.947  0.00  0.00    +0.206 A 
ATOM     13  N   UNL     1      -2.137   1.884  23.299  0.00  0.00    -0.056 NA
ATOM     14  O   UNL     1      -2.923   1.656  23.405  0.00  0.00    -0.336 OA
ATOM     15  C   UNL     1      -2.975   1.243  24.117  0.00  0.00    +0.251 A 
ATOM     16  N   UNL     1      -2.222   1.217  24.452  0.00  0.00    -0.190 NA
ENDROOT
BRANCH  12   7
ATOM      6  C   UNL     1      -0.615   2.423  24.394  0.00  0.00    +0.151 A 
ATOM      7  C   UNL     1      -0.894   1.718  24.068  0.00  0.00    +0.072 A 
ATOM      8  C   UNL     1      -0.365   1.120  23.863  0.00  0.00    +0.008 A 
ATOM      9  C   UNL     1       0.444   1.226  23.983  0.00  0.00    +0.021 A 
ATOM     10  C   UNL     1       0.724   1.930  24.309  0.00  0.00    +0.100 A 
ATOM     11  N   UNL     1       0.194   2.529  24.515  0.00  0.00    -0.228 NA
BRANCH   6   5
ATOM      5  N   UNL     1      -1.144   3.021  24.600  0.00  0.00    -0.218 NA
BRANCH   5   4
ATOM      4  C   UNL     1      -0.862   3.738  24.895  0.00  0.00    +0.146 C 
BRANCH   4   3
ATOM      3  C   UNL     1      -1.392   4.321  25.137  0.00  0.00    +0.166 C 
BRANCH   3   2
ATOM      1  C   UNL     1      -1.727   5.711  25.133  0.00  0.00    +0.174 C 
ATOM      2  O   UNL     1      -1.159   5.113  25.146  0.00  0.00    -0.349 OA
ENDBRANCH   3   2
ENDBRANCH   4   3
ENDBRANCH   5   4
ENDBRANCH   6   5
ENDBRANCH  12   7
BRANCH  15  17
ATOM     17  C   UNL     1      -3.660   0.915  24.439  0.00  0.00    +0.138 C 
ATOM     18  C   UNL     1      -4.208   1.307  24.916  0.00  0.00    +0.027 C 
ATOM     19  C   UNL     1      -4.805   0.772  25.111  0.00  0.00    +0.019 C 
ATOM     20  C   UNL     1      -4.626   0.050  24.756  0.00  0.00    +0.073 C 
ATOM     21  N   UNL     1      -3.919   0.138  24.340  0.00  0.00    -0.263 NA
BRANCH  21  22
ATOM     22  C   UNL     1      -3.537  -0.448  23.902  0.00  0.00    +0.100 C 
BRANCH  22  23
ATOM     23  C   UNL     1      -3.650  -1.242  24.090  0.00  0.00    -0.004 A 
ATOM     24  C   UNL     1      -3.195  -1.595  24.682  0.00  0.00    +0.029 A 
ATOM     25  C   UNL     1      -3.308  -2.390  24.870  0.00  0.00    +0.167 A 
ATOM     26  F   UNL     1      -2.852  -2.743  25.461  0.00  0.00    -0.202 F 
ATOM     27  C   UNL     1      -3.875  -2.833  24.468  0.00  0.00    +0.167 A 
ATOM     28  F   UNL     1      -3.988  -3.629  24.656  0.00  0.00    -0.202 F 
ATOM     29  C   UNL     1      -4.331  -2.481  23.877  0.00  0.00    +0.032 A 
ATOM     30  C   UNL     1      -4.218  -1.685  23.688  0.00  0.00    -0.000 A 
ENDBRANCH  22  23
ENDBRANCH  21  22
ENDBRANCH  15  17
TORSDOF 8
ENDMDL
