MODEL 1
REMARK VINA RESULT:     -10.7      0.000      0.000
REMARK  Name = 
REMARK  3 active torsions:
REMARK  status: ('A' for Active; 'I' for Inactive)
REMARK    1  A    between atoms: C_4  and  C_8
REMARK    2  A    between atoms: N_10  and  C_11
REMARK    3  A    between atoms: C_17  and  C_18
REMARK                            x       y       z     vdW  Elec       q    Type
REMARK                         _______ _______ _______ _____ _____    ______ ____
ROOT
ATOM     11  C   UNL     1      -4.400   1.584  24.546  0.00  0.00    +0.133 C 
ATOM     12  C   UNL     1      -5.095   1.870  24.887  0.00  0.00    +0.202 C 
ATOM     13  O   UNL     1      -5.745   1.416  25.113  0.00  0.00    -0.219 OA
ATOM     14  C   UNL     1      -5.024   2.688  24.960  0.00  0.00    +0.184 C 
ATOM     15  O   UNL     1      -5.593   3.197  25.274  0.00  0.00    -0.220 OA
ATOM     16  C   UNL     1      -4.287   2.909  24.665  0.00  0.00    +0.042 C 
ATOM     17  C   UNL     1      -3.901   2.227  24.409  0.00  0.00    +0.049 C 
ENDROOT
BRANCH  17  18
ATOM     18  C   UNL     1      -3.147   2.193  24.074  0.00  0.00    -0.002 A 
ATOM     19  C   UNL     1      -3.061   2.111  23.258  0.00  0.00    -0.001 A 
ATOM     20  C   UNL     1      -2.308   2.077  22.923  0.00  0.00    +0.020 A 
ATOM     21  C   UNL     1      -1.640   2.125  23.406  0.00  0.00    +0.099 A 
ATOM     22  N   UNL     1      -1.725   2.206  24.221  0.00  0.00    -0.243 NA
ATOM     23  C   UNL     1      -2.479   2.240  24.556  0.00  0.00    +0.095 A 
ENDBRANCH  17  18
BRANCH  11  10
ATOM      8  C   UNL     1      -4.298   0.221  24.960  0.00  0.00    +0.284 C 
ATOM      9  O   UNL     1      -4.529   0.436  25.723  0.00  0.00    -0.267 OA
ATOM     10  N   UNL     1      -4.234   0.795  24.372  0.00  0.00    -0.199 NA
BRANCH   8   4
ATOM      1  C   UNL     1      -4.255  -2.369  23.647  0.00  0.00    +0.153 C 
ATOM      2  N   UNL     1      -4.111  -1.759  24.183  0.00  0.00    -0.253 N 
ATOM      3  N   UNL     1      -4.416  -0.994  24.140  0.00  0.00    -0.165 NA
ATOM      4  C   UNL     1      -4.131  -0.569  24.787  0.00  0.00    +0.157 A 
ATOM      5  C   UNL     1      -3.650  -1.072  25.230  0.00  0.00    +0.040 A 
ATOM      6  C   UNL     1      -3.638  -1.807  24.858  0.00  0.00    +0.058 A 
ATOM      7  C   UNL     1      -3.225  -2.473  25.114  0.00  0.00    +0.052 C 
ENDBRANCH   8   4
ENDBRANCH  11  10
TORSDOF 3
ENDMDL
MODEL 2
REMARK VINA RESULT:     -10.5      1.333      3.429
REMARK  Name = 
REMARK  3 active torsions:
REMARK  status: ('A' for Active; 'I' for Inactive)
REMARK    1  A    between atoms: C_4  and  C_8
REMARK    2  A    between atoms: N_10  and  C_11
REMARK    3  A    between atoms: C_17  and  C_18
REMARK                            x       y       z     vdW  Elec       q    Type
REMARK                         _______ _______ _______ _____ _____    ______ ____
ROOT
ATOM     11  C   UNL     1      -3.866   1.098  24.924  0.00  0.00    +0.133 C 
ATOM     12  C   UNL     1      -4.359   1.759  24.905  0.00  0.00    +0.202 C 
ATOM     13  O   UNL     1      -4.115   2.546  24.938  0.00  0.00    -0.219 OA
ATOM     14  C   UNL     1      -5.138   1.494  24.848  0.00  0.00    +0.184 C 
ATOM     15  O   UNL     1      -5.811   1.971  24.813  0.00  0.00    -0.220 OA
ATOM     16  C   UNL     1      -5.127   0.669  24.831  0.00  0.00    +0.042 C 
ATOM     17  C   UNL     1      -4.341   0.425  24.879  0.00  0.00    +0.049 C 
ENDROOT
BRANCH  17  18
ATOM     18  C   UNL     1      -4.076  -0.357  24.880  0.00  0.00    -0.002 A 
ATOM     19  C   UNL     1      -4.091  -0.800  24.184  0.00  0.00    -0.001 A 
ATOM     20  C   UNL     1      -3.826  -1.580  24.185  0.00  0.00    +0.020 A 
ATOM     21  C   UNL     1      -3.545  -1.919  24.883  0.00  0.00    +0.099 A 
ATOM     22  N   UNL     1      -3.530  -1.478  25.579  0.00  0.00    -0.243 NA
ATOM     23  C   UNL     1      -3.795  -0.696  25.578  0.00  0.00    +0.095 A 
ENDBRANCH  17  18
BRANCH  11  10
ATOM      8  C   UNL     1      -2.600   1.566  24.455  0.00  0.00    +0.284 C 
ATOM      9  O   UNL     1      -2.981   2.014  23.876  0.00  0.00    -0.267 OA
ATOM     10  N   UNL     1      -3.043   1.108  24.979  0.00  0.00    -0.199 NA
BRANCH   8   4
ATOM      1  C   UNL     1       0.210   1.069  23.917  0.00  0.00    +0.153 C 
ATOM      2  N   UNL     1      -0.485   1.348  24.263  0.00  0.00    -0.253 N 
ATOM      3  N   UNL     1      -1.252   1.187  24.006  0.00  0.00    -0.165 NA
ATOM      4  C   UNL     1      -1.776   1.576  24.510  0.00  0.00    +0.157 A 
ATOM      5  C   UNL     1      -1.333   1.977  25.079  0.00  0.00    +0.040 A 
ATOM      6  C   UNL     1      -0.535   1.837  24.926  0.00  0.00    +0.058 A 
ATOM      7  C   UNL     1       0.101   2.132  25.360  0.00  0.00    +0.052 C 
ENDBRANCH   8   4
ENDBRANCH  11  10
TORSDOF 3
ENDMDL
MODEL 3
REMARK VINA RESULT:     -10.1      2.693      3.448
REMARK  Name = 
REMARK  3 active torsions:
REMARK  status: ('A' for Active; 'I' for Inactive)
REMARK    1  A    between atoms: C_4  and  C_8
REMARK    2  A    between atoms: N_10  and  C_11
REMARK    3  A    between atoms: C_17  and  C_18
REMARK                            x       y       z     vdW  Elec       q    Type
REMARK                         _______ _______ _______ _____ _____    ______ ____
ROOT
ATOM     11  C   UNL     1      -1.823   3.250  24.913  0.00  0.00    +0.133 C 
ATOM     12  C   UNL     1      -1.260   3.835  25.059  0.00  0.00    +0.202 C 
ATOM     13  O   UNL     1      -0.444   3.726  25.086  0.00  0.00    -0.219 OA
ATOM     14  C   UNL     1      -1.660   4.549  25.171  0.00  0.00    +0.184 C 
ATOM     15  O   UNL     1      -1.310   5.279  25.332  0.00  0.00    -0.220 OA
ATOM     16  C   UNL     1      -2.468   4.404  25.096  0.00  0.00    +0.042 C 
ATOM     17  C   UNL     1      -2.569   3.601  24.937  0.00  0.00    +0.049 C 
ENDROOT
BRANCH  17  18
ATOM     18  C   UNL     1      -3.290   3.217  24.821  0.00  0.00    -0.002 A 
ATOM     19  C   UNL     1      -3.530   3.010  24.059  0.00  0.00    -0.001 A 
ATOM     20  C   UNL     1      -4.250   2.626  23.942  0.00  0.00    +0.020 A 
ATOM     21  C   UNL     1      -4.731   2.449  24.589  0.00  0.00    +0.099 A 
ATOM     22  N   UNL     1      -4.493   2.655  25.350  0.00  0.00    -0.243 NA
ATOM     23  C   UNL     1      -3.771   3.039  25.466  0.00  0.00    +0.095 A 
ENDBRANCH  17  18
BRANCH  11  10
ATOM      8  C   UNL     1      -1.195   2.024  25.293  0.00  0.00    +0.284 C 
ATOM      9  O   UNL     1      -0.878   2.393  25.960  0.00  0.00    -0.267 OA
ATOM     10  N   UNL     1      -1.667   2.453  24.770  0.00  0.00    -0.199 NA
BRANCH   8   4
ATOM      1  C   UNL     1      -0.225  -0.425  24.069  0.00  0.00    +0.153 C 
ATOM      2  N   UNL     1      -0.593   0.101  24.588  0.00  0.00    -0.253 N 
ATOM      3  N   UNL     1      -0.615   0.922  24.512  0.00  0.00    -0.165 NA
ATOM      4  C   UNL     1      -1.038   1.226  25.150  0.00  0.00    +0.157 A 
ATOM      5  C   UNL     1      -1.279   0.593  25.622  0.00  0.00    +0.040 A 
ATOM      6  C   UNL     1      -1.004  -0.103  25.274  0.00  0.00    +0.058 A 
ATOM      7  C   UNL     1      -1.119  -0.867  25.562  0.00  0.00    +0.052 C 
ENDBRANCH   8   4
ENDBRANCH  11  10
TORSDOF 3
ENDMDL
MODEL 4
REMARK VINA RESULT:     -10.0      2.192      4.102
REMARK  Name = 
REMARK  3 active torsions:
REMARK  status: ('A' for Active; 'I' for Inactive)
REMARK    1  A    between atoms: C_4  and  C_8
REMARK    2  A    between atoms: N_10  and  C_11
REMARK    3  A    between atoms: C_17  and  C_18
REMARK                            x       y       z     vdW  Elec       q    Type
REMARK                         _______ _______ _______ _____ _____    ______ ____
ROOT
ATOM     11  C   UNL     1      -2.675  -0.575  24.670  0.00  0.00    +0.133 C 
ATOM     12  C   UNL     1      -2.485  -1.377  24.689  0.00  0.00    +0.202 C 
ATOM     13  O   UNL     1      -1.725  -1.696  24.689  0.00  0.00    -0.219 OA
ATOM     14  C   UNL     1      -3.191  -1.804  24.708  0.00  0.00    +0.184 C 
ATOM     15  O   UNL     1      -3.259  -2.627  24.730  0.00  0.00    -0.220 OA
ATOM     16  C   UNL     1      -3.816  -1.266  24.701  0.00  0.00    +0.042 C 
ATOM     17  C   UNL     1      -3.497  -0.506  24.677  0.00  0.00    +0.049 C 
ENDROOT
BRANCH  17  18
ATOM     18  C   UNL     1      -3.925   0.199  24.663  0.00  0.00    -0.002 A 
ATOM     19  C   UNL     1      -4.391   0.412  25.310  0.00  0.00    -0.001 A 
ATOM     20  C   UNL     1      -4.819   1.117  25.297  0.00  0.00    +0.020 A 
ATOM     21  C   UNL     1      -4.781   1.609  24.635  0.00  0.00    +0.099 A 
ATOM     22  N   UNL     1      -4.316   1.397  23.989  0.00  0.00    -0.243 NA
ATOM     23  C   UNL     1      -3.888   0.692  24.002  0.00  0.00    +0.095 A 
ENDBRANCH  17  18
BRANCH  11  10
ATOM      8  C   UNL     1      -1.548   0.109  25.223  0.00  0.00    +0.284 C 
ATOM      9  O   UNL     1      -1.498  -0.459  25.820  0.00  0.00    -0.267 OA
ATOM     10  N   UNL     1      -2.137   0.050  24.648  0.00  0.00    -0.199 NA
BRANCH   8   4
ATOM      1  C   UNL     1       0.521   1.942  24.333  0.00  0.00    +0.153 C 
ATOM      2  N   UNL     1      -0.059   1.576  24.792  0.00  0.00    -0.253 N 
ATOM      3  N   UNL     1      -0.495   0.909  24.581  0.00  0.00    -0.165 NA
ATOM      4  C   UNL     1      -1.009   0.734  25.201  0.00  0.00    +0.157 A 
ATOM      5  C   UNL     1      -0.891   1.293  25.796  0.00  0.00    +0.040 A 
ATOM      6  C   UNL     1      -0.304   1.813  25.543  0.00  0.00    +0.058 A 
ATOM      7  C   UNL     1      -0.012   2.458  25.967  0.00  0.00    +0.052 C 
ENDBRANCH   8   4
ENDBRANCH  11  10
TORSDOF 3
ENDMDL
MODEL 5
REMARK VINA RESULT:     -10.0      1.715      3.781
REMARK  Name = 
REMARK  3 active torsions:
REMARK  status: ('A' for Active; 'I' for Inactive)
REMARK    1  A    between atoms: C_4  and  C_8
REMARK    2  A    between atoms: N_10  and  C_11
REMARK    3  A    between atoms: C_17  and  C_18
REMARK                            x       y       z     vdW  Elec       q    Type
REMARK                         _______ _______ _______ _____ _____    ______ ____
ROOT
ATOM     11  C   UNL     1      -3.392  -0.952  24.399  0.00  0.00    +0.133 C 
ATOM     12  C   UNL     1      -3.936  -1.542  24.207  0.00  0.00    +0.202 C 
ATOM     13  O   UNL     1      -4.697  -1.422  23.915  0.00  0.00    -0.219 OA
ATOM     14  C   UNL     1      -3.583  -2.272  24.359  0.00  0.00    +0.184 C 
ATOM     15  O   UNL     1      -3.932  -3.012  24.246  0.00  0.00    -0.220 OA
ATOM     16  C   UNL     1      -2.822  -2.134  24.645  0.00  0.00    +0.042 C 
ATOM     17  C   UNL     1      -2.704  -1.318  24.669  0.00  0.00    +0.049 C 
ENDROOT
BRANCH  17  18
ATOM     18  C   UNL     1      -2.017  -0.935  24.920  0.00  0.00    -0.002 A 
ATOM     19  C   UNL     1      -1.867  -0.843  25.726  0.00  0.00    -0.001 A 
ATOM     20  C   UNL     1      -1.181  -0.460  25.977  0.00  0.00    +0.020 A 
ATOM     21  C   UNL     1      -0.645  -0.169  25.421  0.00  0.00    +0.099 A 
ATOM     22  N   UNL     1      -0.795  -0.260  24.616  0.00  0.00    -0.243 NA
ATOM     23  C   UNL     1      -1.481  -0.643  24.365  0.00  0.00    +0.095 A 
ENDBRANCH  17  18
BRANCH  11  10
ATOM      8  C   UNL     1      -4.153   0.215  24.717  0.00  0.00    +0.284 C 
ATOM      9  O   UNL     1      -4.668  -0.245  25.169  0.00  0.00    -0.267 OA
ATOM     10  N   UNL     1      -3.515  -0.139  24.332  0.00  0.00    -0.199 NA
BRANCH   8   4
ATOM      1  C   UNL     1      -4.019   2.961  23.782  0.00  0.00    +0.153 C 
ATOM      2  N   UNL     1      -4.214   2.290  24.221  0.00  0.00    -0.253 N 
ATOM      3  N   UNL     1      -3.943   1.524  24.082  0.00  0.00    -0.165 NA
ATOM      4  C   UNL     1      -4.276   1.029  24.650  0.00  0.00    +0.157 A 
ATOM      5  C   UNL     1      -4.754   1.488  25.141  0.00  0.00    +0.040 A 
ATOM      6  C   UNL     1      -4.716   2.268  24.876  0.00  0.00    +0.058 A 
ATOM      7  C   UNL     1      -5.110   2.912  25.206  0.00  0.00    +0.052 C 
ENDBRANCH   8   4
ENDBRANCH  11  10
TORSDOF 3
ENDMDL
MODEL 6
REMARK VINA RESULT:      -9.9      1.818      2.338
REMARK  Name = 
REMARK  3 active torsions:
REMARK  status: ('A' for Active; 'I' for Inactive)
REMARK    1  A    between atoms: C_4  and  C_8
REMARK    2  A    between atoms: N_10  and  C_11
REMARK    3  A    between atoms: C_17  and  C_18
REMARK                            x       y       z     vdW  Elec       q    Type
REMARK                         _______ _______ _______ _____ _____    ______ ____
ROOT
ATOM     11  C   UNL     1      -4.041   1.862  25.010  0.00  0.00    +0.133 C 
ATOM     12  C   UNL     1      -4.775   1.498  24.908  0.00  0.00    +0.202 C 
ATOM     13  O   UNL     1      -4.906   0.688  24.828  0.00  0.00    -0.219 OA
ATOM     14  C   UNL     1      -5.352   2.087  24.901  0.00  0.00    +0.184 C 
ATOM     15  O   UNL     1      -6.164   1.969  24.813  0.00  0.00    -0.220 OA
ATOM     16  C   UNL     1      -4.976   2.815  24.998  0.00  0.00    +0.042 C 
ATOM     17  C   UNL     1      -4.166   2.676  25.065  0.00  0.00    +0.049 C 
ENDROOT
BRANCH  17  18
ATOM     18  C   UNL     1      -3.583   3.250  25.170  0.00  0.00    -0.002 A 
ATOM     19  C   UNL     1      -3.296   3.415  25.926  0.00  0.00    -0.001 A 
ATOM     20  C   UNL     1      -2.713   3.989  26.030  0.00  0.00    +0.020 A 
ATOM     21  C   UNL     1      -2.417   4.398  25.378  0.00  0.00    +0.099 A 
ATOM     22  N   UNL     1      -2.702   4.234  24.623  0.00  0.00    -0.243 NA
ATOM     23  C   UNL     1      -3.286   3.660  24.518  0.00  0.00    +0.095 A 
ENDBRANCH  17  18
BRANCH  11  10
ATOM      8  C   UNL     1      -3.087   0.956  24.452  0.00  0.00    +0.284 C 
ATOM      9  O   UNL     1      -3.595   0.814  23.817  0.00  0.00    -0.267 OA
ATOM     10  N   UNL     1      -3.311   1.480  25.049  0.00  0.00    -0.199 NA
BRANCH   8   4
ATOM      1  C   UNL     1      -0.327   0.215  23.939  0.00  0.00    +0.153 C 
ATOM      2  N   UNL     1      -1.089   0.233  24.255  0.00  0.00    -0.253 N 
ATOM      3  N   UNL     1      -1.693   0.750  24.036  0.00  0.00    -0.165 NA
ATOM      4  C   UNL     1      -2.357   0.573  24.491  0.00  0.00    +0.157 A 
ATOM      5  C   UNL     1      -2.164  -0.053  24.992  0.00  0.00    +0.040 A 
ATOM      6  C   UNL     1      -1.380  -0.263  24.847  0.00  0.00    +0.058 A 
ATOM      7  C   UNL     1      -0.961  -0.864  25.225  0.00  0.00    +0.052 C 
ENDBRANCH   8   4
ENDBRANCH  11  10
TORSDOF 3
ENDMDL
MODEL 7
REMARK VINA RESULT:      -9.8      1.918      4.033
REMARK  Name = 
REMARK  3 active torsions:
REMARK  status: ('A' for Active; 'I' for Inactive)
REMARK    1  A    between atoms: C_4  and  C_8
REMARK    2  A    between atoms: N_10  and  C_11
REMARK    3  A    between atoms: C_17  and  C_18
REMARK                            x       y       z     vdW  Elec       q    Type
REMARK                         _______ _______ _______ _____ _____    ______ ____
ROOT
ATOM     11  C   UNL     1      -2.176   0.542  24.716  0.00  0.00    +0.133 C 
ATOM     12  C   UNL     1      -1.502   0.930  24.442  0.00  0.00    +0.202 C 
ATOM     13  O   UNL     1      -1.408   1.746  24.374  0.00  0.00    -0.219 OA
ATOM     14  C   UNL     1      -0.941   0.358  24.247  0.00  0.00    +0.184 C 
ATOM     15  O   UNL     1      -0.185   0.503  23.950  0.00  0.00    -0.220 OA
ATOM     16  C   UNL     1      -1.267  -0.384  24.400  0.00  0.00    +0.042 C 
ATOM     17  C   UNL     1      -2.031  -0.271  24.691  0.00  0.00    +0.049 C 
ENDROOT
BRANCH  17  18
ATOM     18  C   UNL     1      -2.557  -0.865  24.916  0.00  0.00    -0.002 A 
ATOM     19  C   UNL     1      -2.918  -1.336  24.343  0.00  0.00    -0.001 A 
ATOM     20  C   UNL     1      -3.444  -1.930  24.568  0.00  0.00    +0.020 A 
ATOM     21  C   UNL     1      -3.609  -2.053  25.367  0.00  0.00    +0.099 A 
ATOM     22  N   UNL     1      -3.250  -1.582  25.940  0.00  0.00    -0.243 NA
ATOM     23  C   UNL     1      -2.723  -0.988  25.715  0.00  0.00    +0.095 A 
ENDBRANCH  17  18
BRANCH  11  10
ATOM      8  C   UNL     1      -3.270   1.429  24.477  0.00  0.00    +0.284 C 
ATOM      9  O   UNL     1      -2.969   1.597  23.727  0.00  0.00    -0.267 OA
ATOM     10  N   UNL     1      -2.873   0.901  24.971  0.00  0.00    -0.199 NA
BRANCH   8   4
ATOM      1  C   UNL     1      -5.126   3.271  25.742  0.00  0.00    +0.153 C 
ATOM      2  N   UNL     1      -4.820   2.635  25.313  0.00  0.00    -0.253 N 
ATOM      3  N   UNL     1      -4.021   2.474  25.188  0.00  0.00    -0.165 NA
ATOM      4  C   UNL     1      -3.968   1.789  24.732  0.00  0.00    +0.157 A 
ATOM      5  C   UNL     1      -4.734   1.527  24.575  0.00  0.00    +0.040 A 
ATOM      6  C   UNL     1      -5.261   2.050  24.934  0.00  0.00    +0.058 A 
ATOM      7  C   UNL     1      -6.084   1.997  24.917  0.00  0.00    +0.052 C 
ENDBRANCH   8   4
ENDBRANCH  11  10
TORSDOF 3
ENDMDL
