REMARK  Name = 
REMARK  6 active torsions:
REMARK  status: ('A' for Active; 'I' for Inactive)
REMARK    1  A    between atoms: O_2  and  C_3
REMARK    2  A    between atoms: C_6  and  C_7
REMARK    3  A    between atoms: C_7  and  N_8
REMARK    4  A    between atoms: C_12  and  C_13
REMARK    5  A    between atoms: C_15  and  C_18
REMARK    6  A    between atoms: C_21  and  N_24
REMARK                            x       y       z     vdW  Elec       q    Type
REMARK                         _______ _______ _______ _____ _____    ______ ____
ROOT
ATOM     13  C   UNL     1      -2.047  -5.745   0.000  0.00  0.00    +0.251 A 
ATOM     14  N   UNL     1      -2.715  -6.230   0.000  0.00  0.00    -0.190 NA
ATOM     15  C   UNL     1      -3.382  -5.745   0.000  0.00  0.00    +0.205 A 
ATOM     16  N   UNL     1      -3.127  -4.961   0.000  0.00  0.00    -0.056 NA
ATOM     17  O   UNL     1      -2.303  -4.961   0.000  0.00  0.00    -0.336 OA
ENDROOT
BRANCH  15  18
ATOM     18  C   UNL     1      -4.167  -6.000   0.000  0.00  0.00    +0.058 A 
ATOM     19  C   UNL     1      -4.338  -6.807   0.000  0.00  0.00    +0.008 A 
ATOM     20  C   UNL     1      -5.123  -7.062   0.000  0.00  0.00    +0.034 A 
ATOM     21  C   UNL     1      -5.736  -6.510   0.000  0.00  0.00    +0.132 A 
ATOM     22  N   UNL     1      -5.565  -5.703   0.000  0.00  0.00    -0.229 NA
ATOM     23  C   UNL     1      -4.780  -5.448   0.000  0.00  0.00    +0.103 A 
BRANCH  21  24
ATOM     24  N   UNL     1      -6.521  -6.765   0.000  0.00  0.00    -0.290 N 
ATOM     25  C   UNL     1      -6.692  -7.572   0.000  0.00  0.00    +0.109 C 
ATOM     26  C   UNL     1      -7.477  -7.827   0.000  0.00  0.00    +0.094 C 
ATOM     27  N   UNL     1      -8.090  -7.275   0.000  0.00  0.00    -0.269 NA
ATOM     28  C   UNL     1      -8.875  -7.530   0.000  0.00  0.00    +0.090 C 
ATOM     29  C   UNL     1      -7.919  -6.468   0.000  0.00  0.00    +0.094 C 
ATOM     30  C   UNL     1      -7.134  -6.213   0.000  0.00  0.00    +0.109 C 
ENDBRANCH  21  24
ENDBRANCH  15  18
BRANCH  13  12
ATOM      8  N   UNL     1      -0.596  -5.516   0.000  0.00  0.00    -0.263 NA
ATOM      9  C   UNL     1       0.072  -6.000   0.000  0.00  0.00    +0.073 C 
ATOM     10  C   UNL     1      -0.183  -6.785   0.000  0.00  0.00    +0.019 C 
ATOM     11  C   UNL     1      -1.008  -6.785   0.000  0.00  0.00    +0.027 C 
ATOM     12  C   UNL     1      -1.263  -6.000   0.000  0.00  0.00    +0.138 C 
BRANCH   8   7
ATOM      7  C   UNL     1      -0.596  -4.691   0.000  0.00  0.00    +0.099 C 
BRANCH   7   6
ATOM      3  C   UNL     1       1.548  -3.453   0.000  0.00  0.00    +0.139 A 
ATOM      4  C   UNL     1       1.548  -4.278   0.000  0.00  0.00    +0.037 A 
ATOM      5  C   UNL     1       0.834  -4.691   0.000  0.00  0.00    +0.000 A 
ATOM      6  C   UNL     1       0.119  -4.278   0.000  0.00  0.00    -0.006 A 
ATOM     31  C   UNL     1       0.119  -3.453   0.000  0.00  0.00    +0.000 A 
ATOM     32  C   UNL     1       0.834  -3.041   0.000  0.00  0.00    +0.037 A 
BRANCH   3   2
ATOM      1  C   UNL     1       2.262  -2.216   0.000  0.00  0.00    +0.252 C 
ATOM      2  O   UNL     1       2.262  -3.041   0.000  0.00  0.00    -0.471 OA
ENDBRANCH   3   2
ENDBRANCH   7   6
ENDBRANCH   8   7
ENDBRANCH  13  12
TORSDOF 6
