REMARK  Name = 
REMARK  10 active torsions:
REMARK  status: ('A' for Active; 'I' for Inactive)
REMARK    1  A    between atoms: O_2  and  C_3
REMARK    2  A    between atoms: C_3  and  C_4
REMARK    3  A    between atoms: C_9  and  N_29
REMARK    4  A    between atoms: C_11  and  C_12
REMARK    5  A    between atoms: N_14  and  C_15
REMARK    6  A    between atoms: C_15  and  C_16
REMARK    7  A    between atoms: C_15  and  C_26
REMARK    8  A    between atoms: C_16  and  C_17
REMARK    9  A    between atoms: C_32  and  C_33
REMARK   10  A    between atoms: C_36  and  C_37
REMARK                            x       y       z     vdW  Elec       q    Type
REMARK                         _______ _______ _______ _____ _____    ______ ____
ROOT
ATOM      4  C   UNL     1      -2.522   2.666   0.000  0.00  0.00    +0.256 C 
ATOM      5  O   UNL     1      -3.329   2.838   0.000  0.00  0.00    -0.272 OA
ATOM      6  N   UNL     1      -1.970   3.280   0.000  0.00  0.00    -0.271 N 
ATOM      7  C   UNL     1      -2.225   4.064   0.000  0.00  0.00    +0.096 C 
ATOM      8  C   UNL     1      -1.673   4.677   0.000  0.00  0.00    +0.046 C 
ATOM      9  C   UNL     1      -0.866   4.506   0.000  0.00  0.00    +0.111 C 
ATOM     10  C   UNL     1      -0.611   3.721   0.000  0.00  0.00    +0.054 C 
ATOM     11  C   UNL     1      -1.163   3.108   0.000  0.00  0.00    +0.155 C 
ENDROOT
BRANCH   9  29
ATOM     29  N   UNL     1      -0.314   5.119   0.000  0.00  0.00    -0.229 N 
ATOM     30  N   UNL     1      -0.486   5.926   0.000  0.00  0.00    -0.064 NA
ATOM     31  N   UNL     1       0.229   6.338   0.000  0.00  0.00    -0.124 NA
ATOM     32  C   UNL     1       0.842   5.786   0.000  0.00  0.00    +0.183 A 
ATOM     36  C   UNL     1       0.506   5.033   0.000  0.00  0.00    +0.160 A 
BRANCH  32  33
ATOM     33  C   UNL     1       1.649   5.958   0.000  0.00  0.00    +0.305 C 
ATOM     34  N   UNL     1       1.904   6.742   0.000  0.00  0.00    -0.082 NA
ATOM     35  O   UNL     1       2.201   5.345   0.000  0.00  0.00    -0.265 OA
ENDBRANCH  32  33
BRANCH  36  37
ATOM     37  C   UNL     1       0.919   4.318   0.000  0.00  0.00    +0.303 C 
ATOM     38  N   UNL     1       0.506   3.604   0.000  0.00  0.00    -0.082 NA
ATOM     39  O   UNL     1       1.744   4.318   0.000  0.00  0.00    -0.265 OA
ENDBRANCH  36  37
ENDBRANCH   9  29
BRANCH  11  12
ATOM     12  C   UNL     1      -0.908   2.323   0.000  0.00  0.00    +0.260 C 
ATOM     13  O   UNL     1      -0.101   2.152   0.000  0.00  0.00    -0.272 OA
ATOM     14  N   UNL     1      -1.460   1.710   0.000  0.00  0.00    -0.196 NA
BRANCH  14  15
ATOM     15  C   UNL     1      -1.205   0.926   0.000  0.00  0.00    +0.179 C 
BRANCH  15  26
ATOM     26  C   UNL     1      -1.758   0.313   0.000  0.00  0.00    +0.281 C 
ATOM     27  N   UNL     1      -2.564   0.484   0.000  0.00  0.00    -0.086 NA
ATOM     28  O   UNL     1      -1.502  -0.472   0.000  0.00  0.00    -0.270 OA
ENDBRANCH  15  26
BRANCH  15  16
ATOM     16  C   UNL     1      -0.398   0.754   0.000  0.00  0.00    +0.059 C 
BRANCH  16  17
ATOM     17  C   UNL     1      -0.143  -0.030   0.000  0.00  0.00    +0.001 A 
ATOM     18  C   UNL     1      -0.628  -0.698   0.000  0.00  0.00    +0.095 A 
ATOM     19  N   UNL     1      -0.143  -1.365   0.000  0.00  0.00    -0.244 NA
ATOM     20  C   UNL     1       0.641  -1.110   0.000  0.00  0.00    +0.081 A 
ATOM     21  C   UNL     1       0.641  -0.285   0.000  0.00  0.00    +0.015 A 
ATOM     22  C   UNL     1       1.356   0.127   0.000  0.00  0.00    +0.001 A 
ATOM     23  C   UNL     1       2.070  -0.285   0.000  0.00  0.00    +0.000 A 
ATOM     24  C   UNL     1       2.070  -1.110   0.000  0.00  0.00    +0.002 A 
ATOM     25  C   UNL     1       1.356  -1.523   0.000  0.00  0.00    +0.019 A 
ENDBRANCH  16  17
ENDBRANCH  15  16
ENDBRANCH  14  15
ENDBRANCH  11  12
BRANCH   4   3
ATOM      3  C   UNL     1      -2.267   1.882   0.000  0.00  0.00    +0.227 C 
BRANCH   3   2
ATOM      1  C   UNL     1      -3.626   1.440   0.000  0.00  0.00    +0.175 C 
ATOM      2  O   UNL     1      -2.819   1.269   0.000  0.00  0.00    -0.342 OA
ENDBRANCH   3   2
ENDBRANCH   4   3
TORSDOF 10
