REMARK  Name = 
REMARK  6 active torsions:
REMARK  status: ('A' for Active; 'I' for Inactive)
REMARK    1  A    between atoms: O_2  and  C_3
REMARK    2  A    between atoms: C_3  and  C_4
REMARK    3  A    between atoms: N_6  and  C_7
REMARK    4  A    between atoms: C_7  and  C_8
REMARK    5  A    between atoms: C_10  and  C_11
REMARK    6  A    between atoms: C_11  and  C_12
REMARK                            x       y       z     vdW  Elec       q    Type
REMARK                         _______ _______ _______ _____ _____    ______ ____
ROOT
ATOM      8  C   UNL     1      12.704  -1.411   0.000  0.00  0.00    +0.170 C 
ATOM      9  O   UNL     1      13.457  -1.075   0.000  0.00  0.00    -0.351 OA
ATOM     10  C   UNL     1      14.009  -1.688   0.000  0.00  0.00    +0.157 C 
ATOM     23  C   UNL     1      13.597  -2.403   0.000  0.00  0.00    +0.212 C 
ATOM     24  O   UNL     1      13.933  -3.157   0.000  0.00  0.00    -0.218 OA
ATOM     25  C   UNL     1      12.790  -2.231   0.000  0.00  0.00    +0.213 C 
ATOM     26  O   UNL     1      12.177  -2.783   0.000  0.00  0.00    -0.218 OA
ENDROOT
BRANCH   8   7
ATOM      7  C   UNL     1      11.989  -0.998   0.000  0.00  0.00    +0.147 C 
BRANCH   7   6
ATOM      4  C   UNL     1      10.560  -0.998   0.000  0.00  0.00    +0.272 C 
ATOM      5  O   UNL     1      10.560  -0.173   0.000  0.00  0.00    -0.271 OA
ATOM      6  N   UNL     1      11.275  -1.411   0.000  0.00  0.00    -0.201 NA
BRANCH   4   3
ATOM      3  C   UNL     1       9.846  -1.411   0.000  0.00  0.00    +0.229 C 
BRANCH   3   2
ATOM      1  C   UNL     1       8.417  -1.411   0.000  0.00  0.00    +0.175 C 
ATOM      2  O   UNL     1       9.132  -0.998   0.000  0.00  0.00    -0.342 OA
ENDBRANCH   3   2
ENDBRANCH   4   3
ENDBRANCH   7   6
ENDBRANCH   8   7
BRANCH  10  11
ATOM     11  C   UNL     1      14.830  -1.602   0.000  0.00  0.00    +0.118 C 
BRANCH  11  12
ATOM     12  C   UNL     1      15.315  -2.270   0.000  0.00  0.00    +0.232 C 
ATOM     13  O   UNL     1      14.979  -3.023   0.000  0.00  0.00    -0.274 OA
ATOM     14  N   UNL     1      16.135  -2.183   0.000  0.00  0.00    -0.259 N 
ATOM     15  C   UNL     1      16.548  -1.469   0.000  0.00  0.00    +0.103 C 
ATOM     16  C   UNL     1      17.355  -1.641   0.000  0.00  0.00    +0.049 C 
ATOM     17  C   UNL     1      17.441  -2.461   0.000  0.00  0.00    -0.007 A 
ATOM     18  C   UNL     1      18.109  -2.946   0.000  0.00  0.00    -0.003 A 
ATOM     19  C   UNL     1      18.022  -3.766   0.000  0.00  0.00    -0.000 A 
ATOM     20  C   UNL     1      17.269  -4.102   0.000  0.00  0.00    +0.001 A 
ATOM     21  C   UNL     1      16.601  -3.617   0.000  0.00  0.00    +0.015 A 
ATOM     22  C   UNL     1      16.688  -2.796   0.000  0.00  0.00    +0.050 A 
ENDBRANCH  11  12
ENDBRANCH  10  11
TORSDOF 6
