REMARK  Name = 
REMARK  8 active torsions:
REMARK  status: ('A' for Active; 'I' for Inactive)
REMARK    1  A    between atoms: N_2  and  C_4
REMARK    2  A    between atoms: C_7  and  C_10
REMARK    3  A    between atoms: N_12  and  C_13
REMARK    4  A    between atoms: C_18  and  C_19
REMARK    5  A    between atoms: C_19  and  C_20
REMARK    6  A    between atoms: C_20  and  C_21
REMARK    7  A    between atoms: N_23  and  C_24
REMARK    8  A    between atoms: C_24  and  C_25
REMARK                            x       y       z     vdW  Elec       q    Type
REMARK                         _______ _______ _______ _____ _____    ______ ____
ROOT
ATOM     13  C   UNL     1      -3.135   2.131   0.000  0.00  0.00    +0.113 C 
ATOM     14  C   UNL     1      -3.471   1.377   0.000  0.00  0.00    +0.048 C 
ATOM     15  C   UNL     1      -2.858   0.825   0.000  0.00  0.00    +0.138 C 
ATOM     16  N   UNL     1      -2.143   1.238   0.000  0.00  0.00    -0.265 NA
ATOM     17  C   UNL     1      -2.315   2.045   0.000  0.00  0.00    +0.094 C 
ATOM     18  C   UNL     1      -1.429   0.825   0.000  0.00  0.00    +0.080 C 
ATOM     31  C   UNL     1      -1.429   0.000   0.000  0.00  0.00    +0.131 C 
ATOM     32  N   UNL     1      -2.143  -0.412   0.000  0.00  0.00    -0.203 NA
ATOM     33  C   UNL     1      -2.858   0.000   0.000  0.00  0.00    +0.256 C 
ATOM     34  O   UNL     1      -3.572  -0.412   0.000  0.00  0.00    -0.272 OA
ENDROOT
BRANCH  13  12
ATOM     10  C   UNL     1      -4.373   2.845   0.000  0.00  0.00    +0.265 C 
ATOM     11  O   UNL     1      -4.785   2.131   0.000  0.00  0.00    -0.268 OA
ATOM     12  N   UNL     1      -3.548   2.845   0.000  0.00  0.00    -0.202 NA
BRANCH  10   7
ATOM      4  C   UNL     1      -5.610   4.989   0.000  0.00  0.00    +0.048 A 
ATOM      5  C   UNL     1      -4.785   4.989   0.000  0.00  0.00    +0.015 A 
ATOM      6  C   UNL     1      -4.373   4.274   0.000  0.00  0.00    +0.006 A 
ATOM      7  C   UNL     1      -4.785   3.560   0.000  0.00  0.00    +0.055 A 
ATOM      8  C   UNL     1      -5.610   3.560   0.000  0.00  0.00    +0.006 A 
ATOM      9  C   UNL     1      -6.023   4.274   0.000  0.00  0.00    +0.015 A 
BRANCH   4   2
ATOM      1  C   UNL     1      -6.848   5.703   0.000  0.00  0.00    +0.112 C 
ATOM      2  N   UNL     1      -6.023   5.703   0.000  0.00  0.00    -0.304 N 
ATOM      3  C   UNL     1      -5.610   6.418   0.000  0.00  0.00    +0.112 C 
ENDBRANCH   4   2
ENDBRANCH  10   7
ENDBRANCH  13  12
BRANCH  18  19
ATOM     19  C   UNL     1      -0.715   1.238   0.000  0.00  0.00    +0.027 C 
BRANCH  19  20
ATOM     20  C   UNL     1       0.000   0.825   0.000  0.00  0.00    +0.088 C 
BRANCH  20  21
ATOM     21  C   UNL     1       0.715   1.238   0.000  0.00  0.00    +0.242 C 
ATOM     22  O   UNL     1       0.715   2.062   0.000  0.00  0.00    -0.273 OA
ATOM     23  N   UNL     1       1.429   0.825   0.000  0.00  0.00    -0.200 NA
BRANCH  23  24
ATOM     24  C   UNL     1       2.143   1.238   0.000  0.00  0.00    +0.143 C 
BRANCH  24  25
ATOM     25  C   UNL     1       2.858   0.825   0.000  0.00  0.00    +0.019 A 
ATOM     26  C   UNL     1       3.572   1.238   0.000  0.00  0.00    +0.096 A 
ATOM     27  N   UNL     1       4.287   0.825   0.000  0.00  0.00    -0.243 NA
ATOM     28  C   UNL     1       4.287   0.000   0.000  0.00  0.00    +0.099 A 
ATOM     29  C   UNL     1       3.572  -0.412   0.000  0.00  0.00    +0.020 A 
ATOM     30  C   UNL     1       2.858   0.000   0.000  0.00  0.00    +0.001 A 
ENDBRANCH  24  25
ENDBRANCH  23  24
ENDBRANCH  20  21
ENDBRANCH  19  20
ENDBRANCH  18  19
TORSDOF 8
