MODEL 1
REMARK VINA RESULT:     -11.0      0.000      0.000
REMARK  Name = 
REMARK  6 active torsions:
REMARK  status: ('A' for Active; 'I' for Inactive)
REMARK    1  A    between atoms: C_2  and  C_4
REMARK    2  A    between atoms: C_8  and  N_9
REMARK    3  A    between atoms: N_12  and  C_13
REMARK    4  A    between atoms: C_17  and  O_21
REMARK    5  A    between atoms: O_21  and  C_22
REMARK    6  A    between atoms: N_24  and  C_25
REMARK                            x       y       z     vdW  Elec       q    Type
REMARK                         _______ _______ _______ _____ _____    ______ ____
ROOT
ATOM     13  C   UNL     1      -0.181   1.177  24.810  0.00  0.00    +0.156 C 
ATOM     14  C   UNL     1      -0.072   1.003  24.011  0.00  0.00    +0.166 C 
ATOM     15  O   UNL     1      -0.294   0.218  23.889  0.00  0.00    -0.348 OA
ATOM     16  C   UNL     1      -0.540  -0.093  24.611  0.00  0.00    +0.186 C 
ATOM     17  C   UNL     1      -0.830  -0.770  24.983  0.00  0.00    +0.229 C 
ATOM     18  C   UNL     1      -0.939  -0.597  25.782  0.00  0.00    +0.188 C 
ATOM     19  O   UNL     1      -0.717   0.188  25.904  0.00  0.00    -0.348 OA
ATOM     20  C   UNL     1      -0.470   0.500  25.181  0.00  0.00    +0.168 C 
ENDROOT
BRANCH  13  12
ATOM      9  N   UNL     1      -0.406   3.250  25.454  0.00  0.00    -0.161 NA
ATOM     10  C   UNL     1      -0.559   2.526  25.091  0.00  0.00    +0.344 C 
ATOM     11  O   UNL     1      -1.245   2.426  24.643  0.00  0.00    -0.249 OA
ATOM     12  N   UNL     1      -0.027   1.901  25.174  0.00  0.00    -0.184 NA
BRANCH   9   8
ATOM      4  C   UNL     1      -2.225   4.447  25.615  0.00  0.00    +0.036 A 
ATOM      5  C   UNL     1      -2.001   5.126  25.203  0.00  0.00    +0.003 A 
ATOM      6  C   UNL     1      -1.246   5.180  24.876  0.00  0.00    +0.001 A 
ATOM      7  C   UNL     1      -0.714   4.555  24.960  0.00  0.00    +0.017 A 
ATOM      8  C   UNL     1      -0.938   3.875  25.371  0.00  0.00    +0.075 A 
ATOM     31  C   UNL     1      -1.693   3.822  25.698  0.00  0.00    +0.019 A 
BRANCH   4   2
ATOM      1  C   UNL     1      -3.641   4.347  25.451  0.00  0.00    +0.077 C 
ATOM      2  C   UNL     1      -2.979   4.393  25.942  0.00  0.00    +0.174 C 
ATOM      3  O   UNL     1      -3.074   4.385  26.762  0.00  0.00    -0.291 OA
ENDBRANCH   4   2
ENDBRANCH   9   8
ENDBRANCH  13  12
BRANCH  17  21
ATOM     21  O   UNL     1      -0.984  -1.495  24.619  0.00  0.00    -0.432 OA
BRANCH  21  22
ATOM     22  C   UNL     1      -1.744  -1.816  24.643  0.00  0.00    +0.425 C 
ATOM     23  O   UNL     1      -2.013  -2.188  25.328  0.00  0.00    -0.224 OA
ATOM     24  N   UNL     1      -2.234  -1.765  23.982  0.00  0.00    -0.142 NA
BRANCH  24  25
ATOM     25  C   UNL     1      -2.994  -2.086  24.006  0.00  0.00    +0.077 A 
ATOM     26  C   UNL     1      -3.096  -2.898  24.104  0.00  0.00    +0.017 A 
ATOM     27  C   UNL     1      -3.855  -3.219  24.127  0.00  0.00    +0.001 A 
ATOM     28  C   UNL     1      -4.513  -2.727  24.053  0.00  0.00    +0.000 A 
ATOM     29  C   UNL     1      -4.411  -1.914  23.954  0.00  0.00    +0.001 A 
ATOM     30  C   UNL     1      -3.652  -1.594  23.931  0.00  0.00    +0.017 A 
ENDBRANCH  24  25
ENDBRANCH  21  22
ENDBRANCH  17  21
TORSDOF 6
ENDMDL
MODEL 2
REMARK VINA RESULT:     -10.7      1.887      6.466
REMARK  Name = 
REMARK  6 active torsions:
REMARK  status: ('A' for Active; 'I' for Inactive)
REMARK    1  A    between atoms: C_2  and  C_4
REMARK    2  A    between atoms: C_8  and  N_9
REMARK    3  A    between atoms: N_12  and  C_13
REMARK    4  A    between atoms: C_17  and  O_21
REMARK    5  A    between atoms: O_21  and  C_22
REMARK    6  A    between atoms: N_24  and  C_25
REMARK                            x       y       z     vdW  Elec       q    Type
REMARK                         _______ _______ _______ _____ _____    ______ ____
ROOT
ATOM     13  C   UNL     1      -4.562   0.818  24.605  0.00  0.00    +0.156 C 
ATOM     14  C   UNL     1      -4.749   0.981  25.391  0.00  0.00    +0.166 C 
ATOM     15  O   UNL     1      -4.602   1.781  25.527  0.00  0.00    -0.348 OA
ATOM     16  C   UNL     1      -4.325   2.113  24.825  0.00  0.00    +0.186 C 
ATOM     17  C   UNL     1      -4.063   2.812  24.474  0.00  0.00    +0.229 C 
ATOM     18  C   UNL     1      -3.876   2.649  23.688  0.00  0.00    +0.188 C 
ATOM     19  O   UNL     1      -4.022   1.849  23.552  0.00  0.00    -0.348 OA
ATOM     20  C   UNL     1      -4.300   1.517  24.255  0.00  0.00    +0.168 C 
ENDROOT
BRANCH  13  12
ATOM      9  N   UNL     1      -4.206  -1.275  24.099  0.00  0.00    -0.161 NA
ATOM     10  C   UNL     1      -4.142  -0.542  24.470  0.00  0.00    +0.344 C 
ATOM     11  O   UNL     1      -3.595  -0.432  25.078  0.00  0.00    -0.249 OA
ATOM     12  N   UNL     1      -4.625   0.084  24.233  0.00  0.00    -0.184 NA
BRANCH   9   8
ATOM      4  C   UNL     1      -2.422  -2.476  24.474  0.00  0.00    +0.036 A 
ATOM      5  C   UNL     1      -2.757  -3.152  24.808  0.00  0.00    +0.003 A 
ATOM      6  C   UNL     1      -3.575  -3.203  24.905  0.00  0.00    +0.001 A 
ATOM      7  C   UNL     1      -4.057  -2.577  24.669  0.00  0.00    +0.017 A 
ATOM      8  C   UNL     1      -3.722  -1.901  24.335  0.00  0.00    +0.075 A 
ATOM     31  C   UNL     1      -2.905  -1.851  24.238  0.00  0.00    +0.019 A 
BRANCH   4   2
ATOM      1  C   UNL     1      -1.121  -2.257  25.024  0.00  0.00    +0.077 C 
ATOM      2  C   UNL     1      -1.605  -2.426  24.377  0.00  0.00    +0.174 C 
ATOM      3  O   UNL     1      -1.269  -2.545  23.632  0.00  0.00    -0.291 OA
ENDBRANCH   4   2
ENDBRANCH   9   8
ENDBRANCH  13  12
BRANCH  17  21
ATOM     21  O   UNL     1      -3.999   3.546  24.846  0.00  0.00    -0.432 OA
BRANCH  21  22
ATOM     22  C   UNL     1      -3.324   4.008  24.735  0.00  0.00    +0.425 C 
ATOM     23  O   UNL     1      -3.255   4.483  24.065  0.00  0.00    -0.224 OA
ATOM     24  N   UNL     1      -2.718   3.994  25.295  0.00  0.00    -0.142 NA
BRANCH  24  25
ATOM     25  C   UNL     1      -2.043   4.455  25.184  0.00  0.00    +0.077 A 
ATOM     26  C   UNL     1      -2.096   5.277  25.213  0.00  0.00    +0.017 A 
ATOM     27  C   UNL     1      -1.422   5.738  25.103  0.00  0.00    +0.001 A 
ATOM     28  C   UNL     1      -0.693   5.377  24.963  0.00  0.00    +0.000 A 
ATOM     29  C   UNL     1      -0.640   4.554  24.934  0.00  0.00    +0.001 A 
ATOM     30  C   UNL     1      -1.315   4.093  25.045  0.00  0.00    +0.017 A 
ENDBRANCH  24  25
ENDBRANCH  21  22
ENDBRANCH  17  21
TORSDOF 6
ENDMDL
MODEL 3
REMARK VINA RESULT:     -10.6      3.013      5.167
REMARK  Name = 
REMARK  6 active torsions:
REMARK  status: ('A' for Active; 'I' for Inactive)
REMARK    1  A    between atoms: C_2  and  C_4
REMARK    2  A    between atoms: C_8  and  N_9
REMARK    3  A    between atoms: N_12  and  C_13
REMARK    4  A    between atoms: C_17  and  O_21
REMARK    5  A    between atoms: O_21  and  C_22
REMARK    6  A    between atoms: N_24  and  C_25
REMARK                            x       y       z     vdW  Elec       q    Type
REMARK                         _______ _______ _______ _____ _____    ______ ____
ROOT
ATOM     13  C   UNL     1      -0.536   0.074  24.407  0.00  0.00    +0.156 C 
ATOM     14  C   UNL     1      -0.485  -0.659  24.033  0.00  0.00    +0.166 C 
ATOM     15  O   UNL     1       0.174  -0.645  23.537  0.00  0.00    -0.348 OA
ATOM     16  C   UNL     1       0.530   0.095  23.605  0.00  0.00    +0.186 C 
ATOM     17  C   UNL     1       1.157   0.562  23.342  0.00  0.00    +0.229 C 
ATOM     18  C   UNL     1       1.105   1.295  23.716  0.00  0.00    +0.188 C 
ATOM     19  O   UNL     1       0.446   1.281  24.212  0.00  0.00    -0.348 OA
ATOM     20  C   UNL     1       0.091   0.540  24.143  0.00  0.00    +0.168 C 
ENDROOT
BRANCH  13  12
ATOM      9  N   UNL     1      -2.487   0.528  25.276  0.00  0.00    -0.161 NA
ATOM     10  C   UNL     1      -1.910   0.301  24.733  0.00  0.00    +0.344 C 
ATOM     11  O   UNL     1      -2.127   0.075  23.969  0.00  0.00    -0.249 OA
ATOM     12  N   UNL     1      -1.114   0.301  24.951  0.00  0.00    -0.184 NA
BRANCH   9   8
ATOM      4  C   UNL     1      -4.472   1.243  24.716  0.00  0.00    +0.036 A 
ATOM      5  C   UNL     1      -4.874   0.528  24.619  0.00  0.00    +0.003 A 
ATOM      6  C   UNL     1      -4.479  -0.186  24.741  0.00  0.00    +0.001 A 
ATOM      7  C   UNL     1      -3.684  -0.186  24.960  0.00  0.00    +0.017 A 
ATOM      8  C   UNL     1      -3.283   0.529  25.057  0.00  0.00    +0.075 A 
ATOM     31  C   UNL     1      -3.677   1.242  24.935  0.00  0.00    +0.019 A 
BRANCH   4   2
ATOM      1  C   UNL     1      -5.508   2.161  25.071  0.00  0.00    +0.077 C 
ATOM      2  C   UNL     1      -4.867   1.956  24.594  0.00  0.00    +0.174 C 
ATOM      3  O   UNL     1      -4.620   2.467  23.994  0.00  0.00    -0.291 OA
ENDBRANCH   4   2
ENDBRANCH   9   8
ENDBRANCH  13  12
BRANCH  17  21
ATOM     21  O   UNL     1       1.735   0.335  22.798  0.00  0.00    -0.432 OA
BRANCH  21  22
ATOM     22  C   UNL     1       2.534   0.422  22.984  0.00  0.00    +0.425 C 
ATOM     23  O   UNL     1       2.819   1.148  23.251  0.00  0.00    -0.224 OA
ATOM     24  N   UNL     1       3.048  -0.218  22.904  0.00  0.00    -0.142 NA
BRANCH  24  25
ATOM     25  C   UNL     1       3.847  -0.132  23.090  0.00  0.00    +0.077 A 
ATOM     26  C   UNL     1       4.286   0.479  22.752  0.00  0.00    +0.017 A 
ATOM     27  C   UNL     1       5.084   0.565  22.938  0.00  0.00    +0.001 A 
ATOM     28  C   UNL     1       5.445   0.040  23.464  0.00  0.00    +0.000 A 
ATOM     29  C   UNL     1       5.006  -0.571  23.802  0.00  0.00    +0.001 A 
ATOM     30  C   UNL     1       4.207  -0.656  23.615  0.00  0.00    +0.017 A 
ENDBRANCH  24  25
ENDBRANCH  21  22
ENDBRANCH  17  21
TORSDOF 6
ENDMDL
MODEL 4
REMARK VINA RESULT:     -10.4      1.086      5.861
REMARK  Name = 
REMARK  6 active torsions:
REMARK  status: ('A' for Active; 'I' for Inactive)
REMARK    1  A    between atoms: C_2  and  C_4
REMARK    2  A    between atoms: C_8  and  N_9
REMARK    3  A    between atoms: N_12  and  C_13
REMARK    4  A    between atoms: C_17  and  O_21
REMARK    5  A    between atoms: O_21  and  C_22
REMARK    6  A    between atoms: N_24  and  C_25
REMARK                            x       y       z     vdW  Elec       q    Type
REMARK                         _______ _______ _______ _____ _____    ______ ____
ROOT
ATOM     13  C   UNL     1      -0.581  -0.014  24.919  0.00  0.00    +0.156 C 
ATOM     14  C   UNL     1      -0.705   0.209  25.703  0.00  0.00    +0.166 C 
ATOM     15  O   UNL     1      -0.477   0.998  25.782  0.00  0.00    -0.348 OA
ATOM     16  C   UNL     1      -0.213   1.262  25.047  0.00  0.00    +0.186 C 
ATOM     17  C   UNL     1       0.091   1.913  24.641  0.00  0.00    +0.229 C 
ATOM     18  C   UNL     1       0.214   1.690  23.856  0.00  0.00    +0.188 C 
ATOM     19  O   UNL     1      -0.013   0.901  23.778  0.00  0.00    -0.348 OA
ATOM     20  C   UNL     1      -0.278   0.636  24.514  0.00  0.00    +0.168 C 
ENDROOT
BRANCH  13  12
ATOM      9  N   UNL     1      -1.615  -1.869  24.411  0.00  0.00    -0.161 NA
ATOM     10  C   UNL     1      -1.461  -1.125  24.732  0.00  0.00    +0.344 C 
ATOM     11  O   UNL     1      -2.034  -0.747  25.191  0.00  0.00    -0.249 OA
ATOM     12  N   UNL     1      -0.735  -0.758  24.597  0.00  0.00    -0.184 NA
BRANCH   9   8
ATOM      4  C   UNL     1      -3.731  -2.380  24.245  0.00  0.00    +0.036 A 
ATOM      5  C   UNL     1      -3.794  -2.970  24.819  0.00  0.00    +0.003 A 
ATOM      6  C   UNL     1      -3.130  -3.193  25.256  0.00  0.00    +0.001 A 
ATOM      7  C   UNL     1      -2.404  -2.825  25.120  0.00  0.00    +0.017 A 
ATOM      8  C   UNL     1      -2.341  -2.235  24.546  0.00  0.00    +0.075 A 
ATOM     31  C   UNL     1      -3.004  -2.013  24.110  0.00  0.00    +0.019 A 
BRANCH   4   2
ATOM      1  C   UNL     1      -4.721  -2.680  23.260  0.00  0.00    +0.077 C 
ATOM      2  C   UNL     1      -4.393  -2.158  23.808  0.00  0.00    +0.174 C 
ATOM      3  O   UNL     1      -4.730  -1.412  23.919  0.00  0.00    -0.291 OA
ENDBRANCH   4   2
ENDBRANCH   9   8
ENDBRANCH  13  12
BRANCH  17  21
ATOM     21  O   UNL     1       0.244   2.657  24.963  0.00  0.00    -0.432 OA
BRANCH  21  22
ATOM     22  C   UNL     1      -0.278   3.282  24.827  0.00  0.00    +0.425 C 
ATOM     23  O   UNL     1      -0.513   3.461  24.057  0.00  0.00    -0.224 OA
ATOM     24  N   UNL     1      -0.564   3.726  25.459  0.00  0.00    -0.142 NA
BRANCH  24  25
ATOM     25  C   UNL     1      -1.085   4.351  25.323  0.00  0.00    +0.077 A 
ATOM     26  C   UNL     1      -0.807   5.060  25.008  0.00  0.00    +0.017 A 
ATOM     27  C   UNL     1      -1.328   5.684  24.872  0.00  0.00    +0.001 A 
ATOM     28  C   UNL     1      -2.129   5.599  25.051  0.00  0.00    +0.000 A 
ATOM     29  C   UNL     1      -2.408   4.889  25.366  0.00  0.00    +0.001 A 
ATOM     30  C   UNL     1      -1.886   4.265  25.502  0.00  0.00    +0.017 A 
ENDBRANCH  24  25
ENDBRANCH  21  22
ENDBRANCH  17  21
TORSDOF 6
ENDMDL
MODEL 5
REMARK VINA RESULT:     -10.3      3.051      5.418
REMARK  Name = 
REMARK  6 active torsions:
REMARK  status: ('A' for Active; 'I' for Inactive)
REMARK    1  A    between atoms: C_2  and  C_4
REMARK    2  A    between atoms: C_8  and  N_9
REMARK    3  A    between atoms: N_12  and  C_13
REMARK    4  A    between atoms: C_17  and  O_21
REMARK    5  A    between atoms: O_21  and  C_22
REMARK    6  A    between atoms: N_24  and  C_25
REMARK                            x       y       z     vdW  Elec       q    Type
REMARK                         _______ _______ _______ _____ _____    ______ ____
ROOT
ATOM     13  C   UNL     1       0.252   0.994  23.791  0.00  0.00    +0.156 C 
ATOM     14  C   UNL     1       0.432   1.344  24.516  0.00  0.00    +0.166 C 
ATOM     15  O   UNL     1      -0.216   1.798  24.748  0.00  0.00    -0.348 OA
ATOM     16  C   UNL     1      -0.796   1.730  24.166  0.00  0.00    +0.186 C 
ATOM     17  C   UNL     1      -1.555   1.969  23.949  0.00  0.00    +0.229 C 
ATOM     18  C   UNL     1      -1.735   1.619  23.224  0.00  0.00    +0.188 C 
ATOM     19  O   UNL     1      -1.087   1.165  22.993  0.00  0.00    -0.348 OA
ATOM     20  C   UNL     1      -0.507   1.233  23.575  0.00  0.00    +0.168 C 
ENDROOT
BRANCH  13  12
ATOM      9  N   UNL     1       2.051   0.133  22.904  0.00  0.00    -0.161 NA
ATOM     10  C   UNL     1       1.558   0.633  23.336  0.00  0.00    +0.344 C 
ATOM     11  O   UNL     1       1.878   1.274  23.747  0.00  0.00    -0.249 OA
ATOM     12  N   UNL     1       0.745   0.494  23.359  0.00  0.00    -0.184 NA
BRANCH   9   8
ATOM      4  C   UNL     1       4.193  -0.088  23.263  0.00  0.00    +0.036 A 
ATOM      5  C   UNL     1       4.490   0.552  22.836  0.00  0.00    +0.003 A 
ATOM      6  C   UNL     1       3.974   1.053  22.432  0.00  0.00    +0.001 A 
ATOM      7  C   UNL     1       3.161   0.913  22.455  0.00  0.00    +0.017 A 
ATOM      8  C   UNL     1       2.864   0.272  22.882  0.00  0.00    +0.075 A 
ATOM     31  C   UNL     1       3.380  -0.228  23.286  0.00  0.00    +0.019 A 
BRANCH   4   2
ATOM      1  C   UNL     1       5.435  -0.304  23.936  0.00  0.00    +0.077 C 
ATOM      2  C   UNL     1       4.709  -0.589  23.667  0.00  0.00    +0.174 C 
ATOM      3  O   UNL     1       4.499  -1.376  23.803  0.00  0.00    -0.291 OA
ENDBRANCH   4   2
ENDBRANCH   9   8
ENDBRANCH  13  12
BRANCH  17  21
ATOM     21  O   UNL     1      -2.049   2.469  24.382  0.00  0.00    -0.432 OA
BRANCH  21  22
ATOM     22  C   UNL     1      -2.866   2.357  24.368  0.00  0.00    +0.425 C 
ATOM     23  O   UNL     1      -3.269   2.352  23.648  0.00  0.00    -0.224 OA
ATOM     24  N   UNL     1      -3.280   2.249  25.073  0.00  0.00    -0.142 NA
BRANCH  24  25
ATOM     25  C   UNL     1      -4.097   2.137  25.059  0.00  0.00    +0.077 A 
ATOM     26  C   UNL     1      -4.604   2.786  25.106  0.00  0.00    +0.017 A 
ATOM     27  C   UNL     1      -5.420   2.673  25.092  0.00  0.00    +0.001 A 
ATOM     28  C   UNL     1      -5.731   1.911  25.032  0.00  0.00    +0.000 A 
ATOM     29  C   UNL     1      -5.224   1.262  24.984  0.00  0.00    +0.001 A 
ATOM     30  C   UNL     1      -4.407   1.375  24.998  0.00  0.00    +0.017 A 
ENDBRANCH  24  25
ENDBRANCH  21  22
ENDBRANCH  17  21
TORSDOF 6
ENDMDL
MODEL 6
REMARK VINA RESULT:      -8.1     17.291     18.822
REMARK  Name = 
REMARK  6 active torsions:
REMARK  status: ('A' for Active; 'I' for Inactive)
REMARK    1  A    between atoms: C_2  and  C_4
REMARK    2  A    between atoms: C_8  and  N_9
REMARK    3  A    between atoms: N_12  and  C_13
REMARK    4  A    between atoms: C_17  and  O_21
REMARK    5  A    between atoms: O_21  and  C_22
REMARK    6  A    between atoms: N_24  and  C_25
REMARK                            x       y       z     vdW  Elec       q    Type
REMARK                         _______ _______ _______ _____ _____    ______ ____
ROOT
ATOM     13  C   UNL     1      -7.103  -8.581   8.918  0.00  0.00    +0.156 C 
ATOM     14  C   UNL     1      -7.548  -9.238   9.140  0.00  0.00    +0.166 C 
ATOM     15  O   UNL     1      -7.074  -9.716   9.617  0.00  0.00    -0.348 OA
ATOM     16  C   UNL     1      -6.337  -9.354   9.689  0.00  0.00    +0.186 C 
ATOM     17  C   UNL     1      -5.588  -9.425  10.028  0.00  0.00    +0.229 C 
ATOM     18  C   UNL     1      -5.143  -8.767   9.805  0.00  0.00    +0.188 C 
ATOM     19  O   UNL     1      -5.617  -8.290   9.328  0.00  0.00    -0.348 OA
ATOM     20  C   UNL     1      -6.355  -8.652   9.257  0.00  0.00    +0.168 C 
ENDROOT
BRANCH  13  12
ATOM      9  N   UNL     1      -8.336  -6.963   8.125  0.00  0.00    -0.161 NA
ATOM     10  C   UNL     1      -8.077  -7.583   8.602  0.00  0.00    +0.344 C 
ATOM     11  O   UNL     1      -8.534  -7.827   9.245  0.00  0.00    -0.249 OA
ATOM     12  N   UNL     1      -7.362  -7.960   8.439  0.00  0.00    -0.184 NA
BRANCH   9   8
ATOM      4  C   UNL     1      -9.779  -5.402   8.619  0.00  0.00    +0.036 A 
ATOM      5  C   UNL     1     -10.482  -5.833   8.615  0.00  0.00    +0.003 A 
ATOM      6  C   UNL     1     -10.470  -6.641   8.447  0.00  0.00    +0.001 A 
ATOM      7  C   UNL     1      -9.754  -7.017   8.284  0.00  0.00    +0.017 A 
ATOM      8  C   UNL     1      -9.051  -6.586   8.288  0.00  0.00    +0.075 A 
ATOM     31  C   UNL     1      -9.064  -5.779   8.456  0.00  0.00    +0.019 A 
BRANCH   4   2
ATOM      1  C   UNL     1     -10.505  -4.221   8.966  0.00  0.00    +0.077 C 
ATOM      2  C   UNL     1      -9.792  -4.594   8.786  0.00  0.00    +0.174 C 
ATOM      3  O   UNL     1      -9.090  -4.159   8.775  0.00  0.00    -0.291 OA
ENDBRANCH   4   2
ENDBRANCH   9   8
ENDBRANCH  13  12
BRANCH  17  21
ATOM     21  O   UNL     1      -5.330 -10.046  10.507  0.00  0.00    -0.432 OA
BRANCH  21  22
ATOM     22  C   UNL     1      -4.655  -9.955  10.973  0.00  0.00    +0.425 C 
ATOM     23  O   UNL     1      -4.563  -9.279  11.437  0.00  0.00    -0.224 OA
ATOM     24  N   UNL     1      -4.073 -10.538  10.975  0.00  0.00    -0.142 NA
BRANCH  24  25
ATOM     25  C   UNL     1      -3.398 -10.447  11.441  0.00  0.00    +0.077 A 
ATOM     26  C   UNL     1      -3.438 -10.575  12.255  0.00  0.00    +0.017 A 
ATOM     27  C   UNL     1      -2.764 -10.484  12.721  0.00  0.00    +0.001 A 
ATOM     28  C   UNL     1      -2.048 -10.264  12.373  0.00  0.00    +0.000 A 
ATOM     29  C   UNL     1      -2.008 -10.135  11.558  0.00  0.00    +0.001 A 
ATOM     30  C   UNL     1      -2.683 -10.227  11.093  0.00  0.00    +0.017 A 
ENDBRANCH  24  25
ENDBRANCH  21  22
ENDBRANCH  17  21
TORSDOF 6
ENDMDL
MODEL 7
REMARK VINA RESULT:      -8.1     14.795     16.651
REMARK  Name = 
REMARK  6 active torsions:
REMARK  status: ('A' for Active; 'I' for Inactive)
REMARK    1  A    between atoms: C_2  and  C_4
REMARK    2  A    between atoms: C_8  and  N_9
REMARK    3  A    between atoms: N_12  and  C_13
REMARK    4  A    between atoms: C_17  and  O_21
REMARK    5  A    between atoms: O_21  and  C_22
REMARK    6  A    between atoms: N_24  and  C_25
REMARK                            x       y       z     vdW  Elec       q    Type
REMARK                         _______ _______ _______ _____ _____    ______ ____
ROOT
ATOM     13  C   UNL     1      -5.631 -10.495  13.958  0.00  0.00    +0.156 C 
ATOM     14  C   UNL     1      -5.073 -10.237  14.507  0.00  0.00    +0.166 C 
ATOM     15  O   UNL     1      -5.476 -10.000  15.187  0.00  0.00    -0.348 OA
ATOM     16  C   UNL     1      -6.282 -10.111  15.057  0.00  0.00    +0.186 C 
ATOM     17  C   UNL     1      -7.030 -10.034  15.397  0.00  0.00    +0.229 C 
ATOM     18  C   UNL     1      -7.588 -10.292  14.847  0.00  0.00    +0.188 C 
ATOM     19  O   UNL     1      -7.185 -10.529  14.168  0.00  0.00    -0.348 OA
ATOM     20  C   UNL     1      -6.378 -10.418  14.297  0.00  0.00    +0.168 C 
ENDROOT
BRANCH  13  12
ATOM      9  N   UNL     1      -4.758 -10.680  11.965  0.00  0.00    -0.161 NA
ATOM     10  C   UNL     1      -4.919 -10.395  12.722  0.00  0.00    +0.344 C 
ATOM     11  O   UNL     1      -4.530  -9.722  13.001  0.00  0.00    -0.249 OA
ATOM     12  N   UNL     1      -5.469 -10.781  13.200  0.00  0.00    -0.184 NA
BRANCH   9   8
ATOM      4  C   UNL     1      -3.914  -9.409  10.404  0.00  0.00    +0.036 A 
ATOM      5  C   UNL     1      -3.107  -9.522  10.530  0.00  0.00    +0.003 A 
ATOM      6  C   UNL     1      -2.850 -10.021  11.135  0.00  0.00    +0.001 A 
ATOM      7  C   UNL     1      -3.400 -10.407  11.613  0.00  0.00    +0.017 A 
ATOM      8  C   UNL     1      -4.208 -10.294  11.487  0.00  0.00    +0.075 A 
ATOM     31  C   UNL     1      -4.464  -9.795  10.883  0.00  0.00    +0.019 A 
BRANCH   4   2
ATOM      1  C   UNL     1      -4.151  -9.167   9.016  0.00  0.00    +0.077 C 
ATOM      2  C   UNL     1      -4.171  -8.910   9.800  0.00  0.00    +0.174 C 
ATOM      3  O   UNL     1      -4.447  -8.153   9.979  0.00  0.00    -0.291 OA
ENDBRANCH   4   2
ENDBRANCH   9   8
ENDBRANCH  13  12
BRANCH  17  21
ATOM     21  O   UNL     1      -7.191  -9.748  16.154  0.00  0.00    -0.432 OA
BRANCH  21  22
ATOM     22  C   UNL     1      -7.969  -9.586  16.377  0.00  0.00    +0.425 C 
ATOM     23  O   UNL     1      -8.574 -10.107  16.169  0.00  0.00    -0.224 OA
ATOM     24  N   UNL     1      -8.142  -8.905  16.808  0.00  0.00    -0.142 NA
BRANCH  24  25
ATOM     25  C   UNL     1      -8.919  -8.743  17.031  0.00  0.00    +0.077 A 
ATOM     26  C   UNL     1      -9.349  -8.161  16.637  0.00  0.00    +0.017 A 
ATOM     27  C   UNL     1     -10.126  -7.999  16.859  0.00  0.00    +0.001 A 
ATOM     28  C   UNL     1     -10.475  -8.420  17.478  0.00  0.00    +0.000 A 
ATOM     29  C   UNL     1     -10.044  -9.003  17.873  0.00  0.00    +0.001 A 
ATOM     30  C   UNL     1      -9.267  -9.164  17.649  0.00  0.00    +0.017 A 
ENDBRANCH  24  25
ENDBRANCH  21  22
ENDBRANCH  17  21
TORSDOF 6
ENDMDL
