REMARK  Name = 
REMARK  4 active torsions:
REMARK  status: ('A' for Active; 'I' for Inactive)
REMARK    1  A    between atoms: O_2  and  C_3
REMARK    2  A    between atoms: C_3  and  C_4
REMARK    3  A    between atoms: C_9  and  C_11
REMARK    4  A    between atoms: C_18  and  O_19
REMARK                            x       y       z     vdW  Elec       q    Type
REMARK                         _______ _______ _______ _____ _____    ______ ____
ROOT
ATOM     11  C   UNL     1      -0.628  -0.698   0.000  0.00  0.00    +0.140 A 
ATOM     12  N   UNL     1      -0.143  -1.365   0.000  0.00  0.00    -0.229 NA
ATOM     13  C   UNL     1       0.641  -1.110   0.000  0.00  0.00    +0.103 A 
ATOM     14  C   UNL     1       0.641  -0.285   0.000  0.00  0.00    +0.100 A 
ATOM     15  N   UNL     1      -0.143  -0.030   0.000  0.00  0.00    -0.229 NA
ATOM     16  C   UNL     1       1.356   0.127   0.000  0.00  0.00    +0.024 A 
ATOM     17  C   UNL     1       2.070  -0.285   0.000  0.00  0.00    +0.039 A 
ATOM     18  C   UNL     1       2.070  -1.110   0.000  0.00  0.00    +0.140 A 
ATOM     21  C   UNL     1       1.356  -1.523   0.000  0.00  0.00    +0.058 A 
ENDROOT
BRANCH  11   9
ATOM      4  C   UNL     1      -3.390  -1.595   0.000  0.00  0.00    +0.256 C 
ATOM      5  O   UNL     1      -3.304  -2.416   0.000  0.00  0.00    -0.272 OA
ATOM      6  N   UNL     1      -2.723  -1.110   0.000  0.00  0.00    -0.277 N 
ATOM      7  C   UNL     1      -2.723  -0.285   0.000  0.00  0.00    +0.094 C 
ATOM      8  C   UNL     1      -1.938  -0.030   0.000  0.00  0.00    +0.031 C 
ATOM      9  C   UNL     1      -1.453  -0.698   0.000  0.00  0.00    +0.080 C 
ATOM     10  C   UNL     1      -1.938  -1.365   0.000  0.00  0.00    +0.101 C 
BRANCH   4   3
ATOM      3  C   UNL     1      -4.144  -1.260   0.000  0.00  0.00    +0.227 C 
BRANCH   3   2
ATOM      1  C   UNL     1      -5.565  -1.409   0.000  0.00  0.00    +0.175 C 
ATOM      2  O   UNL     1      -4.811  -1.745   0.000  0.00  0.00    -0.342 OA
ENDBRANCH   3   2
ENDBRANCH   4   3
ENDBRANCH  11   9
BRANCH  18  19
ATOM     19  O   UNL     1       2.784  -1.523   0.000  0.00  0.00    -0.471 OA
ATOM     20  C   UNL     1       3.499  -1.110   0.000  0.00  0.00    +0.252 C 
ENDBRANCH  18  19
TORSDOF 4
