MODEL 1
REMARK VINA RESULT:     -10.1      0.000      0.000
REMARK  Name = 
REMARK  4 active torsions:
REMARK  status: ('A' for Active; 'I' for Inactive)
REMARK    1  A    between atoms: C_2  and  S_3
REMARK    2  A    between atoms: S_3  and  C_6
REMARK    3  A    between atoms: C_11  and  C_13
REMARK    4  A    between atoms: N_16  and  C_18
REMARK                            x       y       z     vdW  Elec       q    Type
REMARK                         _______ _______ _______ _____ _____    ______ ____
ROOT
ATOM      6  C   UNL     1      -1.991   4.452  25.255  0.00  0.00    +0.107 A 
ATOM      7  C   UNL     1      -2.022   3.707  24.902  0.00  0.00    +0.041 A 
ATOM      8  C   UNL     1      -2.658   3.204  25.054  0.00  0.00    +0.120 A 
ATOM      9  C   UNL     1      -3.264   3.446  25.559  0.00  0.00    +0.164 A 
ATOM     10  O   UNL     1      -3.817   2.837  25.604  0.00  0.00    -0.438 OA
ATOM     11  C   UNL     1      -3.554   2.217  25.128  0.00  0.00    +0.207 A 
ATOM     12  N   UNL     1      -2.838   2.445  24.788  0.00  0.00    -0.212 NA
ATOM     27  C   UNL     1      -3.234   4.192  25.912  0.00  0.00    +0.040 A 
ATOM     28  C   UNL     1      -2.597   4.694  25.760  0.00  0.00    +0.022 A 
ENDROOT
BRANCH  11  13
ATOM     13  C   UNL     1      -3.939   1.497  25.011  0.00  0.00    +0.094 C 
ATOM     14  C   UNL     1      -4.755   1.384  24.968  0.00  0.00    +0.028 C 
ATOM     15  C   UNL     1      -4.897   0.581  24.848  0.00  0.00    +0.073 C 
ATOM     16  N   UNL     1      -4.167   0.196  24.817  0.00  0.00    -0.273 NA
ATOM     17  C   UNL     1      -3.576   0.762  24.918  0.00  0.00    +0.081 C 
BRANCH  16  18
ATOM     18  C   UNL     1      -4.050  -0.613  24.705  0.00  0.00    +0.061 C 
ATOM     19  C   UNL     1      -3.648  -1.054  25.274  0.00  0.00    +0.038 C 
ATOM     20  C   UNL     1      -3.530  -1.863  25.162  0.00  0.00    +0.095 C 
ATOM     21  N   UNL     1      -3.815  -2.231  24.481  0.00  0.00    -0.279 N 
ATOM     22  C   UNL     1      -4.217  -1.791  23.912  0.00  0.00    +0.095 C 
ATOM     23  C   UNL     1      -4.335  -0.981  24.023  0.00  0.00    +0.038 C 
ATOM     24  C   UNL     1      -3.697  -3.040  24.369  0.00  0.00    +0.226 C 
ATOM     25  C   UNL     1      -3.295  -3.481  24.938  0.00  0.00    +0.095 C 
ATOM     26  O   UNL     1      -3.983  -3.408  23.687  0.00  0.00    -0.275 OA
ENDBRANCH  16  18
ENDBRANCH  11  13
BRANCH   6   3
ATOM      3  S   UNL     1      -1.356   4.954  25.104  0.00  0.00    +0.009 S 
ATOM      4  O   UNL     1      -0.832   4.327  25.218  0.00  0.00    -0.169 OA
ATOM      5  O   UNL     1      -1.879   5.582  24.989  0.00  0.00    -0.169 OA
BRANCH   3   2
ATOM      1  C   UNL     1      -0.236   5.325  24.297  0.00  0.00    +0.028 C 
ATOM      2  C   UNL     1      -0.719   5.457  24.952  0.00  0.00    +0.156 C 
ENDBRANCH   3   2
ENDBRANCH   6   3
TORSDOF 4
ENDMDL
MODEL 2
REMARK VINA RESULT:      -9.5      2.369      6.434
REMARK  Name = 
REMARK  4 active torsions:
REMARK  status: ('A' for Active; 'I' for Inactive)
REMARK    1  A    between atoms: C_2  and  S_3
REMARK    2  A    between atoms: S_3  and  C_6
REMARK    3  A    between atoms: C_11  and  C_13
REMARK    4  A    between atoms: N_16  and  C_18
REMARK                            x       y       z     vdW  Elec       q    Type
REMARK                         _______ _______ _______ _____ _____    ______ ____
ROOT
ATOM      6  C   UNL     1      -2.874  -2.084  24.578  0.00  0.00    +0.107 A 
ATOM      7  C   UNL     1      -2.997  -1.289  24.756  0.00  0.00    +0.041 A 
ATOM      8  C   UNL     1      -2.355  -0.800  24.928  0.00  0.00    +0.120 A 
ATOM      9  C   UNL     1      -1.590  -1.107  24.922  0.00  0.00    +0.164 A 
ATOM     10  O   UNL     1      -1.068  -0.498  25.112  0.00  0.00    -0.438 OA
ATOM     11  C   UNL     1      -1.511   0.187  25.236  0.00  0.00    +0.207 A 
ATOM     12  N   UNL     1      -2.306  -0.000  25.122  0.00  0.00    -0.212 NA
ATOM     27  C   UNL     1      -1.466  -1.904  24.744  0.00  0.00    +0.040 A 
ATOM     28  C   UNL     1      -2.109  -2.392  24.572  0.00  0.00    +0.022 A 
ENDROOT
BRANCH  11  13
ATOM     13  C   UNL     1      -1.212   0.929  25.439  0.00  0.00    +0.094 C 
ATOM     14  C   UNL     1      -0.585   1.074  25.955  0.00  0.00    +0.028 C 
ATOM     15  C   UNL     1      -0.472   1.891  25.996  0.00  0.00    +0.073 C 
ATOM     16  N   UNL     1      -1.028   2.250  25.504  0.00  0.00    -0.273 NA
ATOM     17  C   UNL     1      -1.485   1.655  25.160  0.00  0.00    +0.081 C 
BRANCH  16  18
ATOM     18  C   UNL     1      -1.113   3.060  25.378  0.00  0.00    +0.061 C 
ATOM     19  C   UNL     1      -1.812   3.441  25.598  0.00  0.00    +0.038 C 
ATOM     20  C   UNL     1      -1.897   4.252  25.472  0.00  0.00    +0.095 C 
ATOM     21  N   UNL     1      -1.284   4.682  25.127  0.00  0.00    -0.279 N 
ATOM     22  C   UNL     1      -0.586   4.303  24.908  0.00  0.00    +0.095 C 
ATOM     23  C   UNL     1      -0.500   3.491  25.033  0.00  0.00    +0.038 C 
ATOM     24  C   UNL     1      -1.370   5.494  25.002  0.00  0.00    +0.226 C 
ATOM     25  C   UNL     1      -2.067   5.874  25.221  0.00  0.00    +0.095 C 
ATOM     26  O   UNL     1      -0.756   5.924  24.656  0.00  0.00    -0.275 OA
ENDBRANCH  16  18
ENDBRANCH  11  13
BRANCH   6   3
ATOM      3  S   UNL     1      -3.516  -2.572  24.406  0.00  0.00    +0.009 S 
ATOM      4  O   UNL     1      -3.373  -3.004  25.095  0.00  0.00    -0.169 OA
ATOM      5  O   UNL     1      -3.660  -2.142  23.717  0.00  0.00    -0.169 OA
BRANCH   3   2
ATOM      1  C   UNL     1      -4.632  -2.902  23.577  0.00  0.00    +0.028 C 
ATOM      2  C   UNL     1      -4.159  -3.061  24.234  0.00  0.00    +0.156 C 
ENDBRANCH   3   2
ENDBRANCH   6   3
TORSDOF 4
ENDMDL
MODEL 3
REMARK VINA RESULT:      -9.3      3.627      4.930
REMARK  Name = 
REMARK  4 active torsions:
REMARK  status: ('A' for Active; 'I' for Inactive)
REMARK    1  A    between atoms: C_2  and  S_3
REMARK    2  A    between atoms: S_3  and  C_6
REMARK    3  A    between atoms: C_11  and  C_13
REMARK    4  A    between atoms: N_16  and  C_18
REMARK                            x       y       z     vdW  Elec       q    Type
REMARK                         _______ _______ _______ _____ _____    ______ ____
ROOT
ATOM      6  C   UNL     1      -4.596   2.143  24.764  0.00  0.00    +0.107 A 
ATOM      7  C   UNL     1      -4.114   1.509  24.976  0.00  0.00    +0.041 A 
ATOM      8  C   UNL     1      -3.366   1.426  24.638  0.00  0.00    +0.120 A 
ATOM      9  C   UNL     1      -3.100   1.980  24.087  0.00  0.00    +0.164 A 
ATOM     10  O   UNL     1      -2.343   1.757  23.848  0.00  0.00    -0.438 OA
ATOM     11  C   UNL     1      -2.141   1.066  24.250  0.00  0.00    +0.207 A 
ATOM     12  N   UNL     1      -2.773   0.862  24.738  0.00  0.00    -0.212 NA
ATOM     27  C   UNL     1      -3.582   2.616  23.875  0.00  0.00    +0.040 A 
ATOM     28  C   UNL     1      -4.329   2.697  24.214  0.00  0.00    +0.022 A 
ENDROOT
BRANCH  11  13
ATOM     13  C   UNL     1      -1.431   0.652  24.177  0.00  0.00    +0.094 C 
ATOM     14  C   UNL     1      -1.260  -0.080  24.516  0.00  0.00    +0.028 C 
ATOM     15  C   UNL     1      -0.491  -0.288  24.301  0.00  0.00    +0.073 C 
ATOM     16  N   UNL     1      -0.186   0.317  23.830  0.00  0.00    -0.273 NA
ATOM     17  C   UNL     1      -0.768   0.898  23.754  0.00  0.00    +0.081 C 
BRANCH  16  18
ATOM     18  C   UNL     1       0.567   0.338  23.494  0.00  0.00    +0.061 C 
ATOM     19  C   UNL     1       1.128   0.876  23.771  0.00  0.00    +0.038 C 
ATOM     20  C   UNL     1       1.881   0.897  23.435  0.00  0.00    +0.095 C 
ATOM     21  N   UNL     1       2.073   0.380  22.822  0.00  0.00    -0.279 N 
ATOM     22  C   UNL     1       1.513  -0.157  22.544  0.00  0.00    +0.095 C 
ATOM     23  C   UNL     1       0.760  -0.179  22.880  0.00  0.00    +0.038 C 
ATOM     24  C   UNL     1       2.827   0.402  22.486  0.00  0.00    +0.226 C 
ATOM     25  C   UNL     1       3.387   0.939  22.763  0.00  0.00    +0.095 C 
ATOM     26  O   UNL     1       3.019  -0.116  21.872  0.00  0.00    -0.275 OA
ENDBRANCH  16  18
ENDBRANCH  11  13
BRANCH   6   3
ATOM      3  S   UNL     1      -5.343   2.225  25.102  0.00  0.00    +0.009 S 
ATOM      4  O   UNL     1      -5.630   1.624  24.616  0.00  0.00    -0.169 OA
ATOM      5  O   UNL     1      -5.057   2.827  25.590  0.00  0.00    -0.169 OA
BRANCH   3   2
ATOM      1  C   UNL     1      -6.207   2.117  26.236  0.00  0.00    +0.028 C 
ATOM      2  C   UNL     1      -6.091   2.307  25.441  0.00  0.00    +0.156 C 
ENDBRANCH   3   2
ENDBRANCH   6   3
TORSDOF 4
ENDMDL
MODEL 4
REMARK VINA RESULT:      -8.9      4.196      5.284
REMARK  Name = 
REMARK  4 active torsions:
REMARK  status: ('A' for Active; 'I' for Inactive)
REMARK    1  A    between atoms: C_2  and  S_3
REMARK    2  A    between atoms: S_3  and  C_6
REMARK    3  A    between atoms: C_11  and  C_13
REMARK    4  A    between atoms: N_16  and  C_18
REMARK                            x       y       z     vdW  Elec       q    Type
REMARK                         _______ _______ _______ _____ _____    ______ ____
ROOT
ATOM      6  C   UNL     1       2.559   0.433  22.828  0.00  0.00    +0.107 A 
ATOM      7  C   UNL     1       2.090   0.713  23.446  0.00  0.00    +0.041 A 
ATOM      8  C   UNL     1       1.291   0.508  23.484  0.00  0.00    +0.120 A 
ATOM      9  C   UNL     1       0.962   0.023  22.904  0.00  0.00    +0.164 A 
ATOM     10  O   UNL     1       0.165  -0.086  23.084  0.00  0.00    -0.438 OA
ATOM     11  C   UNL     1       0.001   0.332  23.776  0.00  0.00    +0.207 A 
ATOM     12  N   UNL     1       0.697   0.699  24.023  0.00  0.00    -0.212 NA
ATOM     27  C   UNL     1       1.432  -0.258  22.285  0.00  0.00    +0.040 A 
ATOM     28  C   UNL     1       2.230  -0.052  22.248  0.00  0.00    +0.022 A 
ENDROOT
BRANCH  11  13
ATOM     13  C   UNL     1      -0.731   0.376  24.154  0.00  0.00    +0.094 C 
ATOM     14  C   UNL     1      -1.016  -0.152  24.721  0.00  0.00    +0.028 C 
ATOM     15  C   UNL     1      -1.767   0.100  24.950  0.00  0.00    +0.073 C 
ATOM     16  N   UNL     1      -1.947   0.784  24.525  0.00  0.00    -0.273 NA
ATOM     17  C   UNL     1      -1.306   0.954  24.033  0.00  0.00    +0.081 C 
BRANCH  16  18
ATOM     18  C   UNL     1      -2.644   1.221  24.581  0.00  0.00    +0.061 C 
ATOM     19  C   UNL     1      -2.624   1.995  24.867  0.00  0.00    +0.038 C 
ATOM     20  C   UNL     1      -3.321   2.432  24.923  0.00  0.00    +0.095 C 
ATOM     21  N   UNL     1      -4.038   2.096  24.693  0.00  0.00    -0.279 N 
ATOM     22  C   UNL     1      -4.059   1.323  24.408  0.00  0.00    +0.095 C 
ATOM     23  C   UNL     1      -3.362   0.885  24.351  0.00  0.00    +0.038 C 
ATOM     24  C   UNL     1      -4.736   2.534  24.750  0.00  0.00    +0.226 C 
ATOM     25  C   UNL     1      -4.716   3.307  25.035  0.00  0.00    +0.095 C 
ATOM     26  O   UNL     1      -5.454   2.197  24.520  0.00  0.00    -0.275 OA
ENDBRANCH  16  18
ENDBRANCH  11  13
BRANCH   6   3
ATOM      3  S   UNL     1       3.356   0.638  22.791  0.00  0.00    +0.009 S 
ATOM      4  O   UNL     1       3.558  -0.157  22.707  0.00  0.00    -0.169 OA
ATOM      5  O   UNL     1       3.156   1.434  22.874  0.00  0.00    -0.169 OA
BRANCH   3   2
ATOM      1  C   UNL     1       4.715   0.399  23.164  0.00  0.00    +0.028 C 
ATOM      2  C   UNL     1       4.155   0.844  22.753  0.00  0.00    +0.156 C 
ENDBRANCH   3   2
ENDBRANCH   6   3
TORSDOF 4
ENDMDL
MODEL 5
REMARK VINA RESULT:      -8.7      1.623      2.176
REMARK  Name = 
REMARK  4 active torsions:
REMARK  status: ('A' for Active; 'I' for Inactive)
REMARK    1  A    between atoms: C_2  and  S_3
REMARK    2  A    between atoms: S_3  and  C_6
REMARK    3  A    between atoms: C_11  and  C_13
REMARK    4  A    between atoms: N_16  and  C_18
REMARK                            x       y       z     vdW  Elec       q    Type
REMARK                         _______ _______ _______ _____ _____    ______ ____
ROOT
ATOM      6  C   UNL     1      -0.866   3.884  25.265  0.00  0.00    +0.107 A 
ATOM      7  C   UNL     1      -1.397   3.284  25.072  0.00  0.00    +0.041 A 
ATOM      8  C   UNL     1      -1.213   2.498  25.245  0.00  0.00    +0.120 A 
ATOM      9  C   UNL     1      -0.497   2.314  25.612  0.00  0.00    +0.164 A 
ATOM     10  O   UNL     1      -0.467   1.497  25.715  0.00  0.00    -0.438 OA
ATOM     11  C   UNL     1      -1.163   1.175  25.411  0.00  0.00    +0.207 A 
ATOM     12  N   UNL     1      -1.623   1.794  25.121  0.00  0.00    -0.212 NA
ATOM     27  C   UNL     1       0.034   2.916  25.806  0.00  0.00    +0.040 A 
ATOM     28  C   UNL     1      -0.151   3.700  25.632  0.00  0.00    +0.022 A 
ENDROOT
BRANCH  11  13
ATOM     13  C   UNL     1      -1.363   0.375  25.400  0.00  0.00    +0.094 C 
ATOM     14  C   UNL     1      -0.964  -0.231  25.793  0.00  0.00    +0.028 C 
ATOM     15  C   UNL     1      -1.351  -0.941  25.630  0.00  0.00    +0.073 C 
ATOM     16  N   UNL     1      -1.990  -0.774  25.135  0.00  0.00    -0.273 NA
ATOM     17  C   UNL     1      -1.997   0.039  24.993  0.00  0.00    +0.081 C 
BRANCH  16  18
ATOM     18  C   UNL     1      -2.527  -1.323  24.835  0.00  0.00    +0.061 C 
ATOM     19  C   UNL     1      -3.231  -1.065  24.490  0.00  0.00    +0.038 C 
ATOM     20  C   UNL     1      -3.768  -1.614  24.190  0.00  0.00    +0.095 C 
ATOM     21  N   UNL     1      -3.603  -2.421  24.235  0.00  0.00    -0.279 N 
ATOM     22  C   UNL     1      -2.900  -2.679  24.580  0.00  0.00    +0.095 C 
ATOM     23  C   UNL     1      -2.362  -2.130  24.880  0.00  0.00    +0.038 C 
ATOM     24  C   UNL     1      -4.141  -2.970  23.934  0.00  0.00    +0.226 C 
ATOM     25  C   UNL     1      -4.844  -2.712  23.589  0.00  0.00    +0.095 C 
ATOM     26  O   UNL     1      -3.975  -3.777  23.980  0.00  0.00    -0.275 OA
ENDBRANCH  16  18
ENDBRANCH  11  13
BRANCH   6   3
ATOM      3  S   UNL     1      -1.050   4.669  25.092  0.00  0.00    +0.009 S 
ATOM      4  O   UNL     1      -1.668   4.646  25.637  0.00  0.00    -0.169 OA
ATOM      5  O   UNL     1      -0.432   4.694  24.545  0.00  0.00    -0.169 OA
BRANCH   3   2
ATOM      1  C   UNL     1      -1.991   5.745  25.073  0.00  0.00    +0.028 C 
ATOM      2  C   UNL     1      -1.235   5.455  24.918  0.00  0.00    +0.156 C 
ENDBRANCH   3   2
ENDBRANCH   6   3
TORSDOF 4
ENDMDL
MODEL 6
REMARK VINA RESULT:      -8.7      1.792      6.134
REMARK  Name = 
REMARK  4 active torsions:
REMARK  status: ('A' for Active; 'I' for Inactive)
REMARK    1  A    between atoms: C_2  and  S_3
REMARK    2  A    between atoms: S_3  and  C_6
REMARK    3  A    between atoms: C_11  and  C_13
REMARK    4  A    between atoms: N_16  and  C_18
REMARK                            x       y       z     vdW  Elec       q    Type
REMARK                         _______ _______ _______ _____ _____    ______ ____
ROOT
ATOM      6  C   UNL     1      -3.712  -1.886  24.481  0.00  0.00    +0.107 A 
ATOM      7  C   UNL     1      -3.322  -1.250  24.833  0.00  0.00    +0.041 A 
ATOM      8  C   UNL     1      -3.603  -0.482  24.725  0.00  0.00    +0.120 A 
ATOM      9  C   UNL     1      -4.275  -0.350  24.264  0.00  0.00    +0.164 A 
ATOM     10  O   UNL     1      -4.422   0.461  24.256  0.00  0.00    -0.438 OA
ATOM     11  C   UNL     1      -3.842   0.831  24.711  0.00  0.00    +0.207 A 
ATOM     12  N   UNL     1      -3.336   0.248  25.000  0.00  0.00    -0.212 NA
ATOM     27  C   UNL     1      -4.666  -0.986  23.912  0.00  0.00    +0.040 A 
ATOM     28  C   UNL     1      -4.384  -1.753  24.021  0.00  0.00    +0.022 A 
ENDROOT
BRANCH  11  13
ATOM     13  C   UNL     1      -3.779   1.641  24.852  0.00  0.00    +0.094 C 
ATOM     14  C   UNL     1      -4.392   2.143  25.081  0.00  0.00    +0.028 C 
ATOM     15  C   UNL     1      -4.085   2.905  25.159  0.00  0.00    +0.073 C 
ATOM     16  N   UNL     1      -3.281   2.873  24.978  0.00  0.00    -0.273 NA
ATOM     17  C   UNL     1      -3.092   2.093  24.788  0.00  0.00    +0.081 C 
BRANCH  16  18
ATOM     18  C   UNL     1      -2.757   3.510  24.985  0.00  0.00    +0.061 C 
ATOM     19  C   UNL     1      -1.992   3.419  24.689  0.00  0.00    +0.038 C 
ATOM     20  C   UNL     1      -1.468   4.056  24.697  0.00  0.00    +0.095 C 
ATOM     21  N   UNL     1      -1.708   4.785  24.999  0.00  0.00    -0.279 N 
ATOM     22  C   UNL     1      -2.472   4.877  25.295  0.00  0.00    +0.095 C 
ATOM     23  C   UNL     1      -2.997   4.240  25.288  0.00  0.00    +0.038 C 
ATOM     24  C   UNL     1      -1.184   5.422  25.006  0.00  0.00    +0.226 C 
ATOM     25  C   UNL     1      -0.420   5.330  24.711  0.00  0.00    +0.095 C 
ATOM     26  O   UNL     1      -1.425   6.151  25.310  0.00  0.00    -0.275 OA
ENDBRANCH  16  18
ENDBRANCH  11  13
BRANCH   6   3
ATOM      3  S   UNL     1      -3.432  -2.653  24.589  0.00  0.00    +0.009 S 
ATOM      4  O   UNL     1      -3.356  -2.741  23.773  0.00  0.00    -0.169 OA
ATOM      5  O   UNL     1      -3.507  -2.566  25.406  0.00  0.00    -0.169 OA
BRANCH   3   2
ATOM      1  C   UNL     1      -2.350  -3.587  24.586  0.00  0.00    +0.028 C 
ATOM      2  C   UNL     1      -3.150  -3.422  24.698  0.00  0.00    +0.156 C 
ENDBRANCH   3   2
ENDBRANCH   6   3
TORSDOF 4
ENDMDL
MODEL 7
REMARK VINA RESULT:      -7.8     14.520     15.065
REMARK  Name = 
REMARK  4 active torsions:
REMARK  status: ('A' for Active; 'I' for Inactive)
REMARK    1  A    between atoms: C_2  and  S_3
REMARK    2  A    between atoms: S_3  and  C_6
REMARK    3  A    between atoms: C_11  and  C_13
REMARK    4  A    between atoms: N_16  and  C_18
REMARK                            x       y       z     vdW  Elec       q    Type
REMARK                         _______ _______ _______ _____ _____    ______ ____
ROOT
ATOM      6  C   UNL     1      -9.265  -8.733  16.748  0.00  0.00    +0.107 A 
ATOM      7  C   UNL     1      -8.514  -8.784  16.412  0.00  0.00    +0.041 A 
ATOM      8  C   UNL     1      -7.926  -9.230  16.780  0.00  0.00    +0.120 A 
ATOM      9  C   UNL     1      -8.090  -9.626  17.485  0.00  0.00    +0.164 A 
ATOM     10  O   UNL     1      -7.405 -10.021  17.720  0.00  0.00    -0.438 OA
ATOM     11  C   UNL     1      -6.819  -9.870  17.161  0.00  0.00    +0.207 A 
ATOM     12  N   UNL     1      -7.141  -9.381  16.580  0.00  0.00    -0.212 NA
ATOM     27  C   UNL     1      -8.842  -9.575  17.822  0.00  0.00    +0.040 A 
ATOM     28  C   UNL     1      -9.429  -9.129  17.453  0.00  0.00    +0.022 A 
ENDROOT
BRANCH  11  13
ATOM     13  C   UNL     1      -6.045 -10.157  17.180  0.00  0.00    +0.094 C 
ATOM     14  C   UNL     1      -5.693 -10.562  17.806  0.00  0.00    +0.028 C 
ATOM     15  C   UNL     1      -4.918 -10.745  17.589  0.00  0.00    +0.073 C 
ATOM     16  N   UNL     1      -4.792 -10.452  16.828  0.00  0.00    -0.273 NA
ATOM     17  C   UNL     1      -5.488 -10.089  16.575  0.00  0.00    +0.081 C 
BRANCH  16  18
ATOM     18  C   UNL     1      -4.092 -10.512  16.396  0.00  0.00    +0.061 C 
ATOM     19  C   UNL     1      -3.371 -10.600  16.787  0.00  0.00    +0.038 C 
ATOM     20  C   UNL     1      -2.671 -10.660  16.355  0.00  0.00    +0.095 C 
ATOM     21  N   UNL     1      -2.691 -10.632  15.531  0.00  0.00    -0.279 N 
ATOM     22  C   UNL     1      -3.411 -10.544  15.139  0.00  0.00    +0.095 C 
ATOM     23  C   UNL     1      -4.112 -10.484  15.571  0.00  0.00    +0.038 C 
ATOM     24  C   UNL     1      -1.991 -10.692  15.099  0.00  0.00    +0.226 C 
ATOM     25  C   UNL     1      -1.271 -10.780  15.491  0.00  0.00    +0.095 C 
ATOM     26  O   UNL     1      -2.012 -10.664  14.274  0.00  0.00    -0.275 OA
ENDBRANCH  16  18
ENDBRANCH  11  13
BRANCH   6   3
ATOM      3  S   UNL     1      -9.853  -8.287  16.380  0.00  0.00    +0.009 S 
ATOM      4  O   UNL     1      -9.686  -7.653  16.880  0.00  0.00    -0.169 OA
ATOM      5  O   UNL     1     -10.021  -8.921  15.878  0.00  0.00    -0.169 OA
BRANCH   3   2
ATOM      1  C   UNL     1     -10.245  -7.139  15.624  0.00  0.00    +0.028 C 
ATOM      2  C   UNL     1     -10.441  -7.841  16.011  0.00  0.00    +0.156 C 
ENDBRANCH   3   2
ENDBRANCH   6   3
TORSDOF 4
ENDMDL
MODEL 8
REMARK VINA RESULT:      -7.5     14.273     15.725
REMARK  Name = 
REMARK  4 active torsions:
REMARK  status: ('A' for Active; 'I' for Inactive)
REMARK    1  A    between atoms: C_2  and  S_3
REMARK    2  A    between atoms: S_3  and  C_6
REMARK    3  A    between atoms: C_11  and  C_13
REMARK    4  A    between atoms: N_16  and  C_18
REMARK                            x       y       z     vdW  Elec       q    Type
REMARK                         _______ _______ _______ _____ _____    ______ ____
ROOT
ATOM      6  C   UNL     1      -7.894  -9.651  17.468  0.00  0.00    +0.107 A 
ATOM      7  C   UNL     1      -7.461  -9.726  16.770  0.00  0.00    +0.041 A 
ATOM      8  C   UNL     1      -6.663  -9.935  16.800  0.00  0.00    +0.120 A 
ATOM      9  C   UNL     1      -6.299 -10.068  17.528  0.00  0.00    +0.164 A 
ATOM     10  O   UNL     1      -5.511 -10.265  17.387  0.00  0.00    -0.438 OA
ATOM     11  C   UNL     1      -5.387 -10.254  16.572  0.00  0.00    +0.207 A 
ATOM     12  N   UNL     1      -6.099 -10.050  16.210  0.00  0.00    -0.212 NA
ATOM     27  C   UNL     1      -6.732  -9.992  18.227  0.00  0.00    +0.040 A 
ATOM     28  C   UNL     1      -7.530  -9.784  18.196  0.00  0.00    +0.022 A 
ENDROOT
BRANCH  11  13
ATOM     13  C   UNL     1      -4.676 -10.417  16.187  0.00  0.00    +0.094 C 
ATOM     14  C   UNL     1      -3.985 -10.694  16.541  0.00  0.00    +0.028 C 
ATOM     15  C   UNL     1      -3.413 -10.781  15.954  0.00  0.00    +0.073 C 
ATOM     16  N   UNL     1      -3.751 -10.559  15.235  0.00  0.00    -0.273 NA
ATOM     17  C   UNL     1      -4.532 -10.334  15.379  0.00  0.00    +0.081 C 
BRANCH  16  18
ATOM     18  C   UNL     1      -3.375 -10.560  14.501  0.00  0.00    +0.061 C 
ATOM     19  C   UNL     1      -3.815 -10.676  13.812  0.00  0.00    +0.038 C 
ATOM     20  C   UNL     1      -3.439 -10.677  13.078  0.00  0.00    +0.095 C 
ATOM     21  N   UNL     1      -2.624 -10.564  13.031  0.00  0.00    -0.279 N 
ATOM     22  C   UNL     1      -2.183 -10.449  13.719  0.00  0.00    +0.095 C 
ATOM     23  C   UNL     1      -2.559 -10.447  14.454  0.00  0.00    +0.038 C 
ATOM     24  C   UNL     1      -2.248 -10.566  12.296  0.00  0.00    +0.226 C 
ATOM     25  C   UNL     1      -2.688 -10.681  11.609  0.00  0.00    +0.095 C 
ATOM     26  O   UNL     1      -1.432 -10.452  12.251  0.00  0.00    -0.275 OA
ENDBRANCH  16  18
ENDBRANCH  11  13
BRANCH   6   3
ATOM      3  S   UNL     1      -8.691  -9.443  17.437  0.00  0.00    +0.009 S 
ATOM      4  O   UNL     1      -8.892 -10.230  17.294  0.00  0.00    -0.169 OA
ATOM      5  O   UNL     1      -8.491  -8.655  17.581  0.00  0.00    -0.169 OA
BRANCH   3   2
ATOM      1  C   UNL     1      -9.733  -8.608  16.928  0.00  0.00    +0.028 C 
ATOM      2  C   UNL     1      -9.489  -9.234  17.407  0.00  0.00    +0.156 C 
ENDBRANCH   3   2
ENDBRANCH   6   3
TORSDOF 4
ENDMDL
MODEL 9
REMARK VINA RESULT:      -7.3     17.105     18.863
REMARK  Name = 
REMARK  4 active torsions:
REMARK  status: ('A' for Active; 'I' for Inactive)
REMARK    1  A    between atoms: C_2  and  S_3
REMARK    2  A    between atoms: S_3  and  C_6
REMARK    3  A    between atoms: C_11  and  C_13
REMARK    4  A    between atoms: N_16  and  C_18
REMARK                            x       y       z     vdW  Elec       q    Type
REMARK                         _______ _______ _______ _____ _____    ______ ____
ROOT
ATOM      6  C   UNL     1      -2.690 -10.070  11.639  0.00  0.00    +0.107 A 
ATOM      7  C   UNL     1      -3.498 -10.139  11.489  0.00  0.00    +0.041 A 
ATOM      8  C   UNL     1      -3.826  -9.783  10.821  0.00  0.00    +0.120 A 
ATOM      9  C   UNL     1      -3.345  -9.359  10.302  0.00  0.00    +0.164 A 
ATOM     10  O   UNL     1      -3.819  -9.071   9.693  0.00  0.00    -0.438 OA
ATOM     11  C   UNL     1      -4.594  -9.316   9.835  0.00  0.00    +0.207 A 
ATOM     12  N   UNL     1      -4.597  -9.757  10.532  0.00  0.00    -0.212 NA
ATOM     27  C   UNL     1      -2.536  -9.290  10.452  0.00  0.00    +0.040 A 
ATOM     28  C   UNL     1      -2.209  -9.646  11.120  0.00  0.00    +0.022 A 
ENDROOT
BRANCH  11  13
ATOM     13  C   UNL     1      -5.250  -9.151   9.362  0.00  0.00    +0.094 C 
ATOM     14  C   UNL     1      -5.379  -9.429   8.597  0.00  0.00    +0.028 C 
ATOM     15  C   UNL     1      -6.100  -9.129   8.333  0.00  0.00    +0.073 C 
ATOM     16  N   UNL     1      -6.418  -8.664   8.936  0.00  0.00    -0.273 NA
ATOM     17  C   UNL     1      -5.892  -8.678   9.572  0.00  0.00    +0.081 C 
BRANCH  16  18
ATOM     18  C   UNL     1      -7.134  -8.257   8.909  0.00  0.00    +0.061 C 
ATOM     19  C   UNL     1      -7.185  -7.537   8.509  0.00  0.00    +0.038 C 
ATOM     20  C   UNL     1      -7.902  -7.130   8.482  0.00  0.00    +0.095 C 
ATOM     21  N   UNL     1      -8.568  -7.442   8.854  0.00  0.00    -0.279 N 
ATOM     22  C   UNL     1      -8.519  -8.161   9.255  0.00  0.00    +0.095 C 
ATOM     23  C   UNL     1      -7.801  -8.569   9.282  0.00  0.00    +0.038 C 
ATOM     24  C   UNL     1      -9.286  -7.034   8.827  0.00  0.00    +0.226 C 
ATOM     25  C   UNL     1      -9.336  -6.316   8.427  0.00  0.00    +0.095 C 
ATOM     26  O   UNL     1      -9.952  -7.348   9.200  0.00  0.00    -0.275 OA
ENDBRANCH  16  18
ENDBRANCH  11  13
BRANCH   6   3
ATOM      3  S   UNL     1      -2.362 -10.425  12.307  0.00  0.00    +0.009 S 
ATOM      4  O   UNL     1      -1.712 -10.668  11.861  0.00  0.00    -0.169 OA
ATOM      5  O   UNL     1      -3.012 -10.184  12.755  0.00  0.00    -0.169 OA
BRANCH   3   2
ATOM      1  C   UNL     1      -2.337 -10.609  13.724  0.00  0.00    +0.028 C 
ATOM      2  C   UNL     1      -2.035 -10.781  12.976  0.00  0.00    +0.156 C 
ENDBRANCH   3   2
ENDBRANCH   6   3
TORSDOF 4
ENDMDL
MODEL 10
REMARK VINA RESULT:      -7.1      4.926      5.969
REMARK  Name = 
REMARK  4 active torsions:
REMARK  status: ('A' for Active; 'I' for Inactive)
REMARK    1  A    between atoms: C_2  and  S_3
REMARK    2  A    between atoms: S_3  and  C_6
REMARK    3  A    between atoms: C_11  and  C_13
REMARK    4  A    between atoms: N_16  and  C_18
REMARK                            x       y       z     vdW  Elec       q    Type
REMARK                         _______ _______ _______ _____ _____    ______ ____
ROOT
ATOM      6  C   UNL     1      -2.163   2.043  24.519  0.00  0.00    +0.107 A 
ATOM      7  C   UNL     1      -1.429   2.171  24.165  0.00  0.00    +0.041 A 
ATOM      8  C   UNL     1      -0.954   1.529  23.956  0.00  0.00    +0.120 A 
ATOM      9  C   UNL     1      -1.214   0.760  24.101  0.00  0.00    +0.164 A 
ATOM     10  O   UNL     1      -0.631   0.240  23.836  0.00  0.00    -0.438 OA
ATOM     11  C   UNL     1      -0.011   0.688  23.528  0.00  0.00    +0.207 A 
ATOM     12  N   UNL     1      -0.211   1.485  23.602  0.00  0.00    -0.212 NA
ATOM     27  C   UNL     1      -1.948   0.631  24.455  0.00  0.00    +0.040 A 
ATOM     28  C   UNL     1      -2.422   1.273  24.664  0.00  0.00    +0.022 A 
ENDROOT
BRANCH  11  13
ATOM     13  C   UNL     1       0.687   0.392  23.202  0.00  0.00    +0.094 C 
ATOM     14  C   UNL     1       0.745  -0.089  22.535  0.00  0.00    +0.028 C 
ATOM     15  C   UNL     1       1.543  -0.255  22.406  0.00  0.00    +0.073 C 
ATOM     16  N   UNL     1       1.979   0.124  22.995  0.00  0.00    -0.273 NA
ATOM     17  C   UNL     1       1.449   0.524  23.487  0.00  0.00    +0.081 C 
BRANCH  16  18
ATOM     18  C   UNL     1       2.799   0.108  23.079  0.00  0.00    +0.061 C 
ATOM     19  C   UNL     1       3.172  -0.575  23.354  0.00  0.00    +0.038 C 
ATOM     20  C   UNL     1       3.992  -0.592  23.438  0.00  0.00    +0.095 C 
ATOM     21  N   UNL     1       4.440   0.073  23.245  0.00  0.00    -0.279 N 
ATOM     22  C   UNL     1       4.069   0.756  22.970  0.00  0.00    +0.095 C 
ATOM     23  C   UNL     1       3.248   0.773  22.886  0.00  0.00    +0.038 C 
ATOM     24  C   UNL     1       5.261   0.056  23.329  0.00  0.00    +0.226 C 
ATOM     25  C   UNL     1       5.634  -0.626  23.604  0.00  0.00    +0.095 C 
ATOM     26  O   UNL     1       5.709   0.722  23.136  0.00  0.00    -0.275 OA
ENDBRANCH  16  18
ENDBRANCH  11  13
BRANCH   6   3
ATOM      3  S   UNL     1      -2.637   2.684  24.729  0.00  0.00    +0.009 S 
ATOM      4  O   UNL     1      -2.240   2.743  25.449  0.00  0.00    -0.169 OA
ATOM      5  O   UNL     1      -3.035   2.625  24.008  0.00  0.00    -0.169 OA
BRANCH   3   2
ATOM      1  C   UNL     1      -2.943   3.759  25.619  0.00  0.00    +0.028 C 
ATOM      2  C   UNL     1      -3.112   3.326  24.938  0.00  0.00    +0.156 C 
ENDBRANCH   3   2
ENDBRANCH   6   3
TORSDOF 4
ENDMDL
