REMARK  Name = 
REMARK  8 active torsions:
REMARK  status: ('A' for Active; 'I' for Inactive)
REMARK    1  A    between atoms: C_3  and  C_4
REMARK    2  A    between atoms: C_4  and  N_5
REMARK    3  A    between atoms: C_6  and  C_8
REMARK    4  A    between atoms: C_14  and  C_15
REMARK    5  A    between atoms: C_15  and  C_16
REMARK    6  A    between atoms: C_18  and  C_21
REMARK    7  A    between atoms: C_24  and  O_25
REMARK    8  A    between atoms: O_25  and  C_26
REMARK                            x       y       z     vdW  Elec       q    Type
REMARK                         _______ _______ _______ _____ _____    ______ ____
ROOT
ATOM     15  C   UNL     1      -0.459  -5.804   0.000  0.00  0.00    +0.120 C 
ENDROOT
BRANCH  15  14
ATOM      1  O   UNL     1       0.438  -3.042   0.000  0.00  0.00    -0.218 OA
ATOM      2  C   UNL     1       0.438  -3.868   0.000  0.00  0.00    +0.213 C 
ATOM      3  C   UNL     1       1.105  -4.352   0.000  0.00  0.00    +0.170 C 
ATOM     13  O   UNL     1       0.851  -5.137   0.000  0.00  0.00    -0.351 OA
ATOM     14  C   UNL     1       0.025  -5.137   0.000  0.00  0.00    +0.157 C 
ATOM     32  C   UNL     1      -0.229  -4.352   0.000  0.00  0.00    +0.212 C 
ATOM     33  O   UNL     1      -1.014  -4.098   0.000  0.00  0.00    -0.218 OA
BRANCH   3   4
ATOM      4  C   UNL     1       1.890  -4.098   0.000  0.00  0.00    +0.148 C 
BRANCH   4   5
ATOM      5  N   UNL     1       2.062  -3.291   0.000  0.00  0.00    -0.196 NA
ATOM      6  C   UNL     1       2.846  -3.036   0.000  0.00  0.00    +0.300 C 
ATOM      7  O   UNL     1       3.459  -3.588   0.000  0.00  0.00    -0.265 OA
BRANCH   6   8
ATOM      8  C   UNL     1       3.018  -2.229   0.000  0.00  0.00    +0.200 A 
ATOM      9  C   UNL     1       2.466  -1.615   0.000  0.00  0.00    +0.046 A 
ATOM     10  C   UNL     1       2.878  -0.901   0.000  0.00  0.00    +0.044 A 
ATOM     11  C   UNL     1       3.685  -1.073   0.000  0.00  0.00    +0.180 A 
ATOM     12  O   UNL     1       3.772  -1.893   0.000  0.00  0.00    -0.446 OA
ENDBRANCH   6   8
ENDBRANCH   4   5
ENDBRANCH   3   4
ENDBRANCH  15  14
BRANCH  15  16
ATOM     16  C   UNL     1      -1.280  -5.718   0.000  0.00  0.00    +0.239 A 
ATOM     17  N   UNL     1      -1.832  -6.331   0.000  0.00  0.00    -0.191 NA
ATOM     18  C   UNL     1      -2.586  -5.996   0.000  0.00  0.00    +0.203 A 
ATOM     19  N   UNL     1      -2.499  -5.175   0.000  0.00  0.00    -0.056 NA
ATOM     20  O   UNL     1      -1.692  -5.004   0.000  0.00  0.00    -0.337 OA
BRANCH  18  21
ATOM     21  C   UNL     1      -3.300  -6.408   0.000  0.00  0.00    +0.039 A 
ATOM     22  C   UNL     1      -3.300  -7.233   0.000  0.00  0.00    +0.006 A 
ATOM     23  C   UNL     1      -4.014  -7.646   0.000  0.00  0.00    +0.037 A 
ATOM     24  C   UNL     1      -4.729  -7.233   0.000  0.00  0.00    +0.147 A 
ATOM     30  C   UNL     1      -4.729  -6.408   0.000  0.00  0.00    +0.037 A 
ATOM     31  C   UNL     1      -4.014  -5.996   0.000  0.00  0.00    +0.006 A 
BRANCH  24  25
ATOM     25  O   UNL     1      -5.443  -7.646   0.000  0.00  0.00    -0.404 OA
BRANCH  25  26
ATOM     26  C   UNL     1      -5.443  -8.471   0.000  0.00  0.00    +0.575 C 
ATOM     27  F   UNL     1      -5.443  -9.296   0.000  0.00  0.00    -0.133 F 
ATOM     28  F   UNL     1      -6.268  -8.471   0.000  0.00  0.00    -0.133 F 
ATOM     29  F   UNL     1      -4.618  -8.471   0.000  0.00  0.00    -0.133 F 
ENDBRANCH  25  26
ENDBRANCH  24  25
ENDBRANCH  18  21
ENDBRANCH  15  16
TORSDOF 8
