MODEL 1
REMARK VINA RESULT:     -12.7      0.000      0.000
REMARK  Name = 
REMARK  6 active torsions:
REMARK  status: ('A' for Active; 'I' for Inactive)
REMARK    1  A    between atoms: C_2  and  C_4
REMARK    2  A    between atoms: N_7  and  C_10
REMARK    3  A    between atoms: C_12  and  C_16
REMARK    4  A    between atoms: C_19  and  C_21
REMARK    5  A    between atoms: N_25  and  C_26
REMARK    6  A    between atoms: C_26  and  C_27
REMARK                            x       y       z     vdW  Elec       q    Type
REMARK                         _______ _______ _______ _____ _____    ______ ____
ROOT
ATOM     16  C   UNL     1      -4.029   3.009  25.456  0.00  0.00    +0.203 A 
ATOM     17  N   UNL     1      -4.174   3.561  26.053  0.00  0.00    -0.056 NA
ATOM     18  O   UNL     1      -3.529   4.075  26.087  0.00  0.00    -0.336 OA
ATOM     19  C   UNL     1      -2.986   3.842  25.511  0.00  0.00    +0.251 A 
ATOM     20  N   UNL     1      -3.295   3.183  25.121  0.00  0.00    -0.190 NA
ENDROOT
BRANCH  16  12
ATOM     10  C   UNL     1      -4.727   1.019  24.898  0.00  0.00    +0.132 A 
ATOM     11  C   UNL     1      -4.226   1.635  25.121  0.00  0.00    +0.037 A 
ATOM     12  C   UNL     1      -4.530   2.393  25.233  0.00  0.00    +0.043 A 
ATOM     13  C   UNL     1      -5.335   2.536  25.124  0.00  0.00    +0.024 A 
ATOM     14  C   UNL     1      -5.836   1.919  24.901  0.00  0.00    +0.100 A 
ATOM     15  N   UNL     1      -5.532   1.160  24.788  0.00  0.00    -0.229 NA
BRANCH  10   7
ATOM      4  C   UNL     1      -3.814  -1.257  24.560  0.00  0.00    +0.083 C 
ATOM      5  C   UNL     1      -3.900  -0.956  25.323  0.00  0.00    +0.031 C 
ATOM      6  C   UNL     1      -4.204  -0.197  25.436  0.00  0.00    +0.093 C 
ATOM      7  N   UNL     1      -4.422   0.259  24.785  0.00  0.00    -0.293 N 
ATOM      8  C   UNL     1      -4.337  -0.042  24.022  0.00  0.00    +0.093 C 
ATOM      9  C   UNL     1      -4.033  -0.800  23.910  0.00  0.00    +0.031 C 
BRANCH   4   2
ATOM      1  N   UNL     1      -2.722  -2.175  24.633  0.00  0.00    -0.088 NA
ATOM      2  C   UNL     1      -3.510  -2.016  24.448  0.00  0.00    +0.260 C 
ATOM      3  O   UNL     1      -3.993  -2.615  24.151  0.00  0.00    -0.272 OA
ENDBRANCH   4   2
ENDBRANCH  10   7
ENDBRANCH  16  12
BRANCH  19  21
ATOM     21  C   UNL     1      -2.262   4.203  25.353  0.00  0.00    +0.138 C 
ATOM     22  C   UNL     1      -2.153   4.983  25.106  0.00  0.00    +0.027 C 
ATOM     23  C   UNL     1      -1.343   5.111  25.013  0.00  0.00    +0.019 C 
ATOM     24  C   UNL     1      -0.951   4.409  25.204  0.00  0.00    +0.073 C 
ATOM     25  N   UNL     1      -1.520   3.849  25.413  0.00  0.00    -0.263 NA
BRANCH  25  26
ATOM     26  C   UNL     1      -1.371   3.071  25.643  0.00  0.00    +0.101 C 
BRANCH  26  27
ATOM     27  C   UNL     1      -0.697   2.682  25.370  0.00  0.00    +0.013 A 
ATOM     28  C   UNL     1      -0.692   2.341  24.619  0.00  0.00    +0.000 A 
ATOM     29  C   UNL     1      -0.017   1.951  24.347  0.00  0.00    +0.020 A 
ATOM     30  C   UNL     1       0.653   1.903  24.826  0.00  0.00    +0.099 A 
ATOM     31  N   UNL     1       0.648   2.245  25.577  0.00  0.00    -0.243 NA
ATOM     32  C   UNL     1      -0.026   2.633  25.849  0.00  0.00    +0.096 A 
ENDBRANCH  26  27
ENDBRANCH  25  26
ENDBRANCH  19  21
TORSDOF 6
ENDMDL
MODEL 2
REMARK VINA RESULT:     -12.6      1.885      4.604
REMARK  Name = 
REMARK  6 active torsions:
REMARK  status: ('A' for Active; 'I' for Inactive)
REMARK    1  A    between atoms: C_2  and  C_4
REMARK    2  A    between atoms: N_7  and  C_10
REMARK    3  A    between atoms: C_12  and  C_16
REMARK    4  A    between atoms: C_19  and  C_21
REMARK    5  A    between atoms: N_25  and  C_26
REMARK    6  A    between atoms: C_26  and  C_27
REMARK                            x       y       z     vdW  Elec       q    Type
REMARK                         _______ _______ _______ _____ _____    ______ ____
ROOT
ATOM     16  C   UNL     1      -0.442   2.699  24.919  0.00  0.00    +0.203 A 
ATOM     17  N   UNL     1       0.223   2.531  25.379  0.00  0.00    -0.056 NA
ATOM     18  O   UNL     1       0.546   1.821  25.110  0.00  0.00    -0.336 OA
ATOM     19  C   UNL     1       0.082   1.550  24.485  0.00  0.00    +0.251 A 
ATOM     20  N   UNL     1      -0.529   2.092  24.367  0.00  0.00    -0.190 NA
ENDROOT
BRANCH  16  12
ATOM     10  C   UNL     1      -2.236   3.914  25.170  0.00  0.00    +0.132 A 
ATOM     11  C   UNL     1      -1.746   3.256  25.091  0.00  0.00    +0.037 A 
ATOM     12  C   UNL     1      -0.933   3.357  24.998  0.00  0.00    +0.043 A 
ATOM     13  C   UNL     1      -0.609   4.116  24.984  0.00  0.00    +0.024 A 
ATOM     14  C   UNL     1      -1.100   4.774  25.063  0.00  0.00    +0.100 A 
ATOM     15  N   UNL     1      -1.914   4.674  25.156  0.00  0.00    -0.229 NA
BRANCH  10   7
ATOM      4  C   UNL     1      -4.677   3.612  25.450  0.00  0.00    +0.083 C 
ATOM      5  C   UNL     1      -4.199   3.746  26.109  0.00  0.00    +0.031 C 
ATOM      6  C   UNL     1      -3.386   3.846  26.016  0.00  0.00    +0.093 C 
ATOM      7  N   UNL     1      -3.051   3.814  25.263  0.00  0.00    -0.293 N 
ATOM      8  C   UNL     1      -3.528   3.680  24.604  0.00  0.00    +0.093 C 
ATOM      9  C   UNL     1      -4.341   3.580  24.697  0.00  0.00    +0.031 C 
BRANCH   4   2
ATOM      1  N   UNL     1      -5.825   2.762  25.461  0.00  0.00    -0.088 NA
ATOM      2  C   UNL     1      -5.490   3.512  25.544  0.00  0.00    +0.260 C 
ATOM      3  O   UNL     1      -5.969   4.159  25.720  0.00  0.00    -0.272 OA
ENDBRANCH   4   2
ENDBRANCH  10   7
ENDBRANCH  16  12
BRANCH  19  21
ATOM     21  C   UNL     1       0.205   0.858  24.053  0.00  0.00    +0.138 C 
ATOM     22  C   UNL     1       0.677   0.784  23.380  0.00  0.00    +0.027 C 
ATOM     23  C   UNL     1       0.643  -0.001  23.129  0.00  0.00    +0.019 C 
ATOM     24  C   UNL     1       0.150  -0.413  23.647  0.00  0.00    +0.073 C 
ATOM     25  N   UNL     1      -0.121   0.118  24.218  0.00  0.00    -0.263 NA
BRANCH  25  26
ATOM     26  C   UNL     1      -0.628  -0.060  24.844  0.00  0.00    +0.101 C 
BRANCH  26  27
ATOM     27  C   UNL     1      -1.038  -0.775  24.852  0.00  0.00    +0.013 A 
ATOM     28  C   UNL     1      -1.812  -0.810  24.567  0.00  0.00    +0.000 A 
ATOM     29  C   UNL     1      -2.222  -1.526  24.576  0.00  0.00    +0.020 A 
ATOM     30  C   UNL     1      -1.859  -2.206  24.869  0.00  0.00    +0.099 A 
ATOM     31  N   UNL     1      -1.086  -2.171  25.153  0.00  0.00    -0.243 NA
ATOM     32  C   UNL     1      -0.675  -1.456  25.145  0.00  0.00    +0.096 A 
ENDBRANCH  26  27
ENDBRANCH  25  26
ENDBRANCH  19  21
TORSDOF 6
ENDMDL
MODEL 3
REMARK VINA RESULT:     -12.5      1.505      3.445
REMARK  Name = 
REMARK  6 active torsions:
REMARK  status: ('A' for Active; 'I' for Inactive)
REMARK    1  A    between atoms: C_2  and  C_4
REMARK    2  A    between atoms: N_7  and  C_10
REMARK    3  A    between atoms: C_12  and  C_16
REMARK    4  A    between atoms: C_19  and  C_21
REMARK    5  A    between atoms: N_25  and  C_26
REMARK    6  A    between atoms: C_26  and  C_27
REMARK                            x       y       z     vdW  Elec       q    Type
REMARK                         _______ _______ _______ _____ _____    ______ ____
ROOT
ATOM     16  C   UNL     1      -0.540   1.683  25.057  0.00  0.00    +0.203 A 
ATOM     17  N   UNL     1      -0.165   1.904  25.758  0.00  0.00    -0.056 NA
ATOM     18  O   UNL     1      -0.386   2.680  25.932  0.00  0.00    -0.336 OA
ATOM     19  C   UNL     1      -0.898   2.938  25.339  0.00  0.00    +0.251 A 
ATOM     20  N   UNL     1      -0.993   2.322  24.798  0.00  0.00    -0.190 NA
ENDROOT
BRANCH  16  12
ATOM     10  C   UNL     1      -1.001  -0.345  24.398  0.00  0.00    +0.132 A 
ATOM     11  C   UNL     1      -1.067   0.386  24.773  0.00  0.00    +0.037 A 
ATOM     12  C   UNL     1      -0.474   0.952  24.681  0.00  0.00    +0.043 A 
ATOM     13  C   UNL     1       0.186   0.786  24.214  0.00  0.00    +0.024 A 
ATOM     14  C   UNL     1       0.252   0.055  23.839  0.00  0.00    +0.100 A 
ATOM     15  N   UNL     1      -0.342  -0.512  23.930  0.00  0.00    -0.229 NA
BRANCH  10   7
ATOM      4  C   UNL     1      -2.782  -2.042  24.672  0.00  0.00    +0.083 C 
ATOM      5  C   UNL     1      -1.988  -2.267  24.709  0.00  0.00    +0.031 C 
ATOM      6  C   UNL     1      -1.395  -1.701  24.618  0.00  0.00    +0.093 C 
ATOM      7  N   UNL     1      -1.595  -0.911  24.489  0.00  0.00    -0.293 N 
ATOM      8  C   UNL     1      -2.388  -0.687  24.452  0.00  0.00    +0.093 C 
ATOM      9  C   UNL     1      -2.981  -1.253  24.544  0.00  0.00    +0.031 C 
BRANCH   4   2
ATOM      1  N   UNL     1      -3.873  -2.790  24.132  0.00  0.00    -0.088 NA
ATOM      2  C   UNL     1      -3.374  -2.609  24.764  0.00  0.00    +0.260 C 
ATOM      3  O   UNL     1      -3.469  -2.994  25.487  0.00  0.00    -0.272 OA
ENDBRANCH   4   2
ENDBRANCH  10   7
ENDBRANCH  16  12
BRANCH  19  21
ATOM     21  C   UNL     1      -1.252   3.682  25.294  0.00  0.00    +0.138 C 
ATOM     22  C   UNL     1      -0.879   4.384  25.073  0.00  0.00    +0.027 C 
ATOM     23  C   UNL     1      -1.437   4.990  25.104  0.00  0.00    +0.019 C 
ATOM     24  C   UNL     1      -2.156   4.663  25.344  0.00  0.00    +0.073 C 
ATOM     25  N   UNL     1      -2.041   3.854  25.461  0.00  0.00    -0.263 NA
BRANCH  25  26
ATOM     26  C   UNL     1      -2.615   3.313  25.702  0.00  0.00    +0.101 C 
BRANCH  26  27
ATOM     27  C   UNL     1      -3.414   3.478  25.583  0.00  0.00    +0.013 A 
ATOM     28  C   UNL     1      -3.776   3.274  24.871  0.00  0.00    +0.000 A 
ATOM     29  C   UNL     1      -4.576   3.440  24.752  0.00  0.00    +0.020 A 
ATOM     30  C   UNL     1      -5.013   3.810  25.346  0.00  0.00    +0.099 A 
ATOM     31  N   UNL     1      -4.651   4.014  26.058  0.00  0.00    -0.243 NA
ATOM     32  C   UNL     1      -3.852   3.849  26.177  0.00  0.00    +0.096 A 
ENDBRANCH  26  27
ENDBRANCH  25  26
ENDBRANCH  19  21
TORSDOF 6
ENDMDL
MODEL 4
REMARK VINA RESULT:     -12.4      1.535      4.717
REMARK  Name = 
REMARK  6 active torsions:
REMARK  status: ('A' for Active; 'I' for Inactive)
REMARK    1  A    between atoms: C_2  and  C_4
REMARK    2  A    between atoms: N_7  and  C_10
REMARK    3  A    between atoms: C_12  and  C_16
REMARK    4  A    between atoms: C_19  and  C_21
REMARK    5  A    between atoms: N_25  and  C_26
REMARK    6  A    between atoms: C_26  and  C_27
REMARK                            x       y       z     vdW  Elec       q    Type
REMARK                         _______ _______ _______ _____ _____    ______ ____
ROOT
ATOM     16  C   UNL     1      -4.582   0.960  25.210  0.00  0.00    +0.203 A 
ATOM     17  N   UNL     1      -4.903   0.476  25.796  0.00  0.00    -0.056 NA
ATOM     18  O   UNL     1      -4.691  -0.304  25.627  0.00  0.00    -0.336 OA
ATOM     19  C   UNL     1      -4.239  -0.301  24.936  0.00  0.00    +0.251 A 
ATOM     20  N   UNL     1      -4.172   0.480  24.679  0.00  0.00    -0.190 NA
ENDROOT
BRANCH  16  12
ATOM     10  C   UNL     1      -4.060   3.077  25.116  0.00  0.00    +0.132 A 
ATOM     11  C   UNL     1      -3.985   2.257  25.162  0.00  0.00    +0.037 A 
ATOM     12  C   UNL     1      -4.657   1.780  25.164  0.00  0.00    +0.043 A 
ATOM     13  C   UNL     1      -5.407   2.123  25.119  0.00  0.00    +0.024 A 
ATOM     14  C   UNL     1      -5.482   2.943  25.073  0.00  0.00    +0.100 A 
ATOM     15  N   UNL     1      -4.809   3.421  25.072  0.00  0.00    -0.229 NA
BRANCH  10   7
ATOM      4  C   UNL     1      -2.041   4.508  25.111  0.00  0.00    +0.083 C 
ATOM      5  C   UNL     1      -2.388   4.287  25.826  0.00  0.00    +0.031 C 
ATOM      6  C   UNL     1      -3.061   3.810  25.828  0.00  0.00    +0.093 C 
ATOM      7  N   UNL     1      -3.387   3.554  25.114  0.00  0.00    -0.293 N 
ATOM      8  C   UNL     1      -3.040   3.776  24.400  0.00  0.00    +0.093 C 
ATOM      9  C   UNL     1      -2.367   4.253  24.398  0.00  0.00    +0.031 C 
BRANCH   4   2
ATOM      1  N   UNL     1      -0.620   4.642  25.061  0.00  0.00    -0.088 NA
ATOM      2  C   UNL     1      -1.368   4.985  25.110  0.00  0.00    +0.260 C 
ATOM      3  O   UNL     1      -1.443   5.805  25.158  0.00  0.00    -0.272 OA
ENDBRANCH   4   2
ENDBRANCH  10   7
ENDBRANCH  16  12
BRANCH  19  21
ATOM     21  C   UNL     1      -3.913  -0.963  24.568  0.00  0.00    +0.138 C 
ATOM     22  C   UNL     1      -4.297  -1.457  24.030  0.00  0.00    +0.027 C 
ATOM     23  C   UNL     1      -3.767  -2.046  23.801  0.00  0.00    +0.019 C 
ATOM     24  C   UNL     1      -3.055  -1.916  24.198  0.00  0.00    +0.073 C 
ATOM     25  N   UNL     1      -3.145  -1.247  24.672  0.00  0.00    -0.263 NA
BRANCH  25  26
ATOM     26  C   UNL     1      -2.569  -0.919  25.163  0.00  0.00    +0.101 C 
BRANCH  26  27
ATOM     27  C   UNL     1      -1.770  -1.049  25.006  0.00  0.00    +0.013 A 
ATOM     28  C   UNL     1      -1.375  -1.675  25.369  0.00  0.00    +0.000 A 
ATOM     29  C   UNL     1      -0.575  -1.806  25.212  0.00  0.00    +0.020 A 
ATOM     30  C   UNL     1      -0.172  -1.309  24.692  0.00  0.00    +0.099 A 
ATOM     31  N   UNL     1      -0.567  -0.683  24.329  0.00  0.00    -0.243 NA
ATOM     32  C   UNL     1      -1.366  -0.552  24.486  0.00  0.00    +0.096 A 
ENDBRANCH  26  27
ENDBRANCH  25  26
ENDBRANCH  19  21
TORSDOF 6
ENDMDL
MODEL 5
REMARK VINA RESULT:     -10.6      1.457      5.671
REMARK  Name = 
REMARK  6 active torsions:
REMARK  status: ('A' for Active; 'I' for Inactive)
REMARK    1  A    between atoms: C_2  and  C_4
REMARK    2  A    between atoms: N_7  and  C_10
REMARK    3  A    between atoms: C_12  and  C_16
REMARK    4  A    between atoms: C_19  and  C_21
REMARK    5  A    between atoms: N_25  and  C_26
REMARK    6  A    between atoms: C_26  and  C_27
REMARK                            x       y       z     vdW  Elec       q    Type
REMARK                         _______ _______ _______ _____ _____    ______ ____
ROOT
ATOM     16  C   UNL     1      -1.351  -0.045  24.605  0.00  0.00    +0.203 A 
ATOM     17  N   UNL     1      -1.268  -0.746  25.034  0.00  0.00    -0.056 NA
ATOM     18  O   UNL     1      -1.993  -1.140  25.020  0.00  0.00    -0.336 OA
ATOM     19  C   UNL     1      -2.524  -0.683  24.584  0.00  0.00    +0.251 A 
ATOM     20  N   UNL     1      -2.127  -0.007  24.327  0.00  0.00    -0.190 NA
ENDROOT
BRANCH  16  12
ATOM     10  C   UNL     1      -0.331   1.879  24.476  0.00  0.00    +0.132 A 
ATOM     11  C   UNL     1      -0.920   1.316  24.604  0.00  0.00    +0.037 A 
ATOM     12  C   UNL     1      -0.762   0.517  24.477  0.00  0.00    +0.043 A 
ATOM     13  C   UNL     1      -0.014   0.280  24.222  0.00  0.00    +0.024 A 
ATOM     14  C   UNL     1       0.576   0.842  24.094  0.00  0.00    +0.100 A 
ATOM     15  N   UNL     1       0.418   1.643  24.221  0.00  0.00    -0.229 NA
BRANCH  10   7
ATOM      4  C   UNL     1      -0.805   4.278  24.856  0.00  0.00    +0.083 C 
ATOM      5  C   UNL     1      -0.785   3.755  25.494  0.00  0.00    +0.031 C 
ATOM      6  C   UNL     1      -0.627   2.956  25.367  0.00  0.00    +0.093 C 
ATOM      7  N   UNL     1      -0.489   2.679  24.603  0.00  0.00    -0.293 N 
ATOM      8  C   UNL     1      -0.509   3.202  23.965  0.00  0.00    +0.093 C 
ATOM      9  C   UNL     1      -0.667   4.001  24.092  0.00  0.00    +0.031 C 
BRANCH   4   2
ATOM      1  N   UNL     1      -1.678   5.307  25.326  0.00  0.00    -0.088 NA
ATOM      2  C   UNL     1      -0.963   5.078  24.984  0.00  0.00    +0.260 C 
ATOM      3  O   UNL     1      -0.408   5.648  24.769  0.00  0.00    -0.272 OA
ENDBRANCH   4   2
ENDBRANCH  10   7
ENDBRANCH  16  12
BRANCH  19  21
ATOM     21  C   UNL     1      -3.312  -0.870  24.430  0.00  0.00    +0.138 C 
ATOM     22  C   UNL     1      -3.582  -1.516  23.992  0.00  0.00    +0.027 C 
ATOM     23  C   UNL     1      -4.406  -1.489  23.979  0.00  0.00    +0.019 C 
ATOM     24  C   UNL     1      -4.647  -0.827  24.409  0.00  0.00    +0.073 C 
ATOM     25  N   UNL     1      -3.971  -0.444  24.688  0.00  0.00    -0.263 NA
BRANCH  25  26
ATOM     26  C   UNL     1      -3.956   0.243  25.143  0.00  0.00    +0.101 C 
BRANCH  26  27
ATOM     27  C   UNL     1      -4.571   0.789  25.087  0.00  0.00    +0.013 A 
ATOM     28  C   UNL     1      -4.520   1.415  24.553  0.00  0.00    +0.000 A 
ATOM     29  C   UNL     1      -5.135   1.962  24.497  0.00  0.00    +0.020 A 
ATOM     30  C   UNL     1      -5.803   1.881  24.975  0.00  0.00    +0.099 A 
ATOM     31  N   UNL     1      -5.855   1.254  25.508  0.00  0.00    -0.243 NA
ATOM     32  C   UNL     1      -5.239   0.708  25.565  0.00  0.00    +0.096 A 
ENDBRANCH  26  27
ENDBRANCH  25  26
ENDBRANCH  19  21
TORSDOF 6
ENDMDL
