MODEL 1
REMARK VINA RESULT:     -12.4      0.000      0.000
REMARK  Name = 
REMARK  2 active torsions:
REMARK  status: ('A' for Active; 'I' for Inactive)
REMARK    1  A    between atoms: C_7  and  N_10
REMARK    2  A    between atoms: C_13  and  C_15
REMARK                            x       y       z     vdW  Elec       q    Type
REMARK                         _______ _______ _______ _____ _____    ______ ____
ROOT
ATOM     10  N   UNL     1      -3.356   2.215  24.904  0.00  0.00    -0.273 NA
ATOM     11  C   UNL     1      -4.181   2.210  24.892  0.00  0.00    +0.073 C 
ATOM     12  C   UNL     1      -4.430   1.425  24.839  0.00  0.00    +0.028 C 
ATOM     13  C   UNL     1      -3.759   0.945  24.819  0.00  0.00    +0.094 C 
ATOM     14  C   UNL     1      -3.095   1.434  24.859  0.00  0.00    +0.081 C 
ENDROOT
BRANCH  13  15
ATOM     15  C   UNL     1      -3.752   0.122  24.767  0.00  0.00    +0.207 A 
ATOM     16  N   UNL     1      -4.057  -0.328  24.146  0.00  0.00    -0.212 NA
ATOM     17  C   UNL     1      -3.933  -1.123  24.323  0.00  0.00    +0.119 A 
ATOM     18  C   UNL     1      -3.552  -1.166  25.054  0.00  0.00    +0.164 A 
ATOM     19  O   UNL     1      -3.440  -0.397  25.329  0.00  0.00    -0.438 OA
ATOM     20  C   UNL     1      -3.356  -1.901  25.374  0.00  0.00    +0.040 A 
ATOM     21  C   UNL     1      -3.541  -2.592  24.965  0.00  0.00    +0.015 A 
ATOM     22  C   UNL     1      -3.922  -2.550  24.234  0.00  0.00    +0.059 A 
ATOM     23 CL   UNL     1      -4.107  -3.241  23.824  0.00  0.00    -0.082 Cl
ATOM     24  C   UNL     1      -4.118  -1.816  23.913  0.00  0.00    +0.034 A 
ENDBRANCH  13  15
BRANCH  10   7
ATOM      1  C   UNL     1      -0.657   4.861  24.832  0.00  0.00    +0.095 C 
ATOM      2  C   UNL     1      -1.437   4.893  25.099  0.00  0.00    +0.226 C 
ATOM      3  O   UNL     1      -1.737   5.593  25.415  0.00  0.00    -0.275 OA
ATOM      4  N   UNL     1      -1.917   4.223  25.050  0.00  0.00    -0.279 N 
ATOM      5  C   UNL     1      -2.696   4.254  25.318  0.00  0.00    +0.095 C 
ATOM      6  C   UNL     1      -3.176   3.585  25.269  0.00  0.00    +0.038 C 
ATOM      7  C   UNL     1      -2.877   2.884  24.953  0.00  0.00    +0.061 C 
ATOM      8  C   UNL     1      -2.096   2.853  24.685  0.00  0.00    +0.038 C 
ATOM      9  C   UNL     1      -1.616   3.523  24.734  0.00  0.00    +0.095 C 
ENDBRANCH  10   7
TORSDOF 2
ENDMDL
MODEL 2
REMARK VINA RESULT:     -12.3      2.110      5.552
REMARK  Name = 
REMARK  2 active torsions:
REMARK  status: ('A' for Active; 'I' for Inactive)
REMARK    1  A    between atoms: C_7  and  N_10
REMARK    2  A    between atoms: C_13  and  C_15
REMARK                            x       y       z     vdW  Elec       q    Type
REMARK                         _______ _______ _______ _____ _____    ______ ____
ROOT
ATOM     10  N   UNL     1      -3.851   0.655  24.804  0.00  0.00    -0.273 NA
ATOM     11  C   UNL     1      -4.535   1.117  24.807  0.00  0.00    +0.073 C 
ATOM     12  C   UNL     1      -4.308   1.908  24.872  0.00  0.00    +0.028 C 
ATOM     13  C   UNL     1      -3.484   1.934  24.909  0.00  0.00    +0.094 C 
ATOM     14  C   UNL     1      -3.202   1.160  24.868  0.00  0.00    +0.081 C 
ENDROOT
BRANCH  13  15
ATOM     15  C   UNL     1      -3.023   2.615  24.977  0.00  0.00    +0.207 A 
ATOM     16  N   UNL     1      -2.260   2.716  24.679  0.00  0.00    -0.212 NA
ATOM     17  C   UNL     1      -2.011   3.478  24.872  0.00  0.00    +0.119 A 
ATOM     18  C   UNL     1      -2.619   3.848  25.289  0.00  0.00    +0.164 A 
ATOM     19  O   UNL     1      -3.245   3.315  25.354  0.00  0.00    -0.438 OA
ATOM     20  C   UNL     1      -2.523   4.623  25.555  0.00  0.00    +0.040 A 
ATOM     21  C   UNL     1      -1.821   5.028  25.405  0.00  0.00    +0.015 A 
ATOM     22  C   UNL     1      -1.213   4.658  24.989  0.00  0.00    +0.059 A 
ATOM     23 CL   UNL     1      -0.509   5.062  24.838  0.00  0.00    -0.082 Cl
ATOM     24  C   UNL     1      -1.307   3.883  24.722  0.00  0.00    +0.034 A 
ENDBRANCH  13  15
BRANCH  10   7
ATOM      1  C   UNL     1      -3.946  -3.009  23.877  0.00  0.00    +0.095 C 
ATOM      2  C   UNL     1      -3.734  -2.636  24.582  0.00  0.00    +0.226 C 
ATOM      3  O   UNL     1      -3.493  -3.084  25.230  0.00  0.00    -0.275 OA
ATOM      4  N   UNL     1      -3.763  -1.813  24.637  0.00  0.00    -0.279 N 
ATOM      5  C   UNL     1      -3.552  -1.439  25.341  0.00  0.00    +0.095 C 
ATOM      6  C   UNL     1      -3.581  -0.617  25.397  0.00  0.00    +0.038 C 
ATOM      7  C   UNL     1      -3.822  -0.167  24.749  0.00  0.00    +0.061 C 
ATOM      8  C   UNL     1      -4.034  -0.541  24.044  0.00  0.00    +0.038 C 
ATOM      9  C   UNL     1      -4.004  -1.364  23.988  0.00  0.00    +0.095 C 
ENDBRANCH  10   7
TORSDOF 2
ENDMDL
MODEL 3
REMARK VINA RESULT:      -9.5      3.279      4.210
REMARK  Name = 
REMARK  2 active torsions:
REMARK  status: ('A' for Active; 'I' for Inactive)
REMARK    1  A    between atoms: C_7  and  N_10
REMARK    2  A    between atoms: C_13  and  C_15
REMARK                            x       y       z     vdW  Elec       q    Type
REMARK                         _______ _______ _______ _____ _____    ______ ____
ROOT
ATOM     10  N   UNL     1      -0.980   0.416  24.470  0.00  0.00    -0.273 NA
ATOM     11  C   UNL     1      -1.187  -0.067  25.105  0.00  0.00    +0.073 C 
ATOM     12  C   UNL     1      -1.957   0.127  25.333  0.00  0.00    +0.028 C 
ATOM     13  C   UNL     1      -2.224   0.731  24.838  0.00  0.00    +0.094 C 
ATOM     14  C   UNL     1      -1.621   0.910  24.305  0.00  0.00    +0.081 C 
ENDROOT
BRANCH  13  15
ATOM     15  C   UNL     1      -2.965   1.092  24.870  0.00  0.00    +0.207 A 
ATOM     16  N   UNL     1      -3.694   0.706  24.863  0.00  0.00    -0.212 NA
ATOM     17  C   UNL     1      -4.286   1.278  24.905  0.00  0.00    +0.119 A 
ATOM     18  C   UNL     1      -3.924   2.018  24.937  0.00  0.00    +0.164 A 
ATOM     19  O   UNL     1      -3.108   1.904  24.916  0.00  0.00    -0.438 OA
ATOM     20  C   UNL     1      -4.385   2.701  24.982  0.00  0.00    +0.040 A 
ATOM     21  C   UNL     1      -5.207   2.644  24.994  0.00  0.00    +0.015 A 
ATOM     22  C   UNL     1      -5.570   1.903  24.961  0.00  0.00    +0.059 A 
ATOM     23 CL   UNL     1      -6.392   1.845  24.973  0.00  0.00    -0.082 Cl
ATOM     24  C   UNL     1      -5.110   1.220  24.917  0.00  0.00    +0.034 A 
ENDBRANCH  13  15
BRANCH  10   7
ATOM      1  C   UNL     1       2.098  -0.247  22.377  0.00  0.00    +0.095 C 
ATOM      2  C   UNL     1       1.907   0.387  22.870  0.00  0.00    +0.226 C 
ATOM      3  O   UNL     1       2.435   1.012  22.962  0.00  0.00    -0.275 OA
ATOM      4  N   UNL     1       1.185   0.394  23.270  0.00  0.00    -0.279 N 
ATOM      5  C   UNL     1       0.992   1.027  23.762  0.00  0.00    +0.095 C 
ATOM      6  C   UNL     1       0.271   1.035  24.162  0.00  0.00    +0.038 C 
ATOM      7  C   UNL     1      -0.259   0.409  24.070  0.00  0.00    +0.061 C 
ATOM      8  C   UNL     1      -0.066  -0.225  23.577  0.00  0.00    +0.038 C 
ATOM      9  C   UNL     1       0.656  -0.232  23.177  0.00  0.00    +0.095 C 
ENDBRANCH  10   7
TORSDOF 2
ENDMDL
MODEL 4
REMARK VINA RESULT:      -9.1      2.304      2.822
REMARK  Name = 
REMARK  2 active torsions:
REMARK  status: ('A' for Active; 'I' for Inactive)
REMARK    1  A    between atoms: C_7  and  N_10
REMARK    2  A    between atoms: C_13  and  C_15
REMARK                            x       y       z     vdW  Elec       q    Type
REMARK                         _______ _______ _______ _____ _____    ______ ____
ROOT
ATOM     10  N   UNL     1      -4.397   0.918  24.914  0.00  0.00    -0.273 NA
ATOM     11  C   UNL     1      -4.859   0.294  24.633  0.00  0.00    +0.073 C 
ATOM     12  C   UNL     1      -4.376  -0.372  24.570  0.00  0.00    +0.028 C 
ATOM     13  C   UNL     1      -3.615  -0.160  24.811  0.00  0.00    +0.094 C 
ATOM     14  C   UNL     1      -3.629   0.637  25.024  0.00  0.00    +0.081 C 
ENDROOT
BRANCH  13  15
ATOM     15  C   UNL     1      -2.958  -0.658  24.836  0.00  0.00    +0.207 A 
ATOM     16  N   UNL     1      -2.255  -0.513  25.242  0.00  0.00    -0.212 NA
ATOM     17  C   UNL     1      -1.751  -1.153  25.116  0.00  0.00    +0.119 A 
ATOM     18  C   UNL     1      -2.143  -1.694  24.632  0.00  0.00    +0.164 A 
ATOM     19  O   UNL     1      -2.889  -1.389  24.459  0.00  0.00    -0.438 OA
ATOM     20  C   UNL     1      -1.769  -2.396  24.412  0.00  0.00    +0.040 A 
ATOM     21  C   UNL     1      -1.004  -2.557  24.675  0.00  0.00    +0.015 A 
ATOM     22  C   UNL     1      -0.612  -2.015  25.158  0.00  0.00    +0.059 A 
ATOM     23 CL   UNL     1       0.153  -2.175  25.422  0.00  0.00    -0.082 Cl
ATOM     24  C   UNL     1      -0.985  -1.314  25.379  0.00  0.00    +0.034 A 
ENDBRANCH  13  15
BRANCH  10   7
ATOM      1  C   UNL     1      -4.946   4.636  25.326  0.00  0.00    +0.095 C 
ATOM      2  C   UNL     1      -5.439   3.995  25.494  0.00  0.00    +0.226 C 
ATOM      3  O   UNL     1      -6.191   4.124  25.806  0.00  0.00    -0.275 OA
ATOM      4  N   UNL     1      -5.178   3.225  25.349  0.00  0.00    -0.279 N 
ATOM      5  C   UNL     1      -5.670   2.585  25.516  0.00  0.00    +0.095 C 
ATOM      6  C   UNL     1      -5.410   1.816  25.371  0.00  0.00    +0.038 C 
ATOM      7  C   UNL     1      -4.657   1.687  25.058  0.00  0.00    +0.061 C 
ATOM      8  C   UNL     1      -4.165   2.328  24.891  0.00  0.00    +0.038 C 
ATOM      9  C   UNL     1      -4.426   3.098  25.036  0.00  0.00    +0.095 C 
ENDBRANCH  10   7
TORSDOF 2
ENDMDL
MODEL 5
REMARK VINA RESULT:      -8.7      3.097      4.349
REMARK  Name = 
REMARK  2 active torsions:
REMARK  status: ('A' for Active; 'I' for Inactive)
REMARK    1  A    between atoms: C_7  and  N_10
REMARK    2  A    between atoms: C_13  and  C_15
REMARK                            x       y       z     vdW  Elec       q    Type
REMARK                         _______ _______ _______ _____ _____    ______ ____
ROOT
ATOM     10  N   UNL     1      -2.735   0.630  24.879  0.00  0.00    -0.273 NA
ATOM     11  C   UNL     1      -2.521  -0.075  25.250  0.00  0.00    +0.073 C 
ATOM     12  C   UNL     1      -1.743  -0.249  25.038  0.00  0.00    +0.028 C 
ATOM     13  C   UNL     1      -1.476   0.349  24.536  0.00  0.00    +0.094 C 
ATOM     14  C   UNL     1      -2.089   0.892  24.438  0.00  0.00    +0.081 C 
ENDROOT
BRANCH  13  15
ATOM     15  C   UNL     1      -0.727   0.395  24.193  0.00  0.00    +0.207 A 
ATOM     16  N   UNL     1      -0.404  -0.144  23.659  0.00  0.00    -0.212 NA
ATOM     17  C   UNL     1       0.352   0.116  23.460  0.00  0.00    +0.119 A 
ATOM     18  C   UNL     1       0.497   0.817  23.870  0.00  0.00    +0.164 A 
ATOM     19  O   UNL     1      -0.169   0.990  24.323  0.00  0.00    -0.438 OA
ATOM     20  C   UNL     1       1.219   1.207  23.778  0.00  0.00    +0.040 A 
ATOM     21  C   UNL     1       1.794   0.897  23.275  0.00  0.00    +0.015 A 
ATOM     22  C   UNL     1       1.649   0.196  22.865  0.00  0.00    +0.059 A 
ATOM     23 CL   UNL     1       2.224  -0.114  22.362  0.00  0.00    -0.082 Cl
ATOM     24  C   UNL     1       0.928  -0.194  22.956  0.00  0.00    +0.034 A 
ENDBRANCH  13  15
BRANCH  10   7
ATOM      1  C   UNL     1      -5.698   2.935  25.333  0.00  0.00    +0.095 C 
ATOM      2  C   UNL     1      -5.661   2.139  25.117  0.00  0.00    +0.226 C 
ATOM      3  O   UNL     1      -6.354   1.721  24.961  0.00  0.00    -0.275 OA
ATOM      4  N   UNL     1      -4.929   1.762  25.058  0.00  0.00    -0.279 N 
ATOM      5  C   UNL     1      -4.891   0.967  24.842  0.00  0.00    +0.095 C 
ATOM      6  C   UNL     1      -4.160   0.590  24.783  0.00  0.00    +0.038 C 
ATOM      7  C   UNL     1      -3.466   1.007  24.939  0.00  0.00    +0.061 C 
ATOM      8  C   UNL     1      -3.504   1.803  25.155  0.00  0.00    +0.038 C 
ATOM      9  C   UNL     1      -4.236   2.180  25.214  0.00  0.00    +0.095 C 
ENDBRANCH  10   7
TORSDOF 2
ENDMDL
MODEL 6
REMARK VINA RESULT:      -8.5      2.622      5.107
REMARK  Name = 
REMARK  2 active torsions:
REMARK  status: ('A' for Active; 'I' for Inactive)
REMARK    1  A    between atoms: C_7  and  N_10
REMARK    2  A    between atoms: C_13  and  C_15
REMARK                            x       y       z     vdW  Elec       q    Type
REMARK                         _______ _______ _______ _____ _____    ______ ____
ROOT
ATOM     10  N   UNL     1      -3.411  -0.307  24.746  0.00  0.00    -0.273 NA
ATOM     11  C   UNL     1      -4.168  -0.500  24.483  0.00  0.00    +0.073 C 
ATOM     12  C   UNL     1      -4.634   0.180  24.524  0.00  0.00    +0.028 C 
ATOM     13  C   UNL     1      -4.163   0.794  24.813  0.00  0.00    +0.094 C 
ATOM     14  C   UNL     1      -3.408   0.493  24.950  0.00  0.00    +0.081 C 
ENDROOT
BRANCH  13  15
ATOM     15  C   UNL     1      -4.406   1.572  24.941  0.00  0.00    +0.207 A 
ATOM     16  N   UNL     1      -5.145   1.809  25.220  0.00  0.00    -0.212 NA
ATOM     17  C   UNL     1      -5.148   2.632  25.265  0.00  0.00    +0.119 A 
ATOM     18  C   UNL     1      -4.411   2.904  25.014  0.00  0.00    +0.164 A 
ATOM     19  O   UNL     1      -3.952   2.249  24.814  0.00  0.00    -0.438 OA
ATOM     20  C   UNL     1      -4.254   3.714  25.000  0.00  0.00    +0.040 A 
ATOM     21  C   UNL     1      -4.832   4.251  25.237  0.00  0.00    +0.015 A 
ATOM     22  C   UNL     1      -5.569   3.980  25.488  0.00  0.00    +0.059 A 
ATOM     23 CL   UNL     1      -6.149   4.517  25.725  0.00  0.00    -0.082 Cl
ATOM     24  C   UNL     1      -5.728   3.170  25.502  0.00  0.00    +0.034 A 
ENDBRANCH  13  15
BRANCH  10   7
ATOM      1  C   UNL     1      -0.110  -2.092  25.208  0.00  0.00    +0.095 C 
ATOM      2  C   UNL     1      -0.843  -2.370  24.950  0.00  0.00    +0.226 C 
ATOM      3  O   UNL     1      -0.933  -3.163  24.742  0.00  0.00    -0.275 OA
ATOM      4  N   UNL     1      -1.485  -1.854  24.899  0.00  0.00    -0.279 N 
ATOM      5  C   UNL     1      -2.217  -2.131  24.640  0.00  0.00    +0.095 C 
ATOM      6  C   UNL     1      -2.859  -1.616  24.589  0.00  0.00    +0.038 C 
ATOM      7  C   UNL     1      -2.769  -0.822  24.797  0.00  0.00    +0.061 C 
ATOM      8  C   UNL     1      -2.036  -0.545  25.056  0.00  0.00    +0.038 C 
ATOM      9  C   UNL     1      -1.394  -1.061  25.107  0.00  0.00    +0.095 C 
ENDBRANCH  10   7
TORSDOF 2
ENDMDL
