MODEL 1
REMARK VINA RESULT:     -11.7      0.000      0.000
REMARK  Name = 
REMARK  4 active torsions:
REMARK  status: ('A' for Active; 'I' for Inactive)
REMARK    1  A    between atoms: C_4  and  C_19
REMARK    2  A    between atoms: C_5  and  N_6
REMARK    3  A    between atoms: C_7  and  C_9
REMARK    4  A    between atoms: C_11  and  C_15
REMARK                            x       y       z     vdW  Elec       q    Type
REMARK                         _______ _______ _______ _____ _____    ______ ____
ROOT
ATOM      1  O   UNL     1      -5.507   2.845  25.525  0.00  0.00    -0.220 OA
ATOM      2  C   UNL     1      -4.950   2.393  25.116  0.00  0.00    +0.184 C 
ATOM      3  C   UNL     1      -4.254   2.674  24.776  0.00  0.00    +0.042 C 
ATOM      4  C   UNL     1      -3.866   2.036  24.425  0.00  0.00    +0.049 C 
ATOM      5  C   UNL     1      -4.322   1.360  24.550  0.00  0.00    +0.133 C 
ATOM     17  C   UNL     1      -4.993   1.581  24.977  0.00  0.00    +0.202 C 
ATOM     18  O   UNL     1      -5.599   1.077  25.222  0.00  0.00    -0.219 OA
ENDROOT
BRANCH   4  19
ATOM     19  C   UNL     1      -3.147   2.068  24.021  0.00  0.00    -0.002 A 
ATOM     20  C   UNL     1      -3.137   2.045  23.197  0.00  0.00    -0.001 A 
ATOM     21  C   UNL     1      -2.418   2.076  22.792  0.00  0.00    +0.020 A 
ATOM     22  C   UNL     1      -1.711   2.131  23.212  0.00  0.00    +0.099 A 
ATOM     23  N   UNL     1      -1.721   2.154  24.037  0.00  0.00    -0.243 NA
ATOM     24  C   UNL     1      -2.440   2.122  24.442  0.00  0.00    +0.095 A 
ENDBRANCH   4  19
BRANCH   5   6
ATOM      6  N   UNL     1      -4.140   0.597  24.292  0.00  0.00    -0.200 NA
ATOM      7  C   UNL     1      -4.136  -0.028  24.830  0.00  0.00    +0.265 C 
ATOM      8  O   UNL     1      -4.313   0.107  25.623  0.00  0.00    -0.268 OA
BRANCH   7   9
ATOM      9  C   UNL     1      -3.953  -0.791  24.572  0.00  0.00    +0.056 A 
ATOM     10  C   UNL     1      -3.225  -1.127  24.760  0.00  0.00    +0.015 A 
ATOM     11  C   UNL     1      -3.043  -1.890  24.503  0.00  0.00    +0.069 A 
ATOM     12  C   UNL     1      -3.590  -2.316  24.057  0.00  0.00    +0.010 A 
ATOM     13  C   UNL     1      -4.320  -1.980  23.868  0.00  0.00    +0.001 A 
ATOM     14  C   UNL     1      -4.501  -1.218  24.125  0.00  0.00    +0.005 A 
BRANCH  11  15
ATOM     15  C   UNL     1      -2.313  -2.226  24.692  0.00  0.00    +0.100 C 
ATOM     16  N   UNL     1      -1.584  -2.562  24.880  0.00  0.00    -0.191 NA
ENDBRANCH  11  15
ENDBRANCH   7   9
ENDBRANCH   5   6
TORSDOF 4
ENDMDL
MODEL 2
REMARK VINA RESULT:     -11.1      1.947      3.982
REMARK  Name = 
REMARK  4 active torsions:
REMARK  status: ('A' for Active; 'I' for Inactive)
REMARK    1  A    between atoms: C_4  and  C_19
REMARK    2  A    between atoms: C_5  and  N_6
REMARK    3  A    between atoms: C_7  and  C_9
REMARK    4  A    between atoms: C_11  and  C_15
REMARK                            x       y       z     vdW  Elec       q    Type
REMARK                         _______ _______ _______ _____ _____    ______ ____
ROOT
ATOM      1  O   UNL     1      -6.217   3.316  25.755  0.00  0.00    -0.220 OA
ATOM      2  C   UNL     1      -5.490   3.031  25.485  0.00  0.00    +0.184 C 
ATOM      3  C   UNL     1      -5.341   2.270  25.207  0.00  0.00    +0.042 C 
ATOM      4  C   UNL     1      -4.545   2.226  24.997  0.00  0.00    +0.049 C 
ATOM      5  C   UNL     1      -4.201   2.962  25.145  0.00  0.00    +0.133 C 
ATOM     17  C   UNL     1      -4.786   3.460  25.448  0.00  0.00    +0.202 C 
ATOM     18  O   UNL     1      -4.683   4.247  25.672  0.00  0.00    -0.219 OA
ENDROOT
BRANCH   4  19
ATOM     19  C   UNL     1      -4.159   1.564  24.691  0.00  0.00    -0.002 A 
ATOM     20  C   UNL     1      -4.035   0.903  25.169  0.00  0.00    -0.001 A 
ATOM     21  C   UNL     1      -3.649   0.240  24.864  0.00  0.00    +0.020 A 
ATOM     22  C   UNL     1      -3.387   0.239  24.082  0.00  0.00    +0.099 A 
ATOM     23  N   UNL     1      -3.511   0.901  23.604  0.00  0.00    -0.243 NA
ATOM     24  C   UNL     1      -3.897   1.563  23.910  0.00  0.00    +0.095 A 
ENDBRANCH   4  19
BRANCH   5   6
ATOM      6  N   UNL     1      -3.412   3.163  25.015  0.00  0.00    -0.200 NA
ATOM      7  C   UNL     1      -2.981   3.543  25.606  0.00  0.00    +0.265 C 
ATOM      8  O   UNL     1      -3.337   3.721  26.328  0.00  0.00    -0.268 OA
BRANCH   7   9
ATOM      9  C   UNL     1      -2.191   3.745  25.475  0.00  0.00    +0.056 A 
ATOM     10  C   UNL     1      -1.590   3.231  25.708  0.00  0.00    +0.015 A 
ATOM     11  C   UNL     1      -0.800   3.433  25.578  0.00  0.00    +0.069 A 
ATOM     12  C   UNL     1      -0.612   4.149  25.214  0.00  0.00    +0.010 A 
ATOM     13  C   UNL     1      -1.214   4.664  24.980  0.00  0.00    +0.001 A 
ATOM     14  C   UNL     1      -2.003   4.461  25.111  0.00  0.00    +0.005 A 
BRANCH  11  15
ATOM     15  C   UNL     1      -0.198   2.919  25.811  0.00  0.00    +0.100 C 
ATOM     16  N   UNL     1       0.402   2.405  26.045  0.00  0.00    -0.191 NA
ENDBRANCH  11  15
ENDBRANCH   7   9
ENDBRANCH   5   6
TORSDOF 4
ENDMDL
MODEL 3
REMARK VINA RESULT:     -11.0      1.587      2.539
REMARK  Name = 
REMARK  4 active torsions:
REMARK  status: ('A' for Active; 'I' for Inactive)
REMARK    1  A    between atoms: C_4  and  C_19
REMARK    2  A    between atoms: C_5  and  N_6
REMARK    3  A    between atoms: C_7  and  C_9
REMARK    4  A    between atoms: C_11  and  C_15
REMARK                            x       y       z     vdW  Elec       q    Type
REMARK                         _______ _______ _______ _____ _____    ______ ____
ROOT
ATOM      1  O   UNL     1      -2.898   3.171  22.866  0.00  0.00    -0.220 OA
ATOM      2  C   UNL     1      -3.338   2.696  23.379  0.00  0.00    +0.184 C 
ATOM      3  C   UNL     1      -3.948   2.950  23.871  0.00  0.00    +0.042 C 
ATOM      4  C   UNL     1      -4.230   2.295  24.286  0.00  0.00    +0.049 C 
ATOM      5  C   UNL     1      -3.794   1.636  24.050  0.00  0.00    +0.133 C 
ATOM     17  C   UNL     1      -3.242   1.884  23.489  0.00  0.00    +0.202 C 
ATOM     18  O   UNL     1      -2.691   1.403  23.107  0.00  0.00    -0.219 OA
ENDROOT
BRANCH   4  19
ATOM     19  C   UNL     1      -4.842   2.299  24.840  0.00  0.00    -0.002 A 
ATOM     20  C   UNL     1      -5.567   1.951  24.656  0.00  0.00    -0.001 A 
ATOM     21  C   UNL     1      -6.178   1.954  25.210  0.00  0.00    +0.020 A 
ATOM     22  C   UNL     1      -6.066   2.305  25.947  0.00  0.00    +0.099 A 
ATOM     23  N   UNL     1      -5.340   2.654  26.132  0.00  0.00    -0.243 NA
ATOM     24  C   UNL     1      -4.729   2.650  25.578  0.00  0.00    +0.095 A 
ENDBRANCH   4  19
BRANCH   5   6
ATOM      6  N   UNL     1      -3.893   0.865  24.327  0.00  0.00    -0.200 NA
ATOM      7  C   UNL     1      -3.242   0.440  24.602  0.00  0.00    +0.265 C 
ATOM      8  O   UNL     1      -2.493   0.784  24.601  0.00  0.00    -0.268 OA
BRANCH   7   9
ATOM      9  C   UNL     1      -3.341  -0.332  24.878  0.00  0.00    +0.056 A 
ATOM     10  C   UNL     1      -3.616  -0.920  24.371  0.00  0.00    +0.015 A 
ATOM     11  C   UNL     1      -3.714  -1.691  24.647  0.00  0.00    +0.069 A 
ATOM     12  C   UNL     1      -3.538  -1.874  25.432  0.00  0.00    +0.010 A 
ATOM     13  C   UNL     1      -3.262  -1.285  25.940  0.00  0.00    +0.001 A 
ATOM     14  C   UNL     1      -3.164  -0.514  25.664  0.00  0.00    +0.005 A 
BRANCH  11  15
ATOM     15  C   UNL     1      -3.990  -2.280  24.138  0.00  0.00    +0.100 C 
ATOM     16  N   UNL     1      -4.265  -2.868  23.631  0.00  0.00    -0.191 NA
ENDBRANCH  11  15
ENDBRANCH   7   9
ENDBRANCH   5   6
TORSDOF 4
ENDMDL
MODEL 4
REMARK VINA RESULT:     -10.9      1.538      3.454
REMARK  Name = 
REMARK  4 active torsions:
REMARK  status: ('A' for Active; 'I' for Inactive)
REMARK    1  A    between atoms: C_4  and  C_19
REMARK    2  A    between atoms: C_5  and  N_6
REMARK    3  A    between atoms: C_7  and  C_9
REMARK    4  A    between atoms: C_11  and  C_15
REMARK                            x       y       z     vdW  Elec       q    Type
REMARK                         _______ _______ _______ _____ _____    ______ ____
ROOT
ATOM      1  O   UNL     1      -5.703   2.063  24.946  0.00  0.00    -0.220 OA
ATOM      2  C   UNL     1      -5.047   1.560  24.930  0.00  0.00    +0.184 C 
ATOM      3  C   UNL     1      -5.069   0.738  24.891  0.00  0.00    +0.042 C 
ATOM      4  C   UNL     1      -4.291   0.462  24.888  0.00  0.00    +0.049 C 
ATOM      5  C   UNL     1      -3.789   1.116  24.926  0.00  0.00    +0.133 C 
ATOM     17  C   UNL     1      -4.257   1.796  24.952  0.00  0.00    +0.202 C 
ATOM     18  O   UNL     1      -3.981   2.572  24.993  0.00  0.00    -0.219 OA
ENDROOT
BRANCH   4  19
ATOM     19  C   UNL     1      -4.056  -0.328  24.854  0.00  0.00    -0.002 A 
ATOM     20  C   UNL     1      -4.111  -0.743  24.144  0.00  0.00    -0.001 A 
ATOM     21  C   UNL     1      -3.876  -1.534  24.109  0.00  0.00    +0.020 A 
ATOM     22  C   UNL     1      -3.586  -1.908  24.784  0.00  0.00    +0.099 A 
ATOM     23  N   UNL     1      -3.531  -1.492  25.495  0.00  0.00    -0.243 NA
ATOM     24  C   UNL     1      -3.766  -0.702  25.530  0.00  0.00    +0.095 A 
ENDBRANCH   4  19
BRANCH   5   6
ATOM      6  N   UNL     1      -2.964   1.094  24.936  0.00  0.00    -0.200 NA
ATOM      7  C   UNL     1      -2.534   1.561  24.410  0.00  0.00    +0.265 C 
ATOM      8  O   UNL     1      -2.926   2.049  23.873  0.00  0.00    -0.268 OA
BRANCH   7   9
ATOM      9  C   UNL     1      -1.709   1.539  24.420  0.00  0.00    +0.056 A 
ATOM     10  C   UNL     1      -1.295   1.876  25.048  0.00  0.00    +0.015 A 
ATOM     11  C   UNL     1      -0.469   1.854  25.058  0.00  0.00    +0.069 A 
ATOM     12  C   UNL     1      -0.059   1.495  24.439  0.00  0.00    +0.010 A 
ATOM     13  C   UNL     1      -0.473   1.157  23.810  0.00  0.00    +0.001 A 
ATOM     14  C   UNL     1      -1.298   1.180  23.800  0.00  0.00    +0.005 A 
BRANCH  11  15
ATOM     15  C   UNL     1      -0.055   2.191  25.687  0.00  0.00    +0.100 C 
ATOM     16  N   UNL     1       0.359   2.529  26.315  0.00  0.00    -0.191 NA
ENDBRANCH  11  15
ENDBRANCH   7   9
ENDBRANCH   5   6
TORSDOF 4
ENDMDL
MODEL 5
REMARK VINA RESULT:     -10.7      1.583      3.990
REMARK  Name = 
REMARK  4 active torsions:
REMARK  status: ('A' for Active; 'I' for Inactive)
REMARK    1  A    between atoms: C_4  and  C_19
REMARK    2  A    between atoms: C_5  and  N_6
REMARK    3  A    between atoms: C_7  and  C_9
REMARK    4  A    between atoms: C_11  and  C_15
REMARK                            x       y       z     vdW  Elec       q    Type
REMARK                         _______ _______ _______ _____ _____    ______ ____
ROOT
ATOM      1  O   UNL     1      -3.975  -3.084  24.084  0.00  0.00    -0.220 OA
ATOM      2  C   UNL     1      -3.606  -2.381  24.314  0.00  0.00    +0.184 C 
ATOM      3  C   UNL     1      -2.830  -2.307  24.580  0.00  0.00    +0.042 C 
ATOM      4  C   UNL     1      -2.694  -1.510  24.748  0.00  0.00    +0.049 C 
ATOM      5  C   UNL     1      -3.387  -1.093  24.585  0.00  0.00    +0.133 C 
ATOM     17  C   UNL     1      -3.951  -1.632  24.316  0.00  0.00    +0.202 C 
ATOM     18  O   UNL     1      -4.724  -1.451  24.090  0.00  0.00    -0.219 OA
ENDROOT
BRANCH   4  19
ATOM     19  C   UNL     1      -1.988  -1.188  25.030  0.00  0.00    -0.002 A 
ATOM     20  C   UNL     1      -1.930  -0.951  25.818  0.00  0.00    -0.001 A 
ATOM     21  C   UNL     1      -1.225  -0.628  26.100  0.00  0.00    +0.020 A 
ATOM     22  C   UNL     1      -0.579  -0.542  25.595  0.00  0.00    +0.099 A 
ATOM     23  N   UNL     1      -0.638  -0.779  24.806  0.00  0.00    -0.243 NA
ATOM     24  C   UNL     1      -1.343  -1.102  24.524  0.00  0.00    +0.095 A 
ENDBRANCH   4  19
BRANCH   5   6
ATOM      6  N   UNL     1      -3.496  -0.280  24.675  0.00  0.00    -0.200 NA
ATOM      7  C   UNL     1      -3.774   0.170  24.042  0.00  0.00    +0.265 C 
ATOM      8  O   UNL     1      -3.943  -0.191  23.320  0.00  0.00    -0.268 OA
BRANCH   7   9
ATOM      9  C   UNL     1      -3.883   0.983  24.132  0.00  0.00    +0.056 A 
ATOM     10  C   UNL     1      -4.450   1.268  24.658  0.00  0.00    +0.015 A 
ATOM     11  C   UNL     1      -4.559   2.081  24.747  0.00  0.00    +0.069 A 
ATOM     12  C   UNL     1      -4.101   2.609  24.311  0.00  0.00    +0.010 A 
ATOM     13  C   UNL     1      -3.532   2.325  23.784  0.00  0.00    +0.001 A 
ATOM     14  C   UNL     1      -3.424   1.512  23.695  0.00  0.00    +0.005 A 
BRANCH  11  15
ATOM     15  C   UNL     1      -5.128   2.366  25.274  0.00  0.00    +0.100 C 
ATOM     16  N   UNL     1      -5.695   2.650  25.800  0.00  0.00    -0.191 NA
ENDBRANCH  11  15
ENDBRANCH   7   9
ENDBRANCH   5   6
TORSDOF 4
ENDMDL
MODEL 6
REMARK VINA RESULT:     -10.6      1.963      2.795
REMARK  Name = 
REMARK  4 active torsions:
REMARK  status: ('A' for Active; 'I' for Inactive)
REMARK    1  A    between atoms: C_4  and  C_19
REMARK    2  A    between atoms: C_5  and  N_6
REMARK    3  A    between atoms: C_7  and  C_9
REMARK    4  A    between atoms: C_11  and  C_15
REMARK                            x       y       z     vdW  Elec       q    Type
REMARK                         _______ _______ _______ _____ _____    ______ ____
ROOT
ATOM      1  O   UNL     1       0.200   2.386  24.470  0.00  0.00    -0.220 OA
ATOM      2  C   UNL     1      -0.593   2.172  24.560  0.00  0.00    +0.184 C 
ATOM      3  C   UNL     1      -1.244   2.646  24.388  0.00  0.00    +0.042 C 
ATOM      4  C   UNL     1      -1.926   2.214  24.558  0.00  0.00    +0.049 C 
ATOM      5  C   UNL     1      -1.695   1.472  24.836  0.00  0.00    +0.133 C 
ATOM     17  C   UNL     1      -0.870   1.446  24.837  0.00  0.00    +0.202 C 
ATOM     18  O   UNL     1      -0.406   0.806  25.073  0.00  0.00    -0.219 OA
ENDROOT
BRANCH   4  19
ATOM     19  C   UNL     1      -2.703   2.477  24.468  0.00  0.00    -0.002 A 
ATOM     20  C   UNL     1      -3.051   2.483  23.720  0.00  0.00    -0.001 A 
ATOM     21  C   UNL     1      -3.828   2.747  23.629  0.00  0.00    +0.020 A 
ATOM     22  C   UNL     1      -4.256   3.002  24.285  0.00  0.00    +0.099 A 
ATOM     23  N   UNL     1      -3.908   2.996  25.034  0.00  0.00    -0.243 NA
ATOM     24  C   UNL     1      -3.131   2.733  25.124  0.00  0.00    +0.095 A 
ENDBRANCH   4  19
BRANCH   5   6
ATOM      6  N   UNL     1      -2.200   0.863  25.071  0.00  0.00    -0.200 NA
ATOM      7  C   UNL     1      -2.096   0.102  24.771  0.00  0.00    +0.265 C 
ATOM      8  O   UNL     1      -1.487  -0.051  24.236  0.00  0.00    -0.268 OA
BRANCH   7   9
ATOM      9  C   UNL     1      -2.601  -0.506  25.006  0.00  0.00    +0.056 A 
ATOM     10  C   UNL     1      -3.043  -0.916  24.444  0.00  0.00    +0.015 A 
ATOM     11  C   UNL     1      -3.549  -1.525  24.680  0.00  0.00    +0.069 A 
ATOM     12  C   UNL     1      -3.611  -1.724  25.478  0.00  0.00    +0.010 A 
ATOM     13  C   UNL     1      -3.167  -1.314  26.041  0.00  0.00    +0.001 A 
ATOM     14  C   UNL     1      -2.663  -0.706  25.805  0.00  0.00    +0.005 A 
BRANCH  11  15
ATOM     15  C   UNL     1      -3.992  -1.934  24.117  0.00  0.00    +0.100 C 
ATOM     16  N   UNL     1      -4.434  -2.344  23.554  0.00  0.00    -0.191 NA
ENDBRANCH  11  15
ENDBRANCH   7   9
ENDBRANCH   5   6
TORSDOF 4
ENDMDL
