MODEL 1
REMARK VINA RESULT:      -9.0      0.000      0.000
REMARK  Name = 
REMARK  6 active torsions:
REMARK  status: ('A' for Active; 'I' for Inactive)
REMARK    1  A    between atoms: C_2  and  C_4
REMARK    2  A    between atoms: C_7  and  N_8
REMARK    3  A    between atoms: C_9  and  O_11
REMARK    4  A    between atoms: O_11  and  C_12
REMARK    5  A    between atoms: C_16  and  N_20
REMARK    6  A    between atoms: C_21  and  C_23
REMARK                            x       y       z     vdW  Elec       q    Type
REMARK                         _______ _______ _______ _____ _____    ______ ____
ROOT
ATOM     12  C   UNL     1      -0.888   0.710  23.964  0.00  0.00    +0.229 C 
ATOM     13  C   UNL     1      -0.567   1.354  24.368  0.00  0.00    +0.188 C 
ATOM     14  O   UNL     1       0.246   1.360  24.231  0.00  0.00    -0.348 OA
ATOM     15  C   UNL     1       0.429   0.722  23.743  0.00  0.00    +0.168 C 
ATOM     16  C   UNL     1       1.043   0.330  23.356  0.00  0.00    +0.155 C 
ATOM     17  C   UNL     1       0.722  -0.313  22.952  0.00  0.00    +0.166 C 
ATOM     18  O   UNL     1      -0.091  -0.320  23.089  0.00  0.00    -0.348 OA
ATOM     19  C   UNL     1      -0.273   0.320  23.578  0.00  0.00    +0.186 C 
ENDROOT
BRANCH  16  20
ATOM     20  N   UNL     1       1.840   0.545  23.371  0.00  0.00    -0.196 NA
ATOM     21  C   UNL     1       2.354   0.263  22.791  0.00  0.00    +0.300 C 
ATOM     22  O   UNL     1       2.073  -0.233  22.196  0.00  0.00    -0.265 OA
BRANCH  21  23
ATOM     23  C   UNL     1       3.151   0.478  22.807  0.00  0.00    +0.200 A 
ATOM     24  C   UNL     1       3.786  -0.025  22.962  0.00  0.00    +0.046 A 
ATOM     25  C   UNL     1       4.480   0.420  22.921  0.00  0.00    +0.044 A 
ATOM     26  C   UNL     1       4.273   1.197  22.740  0.00  0.00    +0.180 A 
ATOM     27  O   UNL     1       3.452   1.233  22.669  0.00  0.00    -0.446 OA
ENDBRANCH  21  23
ENDBRANCH  16  20
BRANCH  12  11
ATOM     11  O   UNL     1      -1.684   0.495  23.949  0.00  0.00    -0.432 OA
BRANCH  11   9
ATOM      8  N   UNL     1      -2.938   1.181  23.918  0.00  0.00    -0.142 NA
ATOM      9  C   UNL     1      -2.248   0.972  24.318  0.00  0.00    +0.425 C 
ATOM     10  O   UNL     1      -2.119   1.239  25.089  0.00  0.00    -0.224 OA
BRANCH   8   7
ATOM      4  C   UNL     1      -4.628   2.609  25.027  0.00  0.00    +0.035 A 
ATOM      5  C   UNL     1      -4.645   1.791  25.134  0.00  0.00    +0.004 A 
ATOM      6  C   UNL     1      -4.082   1.315  24.764  0.00  0.00    +0.017 A 
ATOM      7  C   UNL     1      -3.501   1.657  24.288  0.00  0.00    +0.077 A 
ATOM     28  C   UNL     1      -3.484   2.475  24.182  0.00  0.00    +0.017 A 
ATOM     29  C   UNL     1      -4.047   2.951  24.552  0.00  0.00    +0.004 A 
BRANCH   4   2
ATOM      1  C   UNL     1      -5.834   2.738  25.783  0.00  0.00    +0.077 C 
ATOM      2  C   UNL     1      -5.192   3.085  25.397  0.00  0.00    +0.173 C 
ATOM      3  O   UNL     1      -5.113   3.906  25.382  0.00  0.00    -0.291 OA
ENDBRANCH   4   2
ENDBRANCH   8   7
ENDBRANCH  11   9
ENDBRANCH  12  11
TORSDOF 6
ENDMDL
MODEL 2
REMARK VINA RESULT:      -9.0      3.052      4.889
REMARK  Name = 
REMARK  6 active torsions:
REMARK  status: ('A' for Active; 'I' for Inactive)
REMARK    1  A    between atoms: C_2  and  C_4
REMARK    2  A    between atoms: C_7  and  N_8
REMARK    3  A    between atoms: C_9  and  O_11
REMARK    4  A    between atoms: O_11  and  C_12
REMARK    5  A    between atoms: C_16  and  N_20
REMARK    6  A    between atoms: C_21  and  C_23
REMARK                            x       y       z     vdW  Elec       q    Type
REMARK                         _______ _______ _______ _____ _____    ______ ____
ROOT
ATOM     12  C   UNL     1      -0.291   0.678  24.738  0.00  0.00    +0.229 C 
ATOM     13  C   UNL     1      -0.215   0.994  23.981  0.00  0.00    +0.188 C 
ATOM     14  O   UNL     1      -0.275   1.815  24.041  0.00  0.00    -0.348 OA
ATOM     15  C   UNL     1      -0.387   2.005  24.835  0.00  0.00    +0.168 C 
ATOM     16  C   UNL     1      -0.494   2.629  25.364  0.00  0.00    +0.155 C 
ATOM     17  C   UNL     1      -0.570   2.313  26.121  0.00  0.00    +0.166 C 
ATOM     18  O   UNL     1      -0.510   1.492  26.061  0.00  0.00    -0.348 OA
ATOM     19  C   UNL     1      -0.397   1.302  25.266  0.00  0.00    +0.186 C 
ENDROOT
BRANCH  16  20
ATOM     20  N   UNL     1      -0.520   3.431  25.168  0.00  0.00    -0.196 NA
ATOM     21  C   UNL     1      -1.185   3.880  25.357  0.00  0.00    +0.300 C 
ATOM     22  O   UNL     1      -1.825   3.529  25.741  0.00  0.00    -0.265 OA
BRANCH  21  23
ATOM     23  C   UNL     1      -1.211   4.682  25.162  0.00  0.00    +0.200 A 
ATOM     24  C   UNL     1      -1.856   5.185  25.266  0.00  0.00    +0.046 A 
ATOM     25  C   UNL     1      -1.640   5.935  24.996  0.00  0.00    +0.044 A 
ATOM     26  C   UNL     1      -0.862   5.894  24.726  0.00  0.00    +0.180 A 
ATOM     27  O   UNL     1      -0.597   5.119  24.829  0.00  0.00    -0.446 OA
ENDBRANCH  21  23
ENDBRANCH  16  20
BRANCH  12  11
ATOM     11  O   UNL     1      -0.265  -0.124  24.933  0.00  0.00    -0.432 OA
BRANCH  11   9
ATOM      8  N   UNL     1      -1.375  -0.965  25.254  0.00  0.00    -0.142 NA
ATOM      9  C   UNL     1      -0.873  -0.627  24.693  0.00  0.00    +0.425 C 
ATOM     10  O   UNL     1      -0.979  -0.792  23.891  0.00  0.00    -0.224 OA
BRANCH   8   7
ATOM      4  C   UNL     1      -3.200  -2.474  24.534  0.00  0.00    +0.035 A 
ATOM      5  C   UNL     1      -3.379  -1.750  24.888  0.00  0.00    +0.004 A 
ATOM      6  C   UNL     1      -2.770  -1.247  25.127  0.00  0.00    +0.017 A 
ATOM      7  C   UNL     1      -1.983  -1.468  25.014  0.00  0.00    +0.077 A 
ATOM     28  C   UNL     1      -1.806  -2.192  24.661  0.00  0.00    +0.017 A 
ATOM     29  C   UNL     1      -2.414  -2.695  24.421  0.00  0.00    +0.004 A 
BRANCH   4   2
ATOM      1  C   UNL     1      -4.363  -2.718  23.740  0.00  0.00    +0.077 C 
ATOM      2  C   UNL     1      -3.809  -2.977  24.295  0.00  0.00    +0.173 C 
ATOM      3  O   UNL     1      -3.864  -3.737  24.609  0.00  0.00    -0.291 OA
ENDBRANCH   4   2
ENDBRANCH   8   7
ENDBRANCH  11   9
ENDBRANCH  12  11
TORSDOF 6
ENDMDL
MODEL 3
REMARK VINA RESULT:      -8.6      4.144      5.387
REMARK  Name = 
REMARK  6 active torsions:
REMARK  status: ('A' for Active; 'I' for Inactive)
REMARK    1  A    between atoms: C_2  and  C_4
REMARK    2  A    between atoms: C_7  and  N_8
REMARK    3  A    between atoms: C_9  and  O_11
REMARK    4  A    between atoms: O_11  and  C_12
REMARK    5  A    between atoms: C_16  and  N_20
REMARK    6  A    between atoms: C_21  and  C_23
REMARK                            x       y       z     vdW  Elec       q    Type
REMARK                         _______ _______ _______ _____ _____    ______ ____
ROOT
ATOM     12  C   UNL     1      -4.128   1.844  24.210  0.00  0.00    +0.229 C 
ATOM     13  C   UNL     1      -3.789   2.050  23.487  0.00  0.00    +0.188 C 
ATOM     14  O   UNL     1      -3.353   2.741  23.597  0.00  0.00    -0.348 OA
ATOM     15  C   UNL     1      -3.422   2.963  24.387  0.00  0.00    +0.168 C 
ATOM     16  C   UNL     1      -3.196   3.528  24.945  0.00  0.00    +0.155 C 
ATOM     17  C   UNL     1      -3.535   3.322  25.669  0.00  0.00    +0.166 C 
ATOM     18  O   UNL     1      -3.971   2.631  25.559  0.00  0.00    -0.348 OA
ATOM     19  C   UNL     1      -3.901   2.409  24.767  0.00  0.00    +0.186 C 
ENDROOT
BRANCH  16  20
ATOM     20  N   UNL     1      -2.715   4.183  24.804  0.00  0.00    -0.196 NA
ATOM     21  C   UNL     1      -2.017   4.283  25.232  0.00  0.00    +0.300 C 
ATOM     22  O   UNL     1      -1.800   3.727  25.802  0.00  0.00    -0.265 OA
BRANCH  21  23
ATOM     23  C   UNL     1      -1.536   4.938  25.091  0.00  0.00    +0.200 A 
ATOM     24  C   UNL     1      -0.755   4.918  24.826  0.00  0.00    +0.046 A 
ATOM     25  C   UNL     1      -0.488   5.696  24.761  0.00  0.00    +0.044 A 
ATOM     26  C   UNL     1      -1.104   6.196  24.985  0.00  0.00    +0.180 A 
ATOM     27  O   UNL     1      -1.752   5.728  25.189  0.00  0.00    -0.446 OA
ENDBRANCH  21  23
ENDBRANCH  16  20
BRANCH  12  11
ATOM     11  O   UNL     1      -4.609   1.189  24.352  0.00  0.00    -0.432 OA
BRANCH  11   9
ATOM      8  N   UNL     1      -4.450  -0.135  24.864  0.00  0.00    -0.142 NA
ATOM      9  C   UNL     1      -4.300   0.427  24.280  0.00  0.00    +0.425 C 
ATOM     10  O   UNL     1      -3.841   0.228  23.623  0.00  0.00    -0.224 OA
BRANCH   8   7
ATOM      4  C   UNL     1      -3.525  -2.421  24.649  0.00  0.00    +0.035 A 
ATOM      5  C   UNL     1      -4.045  -2.131  24.078  0.00  0.00    +0.004 A 
ATOM      6  C   UNL     1      -4.353  -1.369  24.150  0.00  0.00    +0.017 A 
ATOM      7  C   UNL     1      -4.142  -0.897  24.793  0.00  0.00    +0.077 A 
ATOM     28  C   UNL     1      -3.622  -1.187  25.363  0.00  0.00    +0.017 A 
ATOM     29  C   UNL     1      -3.313  -1.949  25.292  0.00  0.00    +0.004 A 
BRANCH   4   2
ATOM      1  C   UNL     1      -2.467  -3.295  24.250  0.00  0.00    +0.077 C 
ATOM      2  C   UNL     1      -3.217  -3.183  24.577  0.00  0.00    +0.173 C 
ATOM      3  O   UNL     1      -3.658  -3.832  24.831  0.00  0.00    -0.291 OA
ENDBRANCH   4   2
ENDBRANCH   8   7
ENDBRANCH  11   9
ENDBRANCH  12  11
TORSDOF 6
ENDMDL
MODEL 4
REMARK VINA RESULT:      -8.3      3.117      4.914
REMARK  Name = 
REMARK  6 active torsions:
REMARK  status: ('A' for Active; 'I' for Inactive)
REMARK    1  A    between atoms: C_2  and  C_4
REMARK    2  A    between atoms: C_7  and  N_8
REMARK    3  A    between atoms: C_9  and  O_11
REMARK    4  A    between atoms: O_11  and  C_12
REMARK    5  A    between atoms: C_16  and  N_20
REMARK    6  A    between atoms: C_21  and  C_23
REMARK                            x       y       z     vdW  Elec       q    Type
REMARK                         _______ _______ _______ _____ _____    ______ ____
ROOT
ATOM     12  C   UNL     1      -0.537   0.564  24.840  0.00  0.00    +0.229 C 
ATOM     13  C   UNL     1      -0.562   0.375  24.038  0.00  0.00    +0.188 C 
ATOM     14  O   UNL     1      -1.050  -0.283  23.947  0.00  0.00    -0.348 OA
ATOM     15  C   UNL     1      -1.326  -0.502  24.692  0.00  0.00    +0.168 C 
ATOM     16  C   UNL     1      -1.798  -1.043  25.098  0.00  0.00    +0.155 C 
ATOM     17  C   UNL     1      -1.773  -0.855  25.900  0.00  0.00    +0.166 C 
ATOM     18  O   UNL     1      -1.285  -0.196  25.991  0.00  0.00    -0.348 OA
ATOM     19  C   UNL     1      -1.009   0.022  25.244  0.00  0.00    +0.186 C 
ENDROOT
BRANCH  16  20
ATOM     20  N   UNL     1      -2.221  -1.666  24.759  0.00  0.00    -0.196 NA
ATOM     21  C   UNL     1      -3.026  -1.752  24.918  0.00  0.00    +0.300 C 
ATOM     22  O   UNL     1      -3.408  -1.216  25.415  0.00  0.00    -0.265 OA
BRANCH  21  23
ATOM     23  C   UNL     1      -3.450  -2.374  24.579  0.00  0.00    +0.200 A 
ATOM     24  C   UNL     1      -4.013  -2.308  23.980  0.00  0.00    +0.046 A 
ATOM     25  C   UNL     1      -4.295  -3.064  23.811  0.00  0.00    +0.044 A 
ATOM     26  C   UNL     1      -3.907  -3.598  24.305  0.00  0.00    +0.180 A 
ATOM     27  O   UNL     1      -3.384  -3.171  24.780  0.00  0.00    -0.446 OA
ENDBRANCH  21  23
ENDBRANCH  16  20
BRANCH  12  11
ATOM     11  O   UNL     1      -0.113   1.187  25.179  0.00  0.00    -0.432 OA
BRANCH  11   9
ATOM      8  N   UNL     1      -0.618   2.441  25.641  0.00  0.00    -0.142 NA
ATOM      9  C   UNL     1      -0.335   1.967  25.028  0.00  0.00    +0.425 C 
ATOM     10  O   UNL     1      -0.274   2.273  24.264  0.00  0.00    -0.224 OA
BRANCH   8   7
ATOM      4  C   UNL     1      -1.284   4.782  25.190  0.00  0.00    +0.035 A 
ATOM      5  C   UNL     1      -1.827   4.254  25.520  0.00  0.00    +0.004 A 
ATOM      6  C   UNL     1      -1.604   3.474  25.670  0.00  0.00    +0.017 A 
ATOM      7  C   UNL     1      -0.840   3.221  25.490  0.00  0.00    +0.077 A 
ATOM     28  C   UNL     1      -0.298   3.749  25.161  0.00  0.00    +0.017 A 
ATOM     29  C   UNL     1      -0.520   4.529  25.011  0.00  0.00    +0.004 A 
BRANCH   4   2
ATOM      1  C   UNL     1      -2.293   5.793  25.143  0.00  0.00    +0.077 C 
ATOM      2  C   UNL     1      -1.507   5.562  25.040  0.00  0.00    +0.173 C 
ATOM      3  O   UNL     1      -0.945   6.111  24.788  0.00  0.00    -0.291 OA
ENDBRANCH   4   2
ENDBRANCH   8   7
ENDBRANCH  11   9
ENDBRANCH  12  11
TORSDOF 6
ENDMDL
MODEL 5
REMARK VINA RESULT:      -7.6      1.052      6.751
REMARK  Name = 
REMARK  6 active torsions:
REMARK  status: ('A' for Active; 'I' for Inactive)
REMARK    1  A    between atoms: C_2  and  C_4
REMARK    2  A    between atoms: C_7  and  N_8
REMARK    3  A    between atoms: C_9  and  O_11
REMARK    4  A    between atoms: O_11  and  C_12
REMARK    5  A    between atoms: C_16  and  N_20
REMARK    6  A    between atoms: C_21  and  C_23
REMARK                            x       y       z     vdW  Elec       q    Type
REMARK                         _______ _______ _______ _____ _____    ______ ____
ROOT
ATOM     12  C   UNL     1      -0.192   0.759  23.659  0.00  0.00    +0.229 C 
ATOM     13  C   UNL     1      -0.101   0.783  24.478  0.00  0.00    +0.188 C 
ATOM     14  O   UNL     1      -0.741   1.197  24.793  0.00  0.00    -0.348 OA
ATOM     15  C   UNL     1      -1.228   1.428  24.169  0.00  0.00    +0.168 C 
ATOM     16  C   UNL     1      -1.924   1.827  23.977  0.00  0.00    +0.155 C 
ATOM     17  C   UNL     1      -2.015   1.802  23.158  0.00  0.00    +0.166 C 
ATOM     18  O   UNL     1      -1.375   1.389  22.843  0.00  0.00    -0.348 OA
ATOM     19  C   UNL     1      -0.888   1.157  23.468  0.00  0.00    +0.186 C 
ENDROOT
BRANCH  16  20
ATOM     20  N   UNL     1      -2.439   2.187  24.512  0.00  0.00    -0.196 NA
ATOM     21  C   UNL     1      -3.190   2.423  24.266  0.00  0.00    +0.300 C 
ATOM     22  O   UNL     1      -3.427   2.300  23.485  0.00  0.00    -0.265 OA
BRANCH  21  23
ATOM     23  C   UNL     1      -3.706   2.783  24.801  0.00  0.00    +0.200 A 
ATOM     24  C   UNL     1      -4.479   2.546  24.964  0.00  0.00    +0.046 A 
ATOM     25  C   UNL     1      -4.789   3.060  25.530  0.00  0.00    +0.044 A 
ATOM     26  C   UNL     1      -4.208   3.614  25.717  0.00  0.00    +0.180 A 
ATOM     27  O   UNL     1      -3.538   3.443  25.266  0.00  0.00    -0.446 OA
ENDBRANCH  21  23
ENDBRANCH  16  20
BRANCH  12  11
ATOM     11  O   UNL     1       0.323   0.399  23.124  0.00  0.00    -0.432 OA
BRANCH  11   9
ATOM      8  N   UNL     1       1.653   0.063  22.724  0.00  0.00    -0.142 NA
ATOM      9  C   UNL     1       1.139   0.457  23.234  0.00  0.00    +0.425 C 
ATOM     10  O   UNL     1       1.440   0.910  23.855  0.00  0.00    -0.224 OA
BRANCH   8   7
ATOM      4  C   UNL     1       4.100   0.237  23.053  0.00  0.00    +0.035 A 
ATOM      5  C   UNL     1       3.702  -0.451  23.275  0.00  0.00    +0.004 A 
ATOM      6  C   UNL     1       2.886  -0.508  23.165  0.00  0.00    +0.017 A 
ATOM      7  C   UNL     1       2.469   0.121  22.833  0.00  0.00    +0.077 A 
ATOM     28  C   UNL     1       2.867   0.808  22.611  0.00  0.00    +0.017 A 
ATOM     29  C   UNL     1       3.683   0.866  22.721  0.00  0.00    +0.004 A 
BRANCH   4   2
ATOM      1  C   UNL     1       5.217   0.545  23.889  0.00  0.00    +0.077 C 
ATOM      2  C   UNL     1       4.916   0.294  23.163  0.00  0.00    +0.173 C 
ATOM      3  O   UNL     1       5.430   0.100  22.547  0.00  0.00    -0.291 OA
ENDBRANCH   4   2
ENDBRANCH   8   7
ENDBRANCH  11   9
ENDBRANCH  12  11
TORSDOF 6
ENDMDL
MODEL 6
REMARK VINA RESULT:      -7.2      4.086      5.328
REMARK  Name = 
REMARK  6 active torsions:
REMARK  status: ('A' for Active; 'I' for Inactive)
REMARK    1  A    between atoms: C_2  and  C_4
REMARK    2  A    between atoms: C_7  and  N_8
REMARK    3  A    between atoms: C_9  and  O_11
REMARK    4  A    between atoms: O_11  and  C_12
REMARK    5  A    between atoms: C_16  and  N_20
REMARK    6  A    between atoms: C_21  and  C_23
REMARK                            x       y       z     vdW  Elec       q    Type
REMARK                         _______ _______ _______ _____ _____    ______ ____
ROOT
ATOM     12  C   UNL     1      -4.165   1.686  24.436  0.00  0.00    +0.229 C 
ATOM     13  C   UNL     1      -3.896   1.507  23.677  0.00  0.00    +0.188 C 
ATOM     14  O   UNL     1      -3.838   0.687  23.614  0.00  0.00    -0.348 OA
ATOM     15  C   UNL     1      -4.071   0.358  24.333  0.00  0.00    +0.168 C 
ATOM     16  C   UNL     1      -4.180  -0.351  24.739  0.00  0.00    +0.155 C 
ATOM     17  C   UNL     1      -4.450  -0.173  25.498  0.00  0.00    +0.166 C 
ATOM     18  O   UNL     1      -4.508   0.647  25.561  0.00  0.00    -0.348 OA
ATOM     19  C   UNL     1      -4.274   0.976  24.841  0.00  0.00    +0.186 C 
ENDROOT
BRANCH  16  20
ATOM     20  N   UNL     1      -4.043  -1.108  24.438  0.00  0.00    -0.196 NA
ATOM     21  C   UNL     1      -3.632  -1.663  24.889  0.00  0.00    +0.300 C 
ATOM     22  O   UNL     1      -3.357  -1.462  25.641  0.00  0.00    -0.265 OA
BRANCH  21  23
ATOM     23  C   UNL     1      -3.495  -2.419  24.588  0.00  0.00    +0.200 A 
ATOM     24  C   UNL     1      -2.768  -2.809  24.569  0.00  0.00    +0.046 A 
ATOM     25  C   UNL     1      -2.885  -3.549  24.223  0.00  0.00    +0.044 A 
ATOM     26  C   UNL     1      -3.683  -3.616  24.028  0.00  0.00    +0.180 A 
ATOM     27  O   UNL     1      -4.060  -2.917  24.254  0.00  0.00    -0.446 OA
ENDBRANCH  21  23
ENDBRANCH  16  20
BRANCH  12  11
ATOM     11  O   UNL     1      -4.302   2.442  24.737  0.00  0.00    -0.432 OA
BRANCH  11   9
ATOM      8  N   UNL     1      -3.181   3.156  25.261  0.00  0.00    -0.142 NA
ATOM      9  C   UNL     1      -3.727   3.028  24.657  0.00  0.00    +0.425 C 
ATOM     10  O   UNL     1      -3.700   3.488  23.971  0.00  0.00    -0.224 OA
BRANCH   8   7
ATOM      4  C   UNL     1      -1.457   4.916  25.022  0.00  0.00    +0.035 A 
ATOM      5  C   UNL     1      -2.215   5.113  25.283  0.00  0.00    +0.004 A 
ATOM      6  C   UNL     1      -2.789   4.526  25.363  0.00  0.00    +0.017 A 
ATOM      7  C   UNL     1      -2.606   3.742  25.181  0.00  0.00    +0.077 A 
ATOM     28  C   UNL     1      -1.849   3.546  24.920  0.00  0.00    +0.017 A 
ATOM     29  C   UNL     1      -1.274   4.132  24.840  0.00  0.00    +0.004 A 
BRANCH   4   2
ATOM      1  C   UNL     1      -0.104   5.296  24.766  0.00  0.00    +0.077 C 
ATOM      2  C   UNL     1      -0.883   5.503  24.942  0.00  0.00    +0.173 C 
ATOM      3  O   UNL     1      -1.088   6.296  25.038  0.00  0.00    -0.291 OA
ENDBRANCH   4   2
ENDBRANCH   8   7
ENDBRANCH  11   9
ENDBRANCH  12  11
TORSDOF 6
ENDMDL
