MODEL 1
REMARK VINA RESULT:     -11.6      0.000      0.000
REMARK  Name = 
REMARK  5 active torsions:
REMARK  status: ('A' for Active; 'I' for Inactive)
REMARK    1  A    between atoms: C_4  and  C_17
REMARK    2  A    between atoms: C_5  and  N_6
REMARK    3  A    between atoms: N_6  and  C_7
REMARK    4  A    between atoms: C_7  and  C_8
REMARK    5  A    between atoms: C_20  and  N_23
REMARK                            x       y       z     vdW  Elec       q    Type
REMARK                         _______ _______ _______ _____ _____    ______ ____
ROOT
ATOM      1  O   UNL     1      -5.802   3.080  25.348  0.00  0.00    -0.220 OA
ATOM      2  C   UNL     1      -5.171   2.595  25.135  0.00  0.00    +0.184 C 
ATOM      3  C   UNL     1      -4.382   2.825  25.071  0.00  0.00    +0.041 C 
ATOM      4  C   UNL     1      -3.940   2.165  24.845  0.00  0.00    +0.045 C 
ATOM      5  C   UNL     1      -4.457   1.526  24.770  0.00  0.00    +0.110 C 
ATOM     15  C   UNL     1      -5.218   1.792  24.949  0.00  0.00    +0.198 C 
ATOM     16  O   UNL     1      -5.905   1.335  24.943  0.00  0.00    -0.219 OA
ENDROOT
BRANCH   4  17
ATOM     17  C   UNL     1      -3.126   2.147  24.718  0.00  0.00    -0.002 A 
ATOM     18  C   UNL     1      -2.827   2.190  23.950  0.00  0.00    +0.000 A 
ATOM     19  C   UNL     1      -2.012   2.172  23.823  0.00  0.00    +0.034 A 
ATOM     20  C   UNL     1      -1.496   2.111  24.463  0.00  0.00    +0.132 A 
ATOM     21  N   UNL     1      -1.794   2.069  25.231  0.00  0.00    -0.229 NA
ATOM     22  C   UNL     1      -2.609   2.086  25.359  0.00  0.00    +0.096 A 
BRANCH  20  23
ATOM     23  N   UNL     1      -0.680   2.093  24.335  0.00  0.00    -0.288 N 
ATOM     24  C   UNL     1      -0.248   2.796  24.331  0.00  0.00    +0.124 C 
ATOM     25  C   UNL     1       0.566   2.778  24.204  0.00  0.00    +0.164 C 
ATOM     26  O   UNL     1       0.950   2.058  24.081  0.00  0.00    -0.350 OA
ATOM     27  C   UNL     1       0.517   1.355  24.085  0.00  0.00    +0.164 C 
ATOM     28  C   UNL     1      -0.298   1.373  24.213  0.00  0.00    +0.124 C 
ENDBRANCH  20  23
ENDBRANCH   4  17
BRANCH   5   6
ATOM      6  N   UNL     1      -4.251   0.758  24.553  0.00  0.00    -0.212 NA
BRANCH   6   7
ATOM      7  C   UNL     1      -4.553   0.116  24.973  0.00  0.00    +0.115 C 
BRANCH   7   8
ATOM      8  C   UNL     1      -4.261  -0.644  24.832  0.00  0.00    -0.005 A 
ATOM      9  C   UNL     1      -4.407  -1.014  24.110  0.00  0.00    -0.002 A 
ATOM     10  C   UNL     1      -4.115  -1.773  23.969  0.00  0.00    +0.011 A 
ATOM     11  C   UNL     1      -3.678  -2.161  24.550  0.00  0.00    +0.058 A 
ATOM     12 CL   UNL     1      -3.386  -2.920  24.409  0.00  0.00    -0.082 Cl
ATOM     13  C   UNL     1      -3.531  -1.791  25.273  0.00  0.00    +0.011 A 
ATOM     14  C   UNL     1      -3.823  -1.032  25.414  0.00  0.00    -0.002 A 
ENDBRANCH   7   8
ENDBRANCH   6   7
ENDBRANCH   5   6
TORSDOF 5
ENDMDL
MODEL 2
REMARK VINA RESULT:     -11.6      2.425      4.058
REMARK  Name = 
REMARK  5 active torsions:
REMARK  status: ('A' for Active; 'I' for Inactive)
REMARK    1  A    between atoms: C_4  and  C_17
REMARK    2  A    between atoms: C_5  and  N_6
REMARK    3  A    between atoms: N_6  and  C_7
REMARK    4  A    between atoms: C_7  and  C_8
REMARK    5  A    between atoms: C_20  and  N_23
REMARK                            x       y       z     vdW  Elec       q    Type
REMARK                         _______ _______ _______ _____ _____    ______ ____
ROOT
ATOM      1  O   UNL     1      -6.698   2.111  25.120  0.00  0.00    -0.220 OA
ATOM      2  C   UNL     1      -5.894   1.940  25.069  0.00  0.00    +0.184 C 
ATOM      3  C   UNL     1      -5.562   1.190  24.984  0.00  0.00    +0.041 C 
ATOM      4  C   UNL     1      -4.741   1.276  24.956  0.00  0.00    +0.045 C 
ATOM      5  C   UNL     1      -4.566   2.079  25.023  0.00  0.00    +0.110 C 
ATOM     15  C   UNL     1      -5.279   2.490  25.093  0.00  0.00    +0.198 C 
ATOM     16  O   UNL     1      -5.362   3.307  25.173  0.00  0.00    -0.219 OA
ENDROOT
BRANCH   4  17
ATOM     17  C   UNL     1      -4.193   0.665  24.875  0.00  0.00    -0.002 A 
ATOM     18  C   UNL     1      -4.013   0.184  25.520  0.00  0.00    +0.000 A 
ATOM     19  C   UNL     1      -3.463  -0.427  25.438  0.00  0.00    +0.034 A 
ATOM     20  C   UNL     1      -3.095  -0.556  24.712  0.00  0.00    +0.132 A 
ATOM     21  N   UNL     1      -3.275  -0.075  24.066  0.00  0.00    -0.229 NA
ATOM     22  C   UNL     1      -3.824   0.536  24.148  0.00  0.00    +0.096 A 
BRANCH  20  23
ATOM     23  N   UNL     1      -2.546  -1.167  24.630  0.00  0.00    -0.288 N 
ATOM     24  C   UNL     1      -2.804  -1.936  24.483  0.00  0.00    +0.124 C 
ATOM     25  C   UNL     1      -2.256  -2.547  24.402  0.00  0.00    +0.164 C 
ATOM     26  O   UNL     1      -1.449  -2.389  24.466  0.00  0.00    -0.350 OA
ATOM     27  C   UNL     1      -1.190  -1.618  24.613  0.00  0.00    +0.164 C 
ATOM     28  C   UNL     1      -1.740  -1.008  24.695  0.00  0.00    +0.124 C 
ENDBRANCH  20  23
ENDBRANCH   4  17
BRANCH   5   6
ATOM      6  N   UNL     1      -3.813   2.413  25.021  0.00  0.00    -0.212 NA
BRANCH   6   7
ATOM      7  C   UNL     1      -3.682   3.140  25.389  0.00  0.00    +0.115 C 
BRANCH   7   8
ATOM      8  C   UNL     1      -2.942   3.502  25.335  0.00  0.00    -0.005 A 
ATOM      9  C   UNL     1      -2.343   3.296  25.862  0.00  0.00    -0.002 A 
ATOM     10  C   UNL     1      -1.603   3.659  25.809  0.00  0.00    +0.011 A 
ATOM     11  C   UNL     1      -1.464   4.228  25.228  0.00  0.00    +0.058 A 
ATOM     12 CL   UNL     1      -0.725   4.591  25.174  0.00  0.00    -0.082 Cl
ATOM     13  C   UNL     1      -2.064   4.435  24.701  0.00  0.00    +0.011 A 
ATOM     14  C   UNL     1      -2.804   4.072  24.754  0.00  0.00    -0.002 A 
ENDBRANCH   7   8
ENDBRANCH   6   7
ENDBRANCH   5   6
TORSDOF 5
ENDMDL
MODEL 3
REMARK VINA RESULT:     -11.4      2.569      3.785
REMARK  Name = 
REMARK  5 active torsions:
REMARK  status: ('A' for Active; 'I' for Inactive)
REMARK    1  A    between atoms: C_4  and  C_17
REMARK    2  A    between atoms: C_5  and  N_6
REMARK    3  A    between atoms: N_6  and  C_7
REMARK    4  A    between atoms: C_7  and  C_8
REMARK    5  A    between atoms: C_20  and  N_23
REMARK                            x       y       z     vdW  Elec       q    Type
REMARK                         _______ _______ _______ _____ _____    ______ ____
ROOT
ATOM      1  O   UNL     1      -0.631   5.356  24.952  0.00  0.00    -0.220 OA
ATOM      2  C   UNL     1      -1.007   4.625  25.013  0.00  0.00    +0.184 C 
ATOM      3  C   UNL     1      -0.649   3.887  24.926  0.00  0.00    +0.041 C 
ATOM      4  C   UNL     1      -1.228   3.309  25.032  0.00  0.00    +0.045 C 
ATOM      5  C   UNL     1      -1.944   3.690  25.184  0.00  0.00    +0.110 C 
ATOM     15  C   UNL     1      -1.808   4.504  25.172  0.00  0.00    +0.198 C 
ATOM     16  O   UNL     1      -2.373   5.092  25.298  0.00  0.00    -0.219 OA
ENDROOT
BRANCH   4  17
ATOM     17  C   UNL     1      -1.112   2.493  24.992  0.00  0.00    -0.002 A 
ATOM     18  C   UNL     1      -0.973   2.062  25.681  0.00  0.00    +0.000 A 
ATOM     19  C   UNL     1      -0.857   1.246  25.641  0.00  0.00    +0.034 A 
ATOM     20  C   UNL     1      -0.878   0.862  24.912  0.00  0.00    +0.132 A 
ATOM     21  N   UNL     1      -1.016   1.293  24.221  0.00  0.00    -0.229 NA
ATOM     22  C   UNL     1      -1.133   2.109  24.262  0.00  0.00    +0.096 A 
BRANCH  20  23
ATOM     23  N   UNL     1      -0.761   0.046  24.871  0.00  0.00    -0.288 N 
ATOM     24  C   UNL     1      -1.118  -0.450  25.426  0.00  0.00    +0.124 C 
ATOM     25  C   UNL     1      -1.001  -1.265  25.386  0.00  0.00    +0.164 C 
ATOM     26  O   UNL     1      -0.528  -1.586  24.791  0.00  0.00    -0.350 OA
ATOM     27  C   UNL     1      -0.171  -1.090  24.236  0.00  0.00    +0.164 C 
ATOM     28  C   UNL     1      -0.288  -0.274  24.277  0.00  0.00    +0.124 C 
ENDBRANCH  20  23
ENDBRANCH   4  17
BRANCH   5   6
ATOM      6  N   UNL     1      -2.669   3.322  25.323  0.00  0.00    -0.212 NA
BRANCH   6   7
ATOM      7  C   UNL     1      -3.365   3.659  25.036  0.00  0.00    +0.115 C 
BRANCH   7   8
ATOM      8  C   UNL     1      -4.078   3.247  25.094  0.00  0.00    -0.005 A 
ATOM      9  C   UNL     1      -4.523   3.289  25.786  0.00  0.00    -0.002 A 
ATOM     10  C   UNL     1      -5.236   2.877  25.844  0.00  0.00    +0.011 A 
ATOM     11  C   UNL     1      -5.503   2.424  25.209  0.00  0.00    +0.058 A 
ATOM     12 CL   UNL     1      -6.215   2.012  25.266  0.00  0.00    -0.082 Cl
ATOM     13  C   UNL     1      -5.057   2.381  24.516  0.00  0.00    +0.011 A 
ATOM     14  C   UNL     1      -4.344   2.793  24.458  0.00  0.00    -0.002 A 
ENDBRANCH   7   8
ENDBRANCH   6   7
ENDBRANCH   5   6
TORSDOF 5
ENDMDL
