MODEL 1
REMARK VINA RESULT:     -10.2      0.000      0.000
REMARK  Name = 
REMARK  8 active torsions:
REMARK  status: ('A' for Active; 'I' for Inactive)
REMARK    1  A    between atoms: O_2  and  C_3
REMARK    2  A    between atoms: C_3  and  C_4
REMARK    3  A    between atoms: C_4  and  N_5
REMARK    4  A    between atoms: C_6  and  C_8
REMARK    5  A    between atoms: N_12  and  C_13
REMARK    6  A    between atoms: C_13  and  C_14
REMARK    7  A    between atoms: C_22  and  C_23
REMARK    8  A    between atoms: C_23  and  C_24
REMARK                            x       y       z     vdW  Elec       q    Type
REMARK                         _______ _______ _______ _____ _____    ______ ____
ROOT
ATOM      8  C   UNL     1      -1.779   0.217  24.622  0.00  0.00    +0.155 C 
ATOM      9  C   UNL     1      -1.814   1.023  24.791  0.00  0.00    +0.055 C 
ATOM     10  C   UNL     1      -2.480   1.499  24.897  0.00  0.00    -0.002 A 
ATOM     11  C   UNL     1      -2.441   2.306  25.065  0.00  0.00    +0.072 A 
ATOM     12  N   UNL     1      -3.212   2.590  25.132  0.00  0.00    -0.322 N 
ATOM     16  C   UNL     1      -3.728   1.958  25.005  0.00  0.00    +0.060 A 
ATOM     17  C   UNL     1      -3.276   1.284  24.860  0.00  0.00    +0.011 A 
ATOM     18  C   UNL     1      -3.602   0.543  24.709  0.00  0.00    -0.005 A 
ATOM     19  C   UNL     1      -4.470   0.515  24.712  0.00  0.00    -0.003 A 
ATOM     20  C   UNL     1      -4.923   1.189  24.857  0.00  0.00    +0.001 A 
ATOM     21  C   UNL     1      -4.552   1.911  25.004  0.00  0.00    +0.017 A 
ATOM     22  C   UNL     1      -3.213  -0.169  24.556  0.00  0.00    +0.095 C 
ATOM     27  N   UNL     1      -2.402  -0.314  24.518  0.00  0.00    -0.207 NA
ENDROOT
BRANCH   8   6
ATOM      5  N   UNL     1      -0.602  -0.010  23.844  0.00  0.00    -0.202 NA
ATOM      6  C   UNL     1      -1.021  -0.101  24.548  0.00  0.00    +0.258 C 
ATOM      7  O   UNL     1      -0.683  -0.511  25.179  0.00  0.00    -0.272 OA
BRANCH   5   4
ATOM      4  C   UNL     1       0.155  -0.329  23.770  0.00  0.00    +0.147 C 
BRANCH   4   3
ATOM      3  C   UNL     1       0.592  -0.201  23.082  0.00  0.00    +0.166 C 
BRANCH   3   2
ATOM      1  C   UNL     1       1.855  -0.116  22.419  0.00  0.00    +0.174 C 
ATOM      2  O   UNL     1       1.416  -0.175  23.114  0.00  0.00    -0.349 OA
ENDBRANCH   3   2
ENDBRANCH   4   3
ENDBRANCH   5   4
ENDBRANCH   8   6
BRANCH  12  13
ATOM     13  C   UNL     1      -3.430   3.368  25.296  0.00  0.00    +0.132 C 
BRANCH  13  14
ATOM     14  C   UNL     1      -2.869   3.902  25.582  0.00  0.00    -0.002 C 
ATOM     15  C   UNL     1      -3.111   4.626  25.896  0.00  0.00    -0.003 C 
ENDBRANCH  13  14
ENDBRANCH  12  13
BRANCH  22  23
ATOM     23  C   UNL     1      -3.700  -0.822  24.425  0.00  0.00    +0.022 C 
BRANCH  23  24
ATOM     24  C   UNL     1      -3.491  -1.560  24.727  0.00  0.00    +0.002 C 
ATOM     25  C   UNL     1      -3.514  -1.696  25.540  0.00  0.00    +0.000 C 
ATOM     26  C   UNL     1      -3.257  -2.164  24.215  0.00  0.00    +0.000 C 
ENDBRANCH  23  24
ENDBRANCH  22  23
TORSDOF 8
ENDMDL
MODEL 2
REMARK VINA RESULT:      -9.5      2.112      3.487
REMARK  Name = 
REMARK  8 active torsions:
REMARK  status: ('A' for Active; 'I' for Inactive)
REMARK    1  A    between atoms: O_2  and  C_3
REMARK    2  A    between atoms: C_3  and  C_4
REMARK    3  A    between atoms: C_4  and  N_5
REMARK    4  A    between atoms: C_6  and  C_8
REMARK    5  A    between atoms: N_12  and  C_13
REMARK    6  A    between atoms: C_13  and  C_14
REMARK    7  A    between atoms: C_22  and  C_23
REMARK    8  A    between atoms: C_23  and  C_24
REMARK                            x       y       z     vdW  Elec       q    Type
REMARK                         _______ _______ _______ _____ _____    ______ ____
ROOT
ATOM      8  C   UNL     1      -3.567   1.108  24.462  0.00  0.00    +0.155 C 
ATOM      9  C   UNL     1      -2.778   1.258  24.648  0.00  0.00    +0.055 C 
ATOM     10  C   UNL     1      -2.451   1.926  25.005  0.00  0.00    -0.002 A 
ATOM     11  C   UNL     1      -1.645   2.009  25.163  0.00  0.00    +0.072 A 
ATOM     12  N   UNL     1      -1.530   2.744  25.518  0.00  0.00    -0.322 N 
ATOM     16  C   UNL     1      -2.264   3.116  25.579  0.00  0.00    +0.060 A 
ATOM     17  C   UNL     1      -2.833   2.611  25.262  0.00  0.00    +0.011 A 
ATOM     18  C   UNL     1      -3.636   2.795  25.227  0.00  0.00    -0.005 A 
ATOM     19  C   UNL     1      -3.849   3.572  25.553  0.00  0.00    -0.003 A 
ATOM     20  C   UNL     1      -3.280   4.078  25.870  0.00  0.00    +0.001 A 
ATOM     21  C   UNL     1      -2.487   3.850  25.883  0.00  0.00    +0.017 A 
ATOM     22  C   UNL     1      -4.256   2.341  24.926  0.00  0.00    +0.095 C 
ATOM     27  N   UNL     1      -4.225   1.590  24.586  0.00  0.00    -0.207 NA
ENDROOT
BRANCH   8   6
ATOM      5  N   UNL     1      -3.779  -0.301  24.565  0.00  0.00    -0.202 NA
ATOM      6  C   UNL     1      -3.719   0.380  24.105  0.00  0.00    +0.258 C 
ATOM      7  O   UNL     1      -3.812   0.334  23.286  0.00  0.00    -0.272 OA
BRANCH   5   4
ATOM      4  C   UNL     1      -3.932  -1.029  24.207  0.00  0.00    +0.147 C 
BRANCH   4   3
ATOM      3  C   UNL     1      -3.824  -1.728  24.631  0.00  0.00    +0.166 C 
BRANCH   3   2
ATOM      1  C   UNL     1      -3.492  -3.116  24.552  0.00  0.00    +0.174 C 
ATOM      2  O   UNL     1      -3.883  -2.457  24.249  0.00  0.00    -0.349 OA
ENDBRANCH   3   2
ENDBRANCH   4   3
ENDBRANCH   5   4
ENDBRANCH   8   6
BRANCH  12  13
ATOM     13  C   UNL     1      -0.807   3.054  25.768  0.00  0.00    +0.132 C 
BRANCH  13  14
ATOM     14  C   UNL     1      -0.156   2.558  25.863  0.00  0.00    -0.002 C 
ATOM     15  C   UNL     1       0.479   2.794  26.333  0.00  0.00    -0.003 C 
ENDBRANCH  13  14
ENDBRANCH  12  13
BRANCH  22  23
ATOM     23  C   UNL     1      -5.005   2.684  24.972  0.00  0.00    +0.022 C 
BRANCH  23  24
ATOM     24  C   UNL     1      -5.653   2.229  25.202  0.00  0.00    +0.002 C 
ATOM     25  C   UNL     1      -5.757   2.030  25.996  0.00  0.00    +0.000 C 
ATOM     26  C   UNL     1      -6.198   1.972  24.638  0.00  0.00    +0.000 C 
ENDBRANCH  23  24
ENDBRANCH  22  23
TORSDOF 8
ENDMDL
MODEL 3
REMARK VINA RESULT:      -9.5      1.866      4.794
REMARK  Name = 
REMARK  8 active torsions:
REMARK  status: ('A' for Active; 'I' for Inactive)
REMARK    1  A    between atoms: O_2  and  C_3
REMARK    2  A    between atoms: C_3  and  C_4
REMARK    3  A    between atoms: C_4  and  N_5
REMARK    4  A    between atoms: C_6  and  C_8
REMARK    5  A    between atoms: N_12  and  C_13
REMARK    6  A    between atoms: C_13  and  C_14
REMARK    7  A    between atoms: C_22  and  C_23
REMARK    8  A    between atoms: C_23  and  C_24
REMARK                            x       y       z     vdW  Elec       q    Type
REMARK                         _______ _______ _______ _____ _____    ______ ____
ROOT
ATOM      8  C   UNL     1      -2.554   1.483  24.503  0.00  0.00    +0.155 C 
ATOM      9  C   UNL     1      -2.982   0.782  24.435  0.00  0.00    +0.055 C 
ATOM     10  C   UNL     1      -2.716   0.005  24.520  0.00  0.00    -0.002 A 
ATOM     11  C   UNL     1      -3.204  -0.654  24.438  0.00  0.00    +0.072 A 
ATOM     12  N   UNL     1      -2.745  -1.328  24.561  0.00  0.00    -0.322 N 
ATOM     16  C   UNL     1      -1.973  -1.085  24.720  0.00  0.00    +0.060 A 
ATOM     17  C   UNL     1      -1.955  -0.261  24.694  0.00  0.00    +0.011 A 
ATOM     18  C   UNL     1      -1.273   0.183  24.826  0.00  0.00    -0.005 A 
ATOM     19  C   UNL     1      -0.559  -0.282  24.997  0.00  0.00    -0.003 A 
ATOM     20  C   UNL     1      -0.577  -1.106  25.023  0.00  0.00    +0.001 A 
ATOM     21  C   UNL     1      -1.284  -1.508  24.884  0.00  0.00    +0.017 A 
ATOM     22  C   UNL     1      -1.182   1.003  24.816  0.00  0.00    +0.095 C 
ATOM     27  N   UNL     1      -1.752   1.582  24.672  0.00  0.00    -0.207 NA
ENDROOT
BRANCH   8   6
ATOM      5  N   UNL     1      -3.461   2.475  24.987  0.00  0.00    -0.202 NA
ATOM      6  C   UNL     1      -2.983   2.178  24.385  0.00  0.00    +0.258 C 
ATOM      7  O   UNL     1      -2.932   2.576  23.664  0.00  0.00    -0.272 OA
BRANCH   5   4
ATOM      4  C   UNL     1      -3.890   3.170  24.870  0.00  0.00    +0.147 C 
BRANCH   4   3
ATOM      3  C   UNL     1      -4.399   3.446  25.457  0.00  0.00    +0.166 C 
BRANCH   3   2
ATOM      1  C   UNL     1      -5.720   3.952  25.655  0.00  0.00    +0.174 C 
ATOM      2  O   UNL     1      -4.993   3.986  25.268  0.00  0.00    -0.349 OA
ENDBRANCH   3   2
ENDBRANCH   4   3
ENDBRANCH   5   4
ENDBRANCH   8   6
BRANCH  12  13
ATOM     13  C   UNL     1      -3.011  -2.108  24.532  0.00  0.00    +0.132 C 
BRANCH  13  14
ATOM     14  C   UNL     1      -3.764  -2.277  24.240  0.00  0.00    -0.002 C 
ATOM     15  C   UNL     1      -4.007  -3.061  24.154  0.00  0.00    -0.003 C 
ENDBRANCH  13  14
ENDBRANCH  12  13
BRANCH  22  23
ATOM     23  C   UNL     1      -0.421   1.281  24.971  0.00  0.00    +0.022 C 
BRANCH  23  24
ATOM     24  C   UNL     1      -0.314   2.034  25.290  0.00  0.00    +0.002 C 
ATOM     25  C   UNL     1      -0.425   2.160  26.098  0.00  0.00    +0.000 C 
ATOM     26  C   UNL     1      -0.094   2.662  24.802  0.00  0.00    +0.000 C 
ENDBRANCH  23  24
ENDBRANCH  22  23
TORSDOF 8
ENDMDL
MODEL 4
REMARK VINA RESULT:      -9.5      1.822      3.952
REMARK  Name = 
REMARK  8 active torsions:
REMARK  status: ('A' for Active; 'I' for Inactive)
REMARK    1  A    between atoms: O_2  and  C_3
REMARK    2  A    between atoms: C_3  and  C_4
REMARK    3  A    between atoms: C_4  and  N_5
REMARK    4  A    between atoms: C_6  and  C_8
REMARK    5  A    between atoms: N_12  and  C_13
REMARK    6  A    between atoms: C_13  and  C_14
REMARK    7  A    between atoms: C_22  and  C_23
REMARK    8  A    between atoms: C_23  and  C_24
REMARK                            x       y       z     vdW  Elec       q    Type
REMARK                         _______ _______ _______ _____ _____    ______ ____
ROOT
ATOM      8  C   UNL     1      -3.030   1.838  24.528  0.00  0.00    +0.155 C 
ATOM      9  C   UNL     1      -2.392   1.316  24.559  0.00  0.00    +0.055 C 
ATOM     10  C   UNL     1      -2.399   0.502  24.691  0.00  0.00    -0.002 A 
ATOM     11  C   UNL     1      -1.717   0.038  24.710  0.00  0.00    +0.072 A 
ATOM     12  N   UNL     1      -1.943  -0.742  24.854  0.00  0.00    -0.322 N 
ATOM     16  C   UNL     1      -2.765  -0.760  24.925  0.00  0.00    +0.060 A 
ATOM     17  C   UNL     1      -3.047   0.008  24.825  0.00  0.00    +0.011 A 
ATOM     18  C   UNL     1      -3.846   0.206  24.859  0.00  0.00    -0.005 A 
ATOM     19  C   UNL     1      -4.384  -0.459  25.011  0.00  0.00    -0.003 A 
ATOM     20  C   UNL     1      -4.102  -1.227  25.111  0.00  0.00    +0.001 A 
ATOM     21  C   UNL     1      -3.292  -1.378  25.069  0.00  0.00    +0.017 A 
ATOM     22  C   UNL     1      -4.197   0.948  24.768  0.00  0.00    +0.095 C 
ATOM     27  N   UNL     1      -3.834   1.674  24.620  0.00  0.00    -0.207 NA
ENDROOT
BRANCH   8   6
ATOM      5  N   UNL     1      -2.516   3.090  24.984  0.00  0.00    -0.202 NA
ATOM      6  C   UNL     1      -2.841   2.628  24.384  0.00  0.00    +0.258 C 
ATOM      7  O   UNL     1      -2.977   2.956  23.639  0.00  0.00    -0.272 OA
BRANCH   5   4
ATOM      4  C   UNL     1      -2.326   3.880  24.841  0.00  0.00    +0.147 C 
BRANCH   4   3
ATOM      3  C   UNL     1      -1.850   4.294  25.372  0.00  0.00    +0.166 C 
BRANCH   3   2
ATOM      1  C   UNL     1      -0.951   5.341  25.002  0.00  0.00    +0.174 C 
ATOM      2  O   UNL     1      -1.697   5.096  25.252  0.00  0.00    -0.349 OA
ENDBRANCH   3   2
ENDBRANCH   4   3
ENDBRANCH   5   4
ENDBRANCH   8   6
BRANCH  12  13
ATOM     13  C   UNL     1      -1.436  -1.390  24.917  0.00  0.00    +0.132 C 
BRANCH  13  14
ATOM     14  C   UNL     1      -0.631  -1.273  25.054  0.00  0.00    -0.002 C 
ATOM     15  C   UNL     1      -0.137  -1.919  25.190  0.00  0.00    -0.003 C 
ENDBRANCH  13  14
ENDBRANCH  12  13
BRANCH  22  23
ATOM     23  C   UNL     1      -5.019   0.965  24.833  0.00  0.00    +0.022 C 
BRANCH  23  24
ATOM     24  C   UNL     1      -5.395   1.636  25.131  0.00  0.00    +0.002 C 
ATOM     25  C   UNL     1      -5.416   1.770  25.944  0.00  0.00    +0.000 C 
ATOM     26  C   UNL     1      -5.751   2.173  24.615  0.00  0.00    +0.000 C 
ENDBRANCH  23  24
ENDBRANCH  22  23
TORSDOF 8
ENDMDL
MODEL 5
REMARK VINA RESULT:      -9.3      1.111      3.292
REMARK  Name = 
REMARK  8 active torsions:
REMARK  status: ('A' for Active; 'I' for Inactive)
REMARK    1  A    between atoms: O_2  and  C_3
REMARK    2  A    between atoms: C_3  and  C_4
REMARK    3  A    between atoms: C_4  and  N_5
REMARK    4  A    between atoms: C_6  and  C_8
REMARK    5  A    between atoms: N_12  and  C_13
REMARK    6  A    between atoms: C_13  and  C_14
REMARK    7  A    between atoms: C_22  and  C_23
REMARK    8  A    between atoms: C_23  and  C_24
REMARK                            x       y       z     vdW  Elec       q    Type
REMARK                         _______ _______ _______ _____ _____    ______ ____
ROOT
ATOM      8  C   UNL     1      -1.522   1.644  24.855  0.00  0.00    +0.155 C 
ATOM      9  C   UNL     1      -1.867   0.903  24.754  0.00  0.00    +0.055 C 
ATOM     10  C   UNL     1      -2.667   0.713  24.681  0.00  0.00    -0.002 A 
ATOM     11  C   UNL     1      -2.944  -0.058  24.582  0.00  0.00    +0.072 A 
ATOM     12  N   UNL     1      -3.767  -0.029  24.531  0.00  0.00    -0.322 N 
ATOM     16  C   UNL     1      -3.998   0.761  24.599  0.00  0.00    +0.060 A 
ATOM     17  C   UNL     1      -3.319   1.219  24.692  0.00  0.00    +0.011 A 
ATOM     18  C   UNL     1      -3.332   2.038  24.777  0.00  0.00    -0.005 A 
ATOM     19  C   UNL     1      -4.123   2.397  24.762  0.00  0.00    -0.003 A 
ATOM     20  C   UNL     1      -4.803   1.939  24.669  0.00  0.00    +0.001 A 
ATOM     21  C   UNL     1      -4.740   1.121  24.587  0.00  0.00    +0.017 A 
ATOM     22  C   UNL     1      -2.696   2.556  24.873  0.00  0.00    +0.095 C 
ATOM     27  N   UNL     1      -1.891   2.381  24.908  0.00  0.00    -0.207 NA
ENDROOT
BRANCH   8   6
ATOM      5  N   UNL     1      -0.239   1.621  24.227  0.00  0.00    -0.202 NA
ATOM      6  C   UNL     1      -0.699   1.653  24.910  0.00  0.00    +0.258 C 
ATOM      7  O   UNL     1      -0.336   1.692  25.650  0.00  0.00    -0.272 OA
BRANCH   5   4
ATOM      4  C   UNL     1       0.585   1.629  24.282  0.00  0.00    +0.147 C 
BRANCH   4   3
ATOM      3  C   UNL     1       1.043   1.332  23.665  0.00  0.00    +0.166 C 
BRANCH   3   2
ATOM      1  C   UNL     1       2.349   0.987  23.199  0.00  0.00    +0.174 C 
ATOM      2  O   UNL     1       1.856   1.471  23.649  0.00  0.00    -0.349 OA
ENDBRANCH   3   2
ENDBRANCH   4   3
ENDBRANCH   5   4
ENDBRANCH   8   6
BRANCH  12  13
ATOM     13  C   UNL     1      -4.270  -0.674  24.430  0.00  0.00    +0.132 C 
BRANCH  13  14
ATOM     14  C   UNL     1      -3.956  -1.429  24.316  0.00  0.00    -0.002 C 
ATOM     15  C   UNL     1      -4.412  -2.016  23.958  0.00  0.00    -0.003 C 
ENDBRANCH  13  14
ENDBRANCH  12  13
BRANCH  22  23
ATOM     23  C   UNL     1      -2.893   3.355  24.944  0.00  0.00    +0.022 C 
BRANCH  23  24
ATOM     24  C   UNL     1      -2.456   3.844  25.443  0.00  0.00    +0.002 C 
ATOM     25  C   UNL     1      -1.900   4.365  25.128  0.00  0.00    +0.000 C 
ATOM     26  C   UNL     1      -2.574   3.812  26.259  0.00  0.00    +0.000 C 
ENDBRANCH  23  24
ENDBRANCH  22  23
TORSDOF 8
ENDMDL
MODEL 6
REMARK VINA RESULT:      -9.2      1.516      3.242
REMARK  Name = 
REMARK  8 active torsions:
REMARK  status: ('A' for Active; 'I' for Inactive)
REMARK    1  A    between atoms: O_2  and  C_3
REMARK    2  A    between atoms: C_3  and  C_4
REMARK    3  A    between atoms: C_4  and  N_5
REMARK    4  A    between atoms: C_6  and  C_8
REMARK    5  A    between atoms: N_12  and  C_13
REMARK    6  A    between atoms: C_13  and  C_14
REMARK    7  A    between atoms: C_22  and  C_23
REMARK    8  A    between atoms: C_23  and  C_24
REMARK                            x       y       z     vdW  Elec       q    Type
REMARK                         _______ _______ _______ _____ _____    ______ ____
ROOT
ATOM      8  C   UNL     1      -1.877   1.391  24.607  0.00  0.00    +0.155 C 
ATOM      9  C   UNL     1      -2.698   1.346  24.557  0.00  0.00    +0.055 C 
ATOM     10  C   UNL     1      -3.260   1.896  24.809  0.00  0.00    -0.002 A 
ATOM     11  C   UNL     1      -4.074   1.785  24.727  0.00  0.00    +0.072 A 
ATOM     12  N   UNL     1      -4.454   2.446  25.040  0.00  0.00    -0.322 N 
ATOM     16  C   UNL     1      -3.875   2.966  25.316  0.00  0.00    +0.060 A 
ATOM     17  C   UNL     1      -3.138   2.626  25.173  0.00  0.00    +0.011 A 
ATOM     18  C   UNL     1      -2.425   2.987  25.375  0.00  0.00    -0.005 A 
ATOM     19  C   UNL     1      -2.501   3.764  25.756  0.00  0.00    -0.003 A 
ATOM     20  C   UNL     1      -3.238   4.105  25.899  0.00  0.00    +0.001 A 
ATOM     21  C   UNL     1      -3.926   3.705  25.679  0.00  0.00    +0.017 A 
ATOM     22  C   UNL     1      -1.657   2.707  25.263  0.00  0.00    +0.095 C 
ATOM     27  N   UNL     1      -1.413   1.997  24.921  0.00  0.00    -0.207 NA
ENDROOT
BRANCH   8   6
ATOM      5  N   UNL     1      -1.451   0.031  24.714  0.00  0.00    -0.202 NA
ATOM      6  C   UNL     1      -1.463   0.745  24.302  0.00  0.00    +0.258 C 
ATOM      7  O   UNL     1      -1.061   0.815  23.585  0.00  0.00    -0.272 OA
BRANCH   5   4
ATOM      4  C   UNL     1      -1.038  -0.615  24.409  0.00  0.00    +0.147 C 
BRANCH   4   3
ATOM      3  C   UNL     1      -1.111  -1.356  24.763  0.00  0.00    +0.166 C 
BRANCH   3   2
ATOM      1  C   UNL     1      -1.720  -2.627  24.526  0.00  0.00    +0.174 C 
ATOM      2  O   UNL     1      -1.200  -2.030  24.295  0.00  0.00    -0.349 OA
ENDBRANCH   3   2
ENDBRANCH   4   3
ENDBRANCH   5   4
ENDBRANCH   8   6
BRANCH  12  13
ATOM     13  C   UNL     1      -5.269   2.567  25.072  0.00  0.00    +0.132 C 
BRANCH  13  14
ATOM     14  C   UNL     1      -5.786   1.947  24.902  0.00  0.00    -0.002 C 
ATOM     15  C   UNL     1      -6.587   2.014  25.088  0.00  0.00    -0.003 C 
ENDBRANCH  13  14
ENDBRANCH  12  13
BRANCH  22  23
ATOM     23  C   UNL     1      -1.053   3.203  25.528  0.00  0.00    +0.022 C 
BRANCH  23  24
ATOM     24  C   UNL     1      -0.309   2.892  25.699  0.00  0.00    +0.002 C 
ATOM     25  C   UNL     1       0.295   2.932  25.138  0.00  0.00    +0.000 C 
ATOM     26  C   UNL     1      -0.167   2.540  26.432  0.00  0.00    +0.000 C 
ENDBRANCH  23  24
ENDBRANCH  22  23
TORSDOF 8
ENDMDL
MODEL 7
REMARK VINA RESULT:      -8.8      1.645      4.286
REMARK  Name = 
REMARK  8 active torsions:
REMARK  status: ('A' for Active; 'I' for Inactive)
REMARK    1  A    between atoms: O_2  and  C_3
REMARK    2  A    between atoms: C_3  and  C_4
REMARK    3  A    between atoms: C_4  and  N_5
REMARK    4  A    between atoms: C_6  and  C_8
REMARK    5  A    between atoms: N_12  and  C_13
REMARK    6  A    between atoms: C_13  and  C_14
REMARK    7  A    between atoms: C_22  and  C_23
REMARK    8  A    between atoms: C_23  and  C_24
REMARK                            x       y       z     vdW  Elec       q    Type
REMARK                         _______ _______ _______ _____ _____    ______ ____
ROOT
ATOM      8  C   UNL     1      -2.468   1.135  24.125  0.00  0.00    +0.155 C 
ATOM      9  C   UNL     1      -1.694   1.146  23.842  0.00  0.00    +0.055 C 
ATOM     10  C   UNL     1      -1.111   0.565  23.912  0.00  0.00    -0.002 A 
ATOM     11  C   UNL     1      -0.351   0.644  23.601  0.00  0.00    +0.072 A 
ATOM     12  N   UNL     1       0.069  -0.042  23.780  0.00  0.00    -0.322 N 
ATOM     16  C   UNL     1      -0.432  -0.546  24.201  0.00  0.00    +0.060 A 
ATOM     17  C   UNL     1      -1.161  -0.170  24.282  0.00  0.00    +0.011 A 
ATOM     18  C   UNL     1      -1.804  -0.507  24.673  0.00  0.00    -0.005 A 
ATOM     19  C   UNL     1      -1.661  -1.298  25.002  0.00  0.00    -0.003 A 
ATOM     20  C   UNL     1      -0.931  -1.674  24.921  0.00  0.00    +0.001 A 
ATOM     21  C   UNL     1      -0.316  -1.298  24.520  0.00  0.00    +0.017 A 
ATOM     22  C   UNL     1      -2.557  -0.191  24.792  0.00  0.00    +0.095 C 
ATOM     27  N   UNL     1      -2.853   0.540  24.548  0.00  0.00    -0.207 NA
ENDROOT
BRANCH   8   6
ATOM      5  N   UNL     1      -3.092   2.342  24.567  0.00  0.00    -0.202 NA
ATOM      6  C   UNL     1      -2.919   1.807  23.964  0.00  0.00    +0.258 C 
ATOM      7  O   UNL     1      -3.196   1.944  23.199  0.00  0.00    -0.272 OA
BRANCH   5   4
ATOM      4  C   UNL     1      -3.543   3.014  24.406  0.00  0.00    +0.147 C 
BRANCH   4   3
ATOM      3  C   UNL     1      -3.851   3.462  25.025  0.00  0.00    +0.166 C 
BRANCH   3   2
ATOM      1  C   UNL     1      -5.119   3.847  25.560  0.00  0.00    +0.174 C 
ATOM      2  O   UNL     1      -4.578   3.842  24.938  0.00  0.00    -0.349 OA
ENDBRANCH   3   2
ENDBRANCH   4   3
ENDBRANCH   5   4
ENDBRANCH   8   6
BRANCH  12  13
ATOM     13  C   UNL     1       0.853  -0.199  23.574  0.00  0.00    +0.132 C 
BRANCH  13  14
ATOM     14  C   UNL     1       1.194   0.184  22.929  0.00  0.00    -0.002 C 
ATOM     15  C   UNL     1       1.988   0.056  22.745  0.00  0.00    -0.003 C 
ENDBRANCH  13  14
ENDBRANCH  12  13
BRANCH  22  23
ATOM     23  C   UNL     1      -3.084  -0.669  25.210  0.00  0.00    +0.022 C 
BRANCH  23  24
ATOM     24  C   UNL     1      -3.879  -0.694  24.993  0.00  0.00    +0.002 C 
ATOM     25  C   UNL     1      -4.113  -1.124  24.329  0.00  0.00    +0.000 C 
ATOM     26  C   UNL     1      -4.442  -0.289  25.441  0.00  0.00    +0.000 C 
ENDBRANCH  23  24
ENDBRANCH  22  23
TORSDOF 8
ENDMDL
