MODEL 1
REMARK VINA RESULT:     -10.0      0.000      0.000
REMARK  Name = 
REMARK  4 active torsions:
REMARK  status: ('A' for Active; 'I' for Inactive)
REMARK    1  A    between atoms: C_2  and  C_24
REMARK    2  A    between atoms: N_3  and  C_4
REMARK    3  A    between atoms: C_8  and  N_12
REMARK    4  A    between atoms: C_15  and  C_19
REMARK                            x       y       z     vdW  Elec       q    Type
REMARK                         _______ _______ _______ _____ _____    ______ ____
ROOT
ATOM      4  C   UNL     1      -2.303   2.368  24.734  0.00  0.00    +0.154 C 
ATOM      5  C   UNL     1      -2.006   2.977  24.264  0.00  0.00    +0.166 C 
ATOM      6  O   UNL     1      -1.216   2.807  24.096  0.00  0.00    -0.350 OA
ATOM      7  C   UNL     1      -1.025   2.094  24.462  0.00  0.00    +0.166 C 
ATOM      8  C   UNL     1      -0.420   1.547  24.586  0.00  0.00    +0.154 C 
ATOM      9  C   UNL     1      -0.717   0.938  25.056  0.00  0.00    +0.166 C 
ATOM     10  O   UNL     1      -1.507   1.108  25.224  0.00  0.00    -0.350 OA
ATOM     11  C   UNL     1      -1.697   1.823  24.857  0.00  0.00    +0.166 C 
ENDROOT
BRANCH   8  12
ATOM     12  N   UNL     1       0.348   1.600  24.290  0.00  0.00    -0.200 NA
ATOM     13  C   UNL     1       0.657   0.988  23.831  0.00  0.00    +0.236 A 
ATOM     14  N   UNL     1       1.425   1.040  23.535  0.00  0.00    -0.217 NA
ATOM     15  C   UNL     1       1.734   0.428  23.076  0.00  0.00    +0.063 A 
ATOM     16  C   UNL     1       1.274  -0.237  22.913  0.00  0.00    +0.035 A 
ATOM     17  C   UNL     1       0.506  -0.290  23.209  0.00  0.00    +0.103 A 
ATOM     18  N   UNL     1       0.198   0.322  23.668  0.00  0.00    -0.211 NA
BRANCH  15  19
ATOM     19  C   UNL     1       2.502   0.481  22.780  0.00  0.00    +0.040 C 
ATOM     20  C   UNL     1       2.777   0.139  22.081  0.00  0.00    +0.006 C 
ATOM     21  C   UNL     1       3.575   0.332  22.000  0.00  0.00    +0.000 C 
ATOM     22  C   UNL     1       3.793   0.792  22.649  0.00  0.00    +0.000 C 
ATOM     23  C   UNL     1       3.130   0.885  23.131  0.00  0.00    +0.006 C 
ENDBRANCH  15  19
ENDBRANCH   8  12
BRANCH   4   3
ATOM      1  O   UNL     1      -3.577   2.882  23.820  0.00  0.00    -0.273 OA
ATOM      2  C   UNL     1      -3.708   2.572  24.573  0.00  0.00    +0.241 C 
ATOM      3  N   UNL     1      -3.071   2.315  25.030  0.00  0.00    -0.202 NA
BRANCH   2  24
ATOM     24  C   UNL     1      -4.477   2.519  24.869  0.00  0.00    +0.078 C 
ATOM     25  C   UNL     1      -4.954   1.877  24.665  0.00  0.00    +0.009 C 
ATOM     26  C   UNL     1      -5.722   1.824  24.961  0.00  0.00    +0.000 C 
ATOM     27  C   UNL     1      -6.013   2.413  25.460  0.00  0.00    +0.000 C 
ATOM     28  C   UNL     1      -5.536   3.054  25.664  0.00  0.00    +0.000 C 
ATOM     29  C   UNL     1      -4.768   3.108  25.368  0.00  0.00    +0.009 C 
ENDBRANCH   2  24
ENDBRANCH   4   3
TORSDOF 4
ENDMDL
MODEL 2
REMARK VINA RESULT:      -9.7      0.939      6.436
REMARK  Name = 
REMARK  4 active torsions:
REMARK  status: ('A' for Active; 'I' for Inactive)
REMARK    1  A    between atoms: C_2  and  C_24
REMARK    2  A    between atoms: N_3  and  C_4
REMARK    3  A    between atoms: C_8  and  N_12
REMARK    4  A    between atoms: C_15  and  C_19
REMARK                            x       y       z     vdW  Elec       q    Type
REMARK                         _______ _______ _______ _____ _____    ______ ____
ROOT
ATOM      4  C   UNL     1       0.230   0.803  23.900  0.00  0.00    +0.154 C 
ATOM      5  C   UNL     1      -0.174   0.100  24.049  0.00  0.00    +0.166 C 
ATOM      6  O   UNL     1      -0.900   0.291  24.390  0.00  0.00    -0.350 OA
ATOM      7  C   UNL     1      -0.944   1.112  24.454  0.00  0.00    +0.166 C 
ATOM      8  C   UNL     1      -1.419   1.738  24.704  0.00  0.00    +0.154 C 
ATOM      9  C   UNL     1      -1.015   2.442  24.556  0.00  0.00    +0.166 C 
ATOM     10  O   UNL     1      -0.289   2.250  24.214  0.00  0.00    -0.350 OA
ATOM     11  C   UNL     1      -0.245   1.429  24.151  0.00  0.00    +0.166 C 
ENDROOT
BRANCH   8  12
ATOM     12  N   UNL     1      -2.169   1.672  25.043  0.00  0.00    -0.200 NA
ATOM     13  C   UNL     1      -2.813   2.057  24.700  0.00  0.00    +0.236 A 
ATOM     14  N   UNL     1      -3.562   1.991  25.038  0.00  0.00    -0.217 NA
ATOM     15  C   UNL     1      -4.206   2.375  24.695  0.00  0.00    +0.063 A 
ATOM     16  C   UNL     1      -4.101   2.826  24.012  0.00  0.00    +0.035 A 
ATOM     17  C   UNL     1      -3.351   2.892  23.672  0.00  0.00    +0.103 A 
ATOM     18  N   UNL     1      -2.708   2.507  24.017  0.00  0.00    -0.211 NA
BRANCH  15  19
ATOM     19  C   UNL     1      -4.955   2.309  25.033  0.00  0.00    +0.040 C 
ATOM     20  C   UNL     1      -5.520   1.736  24.853  0.00  0.00    +0.006 C 
ATOM     21  C   UNL     1      -6.185   1.877  25.320  0.00  0.00    +0.000 C 
ATOM     22  C   UNL     1      -6.031   2.538  25.789  0.00  0.00    +0.000 C 
ATOM     23  C   UNL     1      -5.271   2.805  25.612  0.00  0.00    +0.006 C 
ENDBRANCH  15  19
ENDBRANCH   8  12
BRANCH   4   3
ATOM      1  O   UNL     1       0.877  -0.469  23.072  0.00  0.00    -0.273 OA
ATOM      2  C   UNL     1       1.303   0.233  23.147  0.00  0.00    +0.241 C 
ATOM      3  N   UNL     1       0.980   0.869  23.561  0.00  0.00    -0.202 NA
BRANCH   2  24
ATOM     24  C   UNL     1       2.052   0.299  22.808  0.00  0.00    +0.078 C 
ATOM     25  C   UNL     1       2.210  -0.061  22.083  0.00  0.00    +0.009 C 
ATOM     26  C   UNL     1       2.959   0.005  21.744  0.00  0.00    +0.000 C 
ATOM     27  C   UNL     1       3.551   0.432  22.130  0.00  0.00    +0.000 C 
ATOM     28  C   UNL     1       3.393   0.792  22.855  0.00  0.00    +0.000 C 
ATOM     29  C   UNL     1       2.643   0.726  23.194  0.00  0.00    +0.009 C 
ENDBRANCH   2  24
ENDBRANCH   4   3
TORSDOF 4
ENDMDL
MODEL 3
REMARK VINA RESULT:      -8.8      2.084      6.675
REMARK  Name = 
REMARK  4 active torsions:
REMARK  status: ('A' for Active; 'I' for Inactive)
REMARK    1  A    between atoms: C_2  and  C_24
REMARK    2  A    between atoms: N_3  and  C_4
REMARK    3  A    between atoms: C_8  and  N_12
REMARK    4  A    between atoms: C_15  and  C_19
REMARK                            x       y       z     vdW  Elec       q    Type
REMARK                         _______ _______ _______ _____ _____    ______ ____
ROOT
ATOM      4  C   UNL     1       1.931   0.378  23.090  0.00  0.00    +0.154 C 
ATOM      5  C   UNL     1       1.578  -0.140  22.554  0.00  0.00    +0.166 C 
ATOM      6  O   UNL     1       0.761  -0.088  22.652  0.00  0.00    -0.350 OA
ATOM      7  C   UNL     1       0.609   0.461  23.247  0.00  0.00    +0.166 C 
ATOM      8  C   UNL     1       0.010   0.833  23.676  0.00  0.00    +0.154 C 
ATOM      9  C   UNL     1       0.363   1.351  24.212  0.00  0.00    +0.166 C 
ATOM     10  O   UNL     1       1.181   1.299  24.114  0.00  0.00    -0.350 OA
ATOM     11  C   UNL     1       1.332   0.749  23.518  0.00  0.00    +0.166 C 
ENDROOT
BRANCH   8  12
ATOM     12  N   UNL     1      -0.801   0.708  23.585  0.00  0.00    -0.200 NA
ATOM     13  C   UNL     1      -1.243   0.393  24.206  0.00  0.00    +0.236 A 
ATOM     14  N   UNL     1      -2.052   0.269  24.115  0.00  0.00    -0.217 NA
ATOM     15  C   UNL     1      -2.494  -0.046  24.737  0.00  0.00    +0.063 A 
ATOM     16  C   UNL     1      -2.126  -0.236  25.450  0.00  0.00    +0.035 A 
ATOM     17  C   UNL     1      -1.315  -0.111  25.542  0.00  0.00    +0.103 A 
ATOM     18  N   UNL     1      -0.874   0.203  24.919  0.00  0.00    -0.211 NA
BRANCH  15  19
ATOM     19  C   UNL     1      -3.304  -0.171  24.646  0.00  0.00    +0.040 C 
ATOM     20  C   UNL     1      -3.904   0.340  24.892  0.00  0.00    +0.006 C 
ATOM     21  C   UNL     1      -4.628  -0.002  24.691  0.00  0.00    +0.000 C 
ATOM     22  C   UNL     1      -4.475  -0.723  24.322  0.00  0.00    +0.000 C 
ATOM     23  C   UNL     1      -3.657  -0.827  24.294  0.00  0.00    +0.006 C 
ENDBRANCH  15  19
ENDBRANCH   8  12
BRANCH   4   3
ATOM      1  O   UNL     1       2.969  -0.905  23.093  0.00  0.00    -0.273 OA
ATOM      2  C   UNL     1       3.261  -0.139  23.183  0.00  0.00    +0.241 C 
ATOM      3  N   UNL     1       2.742   0.503  23.181  0.00  0.00    -0.202 NA
BRANCH   2  24
ATOM     24  C   UNL     1       4.071  -0.014  23.274  0.00  0.00    +0.078 C 
ATOM     25  C   UNL     1       4.417   0.678  22.988  0.00  0.00    +0.009 C 
ATOM     26  C   UNL     1       5.227   0.803  23.079  0.00  0.00    +0.000 C 
ATOM     27  C   UNL     1       5.692   0.235  23.457  0.00  0.00    +0.000 C 
ATOM     28  C   UNL     1       5.346  -0.457  23.743  0.00  0.00    +0.000 C 
ATOM     29  C   UNL     1       4.536  -0.582  23.652  0.00  0.00    +0.009 C 
ENDBRANCH   2  24
ENDBRANCH   4   3
TORSDOF 4
ENDMDL
MODEL 4
REMARK VINA RESULT:      -7.8     15.140     16.812
REMARK  Name = 
REMARK  4 active torsions:
REMARK  status: ('A' for Active; 'I' for Inactive)
REMARK    1  A    between atoms: C_2  and  C_24
REMARK    2  A    between atoms: N_3  and  C_4
REMARK    3  A    between atoms: C_8  and  N_12
REMARK    4  A    between atoms: C_15  and  C_19
REMARK                            x       y       z     vdW  Elec       q    Type
REMARK                         _______ _______ _______ _____ _____    ______ ____
ROOT
ATOM      4  C   UNL     1      -4.452 -10.220  12.767  0.00  0.00    +0.154 C 
ATOM      5  C   UNL     1      -3.739 -10.373  13.152  0.00  0.00    +0.166 C 
ATOM      6  O   UNL     1      -3.907 -10.544  13.941  0.00  0.00    -0.350 OA
ATOM      7  C   UNL     1      -4.724 -10.496  14.045  0.00  0.00    +0.166 C 
ATOM      8  C   UNL     1      -5.333 -10.572  14.595  0.00  0.00    +0.154 C 
ATOM      9  C   UNL     1      -6.047 -10.419  14.210  0.00  0.00    +0.166 C 
ATOM     10  O   UNL     1      -5.878 -10.249  13.421  0.00  0.00    -0.350 OA
ATOM     11  C   UNL     1      -5.061 -10.296  13.318  0.00  0.00    +0.166 C 
ENDROOT
BRANCH   8  12
ATOM     12  N   UNL     1      -5.245 -10.767  15.392  0.00  0.00    -0.200 NA
ATOM     13  C   UNL     1      -5.724 -10.408  15.961  0.00  0.00    +0.236 A 
ATOM     14  N   UNL     1      -5.635 -10.603  16.757  0.00  0.00    -0.217 NA
ATOM     15  C   UNL     1      -6.114 -10.245  17.325  0.00  0.00    +0.063 A 
ATOM     16  C   UNL     1      -6.682  -9.692  17.097  0.00  0.00    +0.035 A 
ATOM     17  C   UNL     1      -6.771  -9.497  16.300  0.00  0.00    +0.103 A 
ATOM     18  N   UNL     1      -6.291  -9.855  15.732  0.00  0.00    -0.211 NA
BRANCH  15  19
ATOM     19  C   UNL     1      -6.026 -10.439  18.122  0.00  0.00    +0.040 C 
ATOM     20  C   UNL     1      -6.632 -10.484  18.681  0.00  0.00    +0.006 C 
ATOM     21  C   UNL     1      -6.296 -10.695  19.404  0.00  0.00    +0.000 C 
ATOM     22  C   UNL     1      -5.484 -10.781  19.292  0.00  0.00    +0.000 C 
ATOM     23  C   UNL     1      -5.317 -10.623  18.500  0.00  0.00    +0.006 C 
ENDBRANCH  15  19
ENDBRANCH   8  12
BRANCH   4   3
ATOM      1  O   UNL     1      -3.139 -10.214  11.767  0.00  0.00    -0.273 OA
ATOM      2  C   UNL     1      -3.884 -10.023  11.471  0.00  0.00    +0.241 C 
ATOM      3  N   UNL     1      -4.541 -10.025  11.970  0.00  0.00    -0.202 NA
BRANCH   2  24
ATOM     24  C   UNL     1      -3.973  -9.828  10.674  0.00  0.00    +0.078 C 
ATOM     25  C   UNL     1      -4.255 -10.391  10.140  0.00  0.00    +0.009 C 
ATOM     26  C   UNL     1      -4.343 -10.196   9.344  0.00  0.00    +0.000 C 
ATOM     27  C   UNL     1      -4.151  -9.438   9.080  0.00  0.00    +0.000 C 
ATOM     28  C   UNL     1      -3.869  -8.875   9.614  0.00  0.00    +0.000 C 
ATOM     29  C   UNL     1      -3.780  -9.070  10.411  0.00  0.00    +0.009 C 
ENDBRANCH   2  24
ENDBRANCH   4   3
TORSDOF 4
ENDMDL
MODEL 5
REMARK VINA RESULT:      -6.8     16.048     17.191
REMARK  Name = 
REMARK  4 active torsions:
REMARK  status: ('A' for Active; 'I' for Inactive)
REMARK    1  A    between atoms: C_2  and  C_24
REMARK    2  A    between atoms: N_3  and  C_4
REMARK    3  A    between atoms: C_8  and  N_12
REMARK    4  A    between atoms: C_15  and  C_19
REMARK                            x       y       z     vdW  Elec       q    Type
REMARK                         _______ _______ _______ _____ _____    ______ ____
ROOT
ATOM      4  C   UNL     1      -5.983  -9.727  11.390  0.00  0.00    +0.154 C 
ATOM      5  C   UNL     1      -6.238  -9.321  12.061  0.00  0.00    +0.166 C 
ATOM      6  O   UNL     1      -5.702  -9.473  12.670  0.00  0.00    -0.350 OA
ATOM      7  C   UNL     1      -5.117  -9.972  12.375  0.00  0.00    +0.166 C 
ATOM      8  C   UNL     1      -4.423 -10.375  12.568  0.00  0.00    +0.154 C 
ATOM      9  C   UNL     1      -4.168 -10.781  11.897  0.00  0.00    +0.166 C 
ATOM     10  O   UNL     1      -4.704 -10.629  11.289  0.00  0.00    -0.350 OA
ATOM     11  C   UNL     1      -5.290 -10.129  11.584  0.00  0.00    +0.166 C 
ENDROOT
BRANCH   8  12
ATOM     12  N   UNL     1      -4.050 -10.372  13.304  0.00  0.00    -0.200 NA
ATOM     13  C   UNL     1      -3.227 -10.327  13.349  0.00  0.00    +0.236 A 
ATOM     14  N   UNL     1      -2.854 -10.325  14.085  0.00  0.00    -0.217 NA
ATOM     15  C   UNL     1      -2.031 -10.280  14.130  0.00  0.00    +0.063 A 
ATOM     16  C   UNL     1      -1.582 -10.238  13.440  0.00  0.00    +0.035 A 
ATOM     17  C   UNL     1      -1.955 -10.241  12.704  0.00  0.00    +0.103 A 
ATOM     18  N   UNL     1      -2.778 -10.286  12.659  0.00  0.00    -0.211 NA
BRANCH  15  19
ATOM     19  C   UNL     1      -1.658 -10.277  14.865  0.00  0.00    +0.040 C 
ATOM     20  C   UNL     1      -1.836 -10.771  15.502  0.00  0.00    +0.006 C 
ATOM     21  C   UNL     1      -1.329 -10.579  16.123  0.00  0.00    +0.000 C 
ATOM     22  C   UNL     1      -0.838  -9.967  15.872  0.00  0.00    +0.000 C 
ATOM     23  C   UNL     1      -1.041  -9.780  15.094  0.00  0.00    +0.006 C 
ENDBRANCH  15  19
ENDBRANCH   8  12
BRANCH   4   3
ATOM      1  O   UNL     1      -6.887  -8.429  10.917  0.00  0.00    -0.273 OA
ATOM      2  C   UNL     1      -6.808  -9.081  10.418  0.00  0.00    +0.241 C 
ATOM      3  N   UNL     1      -6.357  -9.729  10.654  0.00  0.00    -0.202 NA
BRANCH   2  24
ATOM     24  C   UNL     1      -7.181  -9.083   9.682  0.00  0.00    +0.078 C 
ATOM     25  C   UNL     1      -7.967  -9.326   9.619  0.00  0.00    +0.009 C 
ATOM     26  C   UNL     1      -8.340  -9.329   8.884  0.00  0.00    +0.000 C 
ATOM     27  C   UNL     1      -7.927  -9.089   8.210  0.00  0.00    +0.000 C 
ATOM     28  C   UNL     1      -7.141  -8.846   8.273  0.00  0.00    +0.000 C 
ATOM     29  C   UNL     1      -6.768  -8.843   9.010  0.00  0.00    +0.009 C 
ENDBRANCH   2  24
ENDBRANCH   4   3
TORSDOF 4
ENDMDL
MODEL 6
REMARK VINA RESULT:      -6.3     15.938     17.134
REMARK  Name = 
REMARK  4 active torsions:
REMARK  status: ('A' for Active; 'I' for Inactive)
REMARK    1  A    between atoms: C_2  and  C_24
REMARK    2  A    between atoms: N_3  and  C_4
REMARK    3  A    between atoms: C_8  and  N_12
REMARK    4  A    between atoms: C_15  and  C_19
REMARK                            x       y       z     vdW  Elec       q    Type
REMARK                         _______ _______ _______ _____ _____    ______ ____
ROOT
ATOM      4  C   UNL     1      -6.462  -9.091  11.458  0.00  0.00    +0.154 C 
ATOM      5  C   UNL     1      -5.643  -9.000  11.454  0.00  0.00    +0.166 C 
ATOM      6  O   UNL     1      -5.351  -9.291  12.168  0.00  0.00    -0.350 OA
ATOM      7  C   UNL     1      -5.989  -9.560  12.615  0.00  0.00    +0.166 C 
ATOM      8  C   UNL     1      -6.204  -9.906  13.332  0.00  0.00    +0.154 C 
ATOM      9  C   UNL     1      -7.024  -9.997  13.337  0.00  0.00    +0.166 C 
ATOM     10  O   UNL     1      -7.316  -9.707  12.622  0.00  0.00    -0.350 OA
ATOM     11  C   UNL     1      -6.676  -9.437  12.175  0.00  0.00    +0.166 C 
ENDROOT
BRANCH   8  12
ATOM     12  N   UNL     1      -5.689 -10.124  13.939  0.00  0.00    -0.200 NA
ATOM     13  C   UNL     1      -5.915 -10.030  14.727  0.00  0.00    +0.236 A 
ATOM     14  N   UNL     1      -5.401 -10.247  15.333  0.00  0.00    -0.217 NA
ATOM     15  C   UNL     1      -5.628 -10.153  16.121  0.00  0.00    +0.063 A 
ATOM     16  C   UNL     1      -6.370  -9.841  16.302  0.00  0.00    +0.035 A 
ATOM     17  C   UNL     1      -6.885  -9.624  15.695  0.00  0.00    +0.103 A 
ATOM     18  N   UNL     1      -6.658  -9.718  14.907  0.00  0.00    -0.211 NA
BRANCH  15  19
ATOM     19  C   UNL     1      -5.113 -10.370  16.727  0.00  0.00    +0.040 C 
ATOM     20  C   UNL     1      -4.288 -10.373  16.686  0.00  0.00    +0.006 C 
ATOM     21  C   UNL     1      -3.998 -10.627  17.415  0.00  0.00    +0.000 C 
ATOM     22  C   UNL     1      -4.642 -10.781  17.906  0.00  0.00    +0.000 C 
ATOM     23  C   UNL     1      -5.331 -10.622  17.481  0.00  0.00    +0.006 C 
ENDBRANCH  15  19
ENDBRANCH   8  12
BRANCH   4   3
ATOM      1  O   UNL     1      -5.944  -9.102   9.891  0.00  0.00    -0.273 OA
ATOM      2  C   UNL     1      -6.718  -8.879  10.068  0.00  0.00    +0.241 C 
ATOM      3  N   UNL     1      -6.978  -8.874  10.852  0.00  0.00    -0.202 NA
BRANCH   2  24
ATOM     24  C   UNL     1      -7.234  -8.662   9.462  0.00  0.00    +0.078 C 
ATOM     25  C   UNL     1      -7.804  -9.194   9.194  0.00  0.00    +0.009 C 
ATOM     26  C   UNL     1      -8.319  -8.977   8.588  0.00  0.00    +0.000 C 
ATOM     27  C   UNL     1      -8.264  -8.227   8.248  0.00  0.00    +0.000 C 
ATOM     28  C   UNL     1      -7.694  -7.694   8.516  0.00  0.00    +0.000 C 
ATOM     29  C   UNL     1      -7.178  -7.912   9.123  0.00  0.00    +0.009 C 
ENDBRANCH   2  24
ENDBRANCH   4   3
TORSDOF 4
ENDMDL
MODEL 7
REMARK VINA RESULT:      -6.1     17.764     18.678
REMARK  Name = 
REMARK  4 active torsions:
REMARK  status: ('A' for Active; 'I' for Inactive)
REMARK    1  A    between atoms: C_2  and  C_24
REMARK    2  A    between atoms: N_3  and  C_4
REMARK    3  A    between atoms: C_8  and  N_12
REMARK    4  A    between atoms: C_15  and  C_19
REMARK                            x       y       z     vdW  Elec       q    Type
REMARK                         _______ _______ _______ _____ _____    ______ ____
ROOT
ATOM      4  C   UNL     1      -6.745  -8.758   8.947  0.00  0.00    +0.154 C 
ATOM      5  C   UNL     1      -6.601  -8.087   9.404  0.00  0.00    +0.166 C 
ATOM      6  O   UNL     1      -5.799  -8.075   9.593  0.00  0.00    -0.350 OA
ATOM      7  C   UNL     1      -5.446  -8.737   9.252  0.00  0.00    +0.166 C 
ATOM      8  C   UNL     1      -4.732  -9.140   9.157  0.00  0.00    +0.154 C 
ATOM      9  C   UNL     1      -4.875  -9.811   8.700  0.00  0.00    +0.166 C 
ATOM     10  O   UNL     1      -5.678  -9.823   8.511  0.00  0.00    -0.350 OA
ATOM     11  C   UNL     1      -6.031  -9.160   8.853  0.00  0.00    +0.166 C 
ENDROOT
BRANCH   8  12
ATOM     12  N   UNL     1      -4.002  -8.911   9.467  0.00  0.00    -0.200 NA
ATOM     13  C   UNL     1      -3.595  -9.412   9.980  0.00  0.00    +0.236 A 
ATOM     14  N   UNL     1      -2.866  -9.184  10.289  0.00  0.00    -0.217 NA
ATOM     15  C   UNL     1      -2.459  -9.686  10.803  0.00  0.00    +0.063 A 
ATOM     16  C   UNL     1      -2.783 -10.417  11.007  0.00  0.00    +0.035 A 
ATOM     17  C   UNL     1      -3.513 -10.646  10.697  0.00  0.00    +0.103 A 
ATOM     18  N   UNL     1      -3.919 -10.143  10.184  0.00  0.00    -0.211 NA
BRANCH  15  19
ATOM     19  C   UNL     1      -1.730  -9.457  11.112  0.00  0.00    +0.040 C 
ATOM     20  C   UNL     1      -1.437  -9.652  11.859  0.00  0.00    +0.006 C 
ATOM     21  C   UNL     1      -0.691  -9.309  11.937  0.00  0.00    +0.000 C 
ATOM     22  C   UNL     1      -0.523  -8.902  11.240  0.00  0.00    +0.000 C 
ATOM     23  C   UNL     1      -1.165  -8.994  10.730  0.00  0.00    +0.006 C 
ENDBRANCH  15  19
ENDBRANCH   8  12
BRANCH   4   3
ATOM      1  O   UNL     1      -8.134  -8.425   9.774  0.00  0.00    -0.273 OA
ATOM      2  C   UNL     1      -8.169  -8.821   9.051  0.00  0.00    +0.241 C 
ATOM      3  N   UNL     1      -7.475  -8.987   8.637  0.00  0.00    -0.202 NA
BRANCH   2  24
ATOM     24  C   UNL     1      -8.899  -9.050   8.742  0.00  0.00    +0.078 C 
ATOM     25  C   UNL     1      -9.021  -9.831   8.508  0.00  0.00    +0.009 C 
ATOM     26  C   UNL     1      -9.750 -10.060   8.199  0.00  0.00    +0.000 C 
ATOM     27  C   UNL     1     -10.358  -9.507   8.124  0.00  0.00    +0.000 C 
ATOM     28  C   UNL     1     -10.237  -8.726   8.358  0.00  0.00    +0.000 C 
ATOM     29  C   UNL     1      -9.506  -8.497   8.667  0.00  0.00    +0.009 C 
ENDBRANCH   2  24
ENDBRANCH   4   3
TORSDOF 4
ENDMDL
