MODEL 1
REMARK VINA RESULT:     -16.9      0.000      0.000
REMARK  Name = 
REMARK  3 active torsions:
REMARK  status: ('A' for Active; 'I' for Inactive)
REMARK    1  A    between atoms: C_5  and  C_9
REMARK    2  A    between atoms: N_17  and  S_19
REMARK    3  A    between atoms: S_19  and  C_22
REMARK                            x       y       z     vdW  Elec       q    Type
REMARK                         _______ _______ _______ _____ _____    ______ ____
ROOT
ATOM      9  C   UNL     1      -3.786   0.033  24.902  0.00  0.00    +0.056 A 
ATOM     10  C   UNL     1      -4.566   0.296  24.846  0.00  0.00    +0.006 A 
ATOM     11  C   UNL     1      -4.723   1.090  24.690  0.00  0.00    +0.013 A 
ATOM     12  C   UNL     1      -4.101   1.622  24.590  0.00  0.00    +0.041 A 
ATOM     13  C   UNL     1      -3.942   2.510  24.417  0.00  0.00    +0.056 C 
ATOM     14  C   UNL     1      -4.275   3.116  24.296  0.00  0.00    +0.011 C 
ATOM     15  C   UNL     1      -3.506   2.853  24.353  0.00  0.00    +0.041 C 
ATOM     16  C   UNL     1      -2.526   2.731  24.383  0.00  0.00    +0.098 C 
ATOM     17  N   UNL     1      -2.492   1.912  24.543  0.00  0.00    -0.155 NA
ATOM     18  C   UNL     1      -2.993   2.409  24.443  0.00  0.00    +0.102 C 
ATOM     29  C   UNL     1      -3.663   1.923  24.533  0.00  0.00    +0.110 C 
ATOM     30  N   UNL     1      -3.321   1.359  24.646  0.00  0.00    -0.299 N 
ATOM     31  C   UNL     1      -3.163   0.564  24.802  0.00  0.00    +0.261 A 
ATOM     32  O   UNL     1      -2.383   0.301  24.859  0.00  0.00    -0.267 OA
ENDROOT
BRANCH   9   5
ATOM      1  C   UNL     1      -3.881  -2.712  24.111  0.00  0.00    +0.031 C 
ATOM      2  C   UNL     1      -3.677  -2.135  24.663  0.00  0.00    -0.026 A 
ATOM      3  C   UNL     1      -3.834  -1.339  24.506  0.00  0.00    -0.026 A 
ATOM      4  C   UNL     1      -4.195  -1.122  23.797  0.00  0.00    +0.031 C 
ATOM      5  C   UNL     1      -3.630  -0.762  25.059  0.00  0.00    +0.000 A 
ATOM      6  C   UNL     1      -3.269  -0.979  25.768  0.00  0.00    -0.000 A 
ATOM      7  C   UNL     1      -3.112  -1.773  25.925  0.00  0.00    -0.000 A 
ATOM      8  C   UNL     1      -3.316  -2.351  25.373  0.00  0.00    -0.005 A 
ENDBRANCH   9   5
BRANCH  17  19
ATOM     19  S   UNL     1      -2.163   1.169  24.690  0.00  0.00    +0.063 S 
ATOM     20  O   UNL     1      -2.149   1.015  23.880  0.00  0.00    -0.153 OA
ATOM     21  O   UNL     1      -2.177   1.324  25.501  0.00  0.00    -0.153 OA
BRANCH  19  22
ATOM     22  C   UNL     1      -1.834   0.427  24.838  0.00  0.00    +0.122 A 
ATOM     23  C   UNL     1      -1.702   0.181  25.614  0.00  0.00    +0.021 A 
ATOM     24  C   UNL     1      -1.373  -0.561  25.761  0.00  0.00    +0.013 A 
ATOM     25  C   UNL     1      -1.176  -1.057  25.132  0.00  0.00    +0.058 A 
ATOM     26 CL   UNL     1      -0.846  -1.799  25.279  0.00  0.00    -0.082 Cl
ATOM     27  C   UNL     1      -1.307  -0.811  24.356  0.00  0.00    +0.013 A 
ATOM     28  C   UNL     1      -1.637  -0.068  24.209  0.00  0.00    +0.021 A 
ENDBRANCH  19  22
ENDBRANCH  17  19
TORSDOF 3
ENDMDL
MODEL 2
REMARK VINA RESULT:     -16.3      1.376      3.422
REMARK  Name = 
REMARK  3 active torsions:
REMARK  status: ('A' for Active; 'I' for Inactive)
REMARK    1  A    between atoms: C_5  and  C_9
REMARK    2  A    between atoms: N_17  and  S_19
REMARK    3  A    between atoms: S_19  and  C_22
REMARK                            x       y       z     vdW  Elec       q    Type
REMARK                         _______ _______ _______ _____ _____    ______ ____
ROOT
ATOM      9  C   UNL     1      -3.643   0.201  24.158  0.00  0.00    +0.056 A 
ATOM     10  C   UNL     1      -4.319  -0.247  24.003  0.00  0.00    +0.006 A 
ATOM     11  C   UNL     1      -4.304  -1.065  24.105  0.00  0.00    +0.013 A 
ATOM     12  C   UNL     1      -3.613  -1.436  24.362  0.00  0.00    +0.041 A 
ATOM     13  C   UNL     1      -3.283  -2.270  24.562  0.00  0.00    +0.056 C 
ATOM     14  C   UNL     1      -3.471  -2.945  24.585  0.00  0.00    +0.011 C 
ATOM     15  C   UNL     1      -2.806  -2.500  24.736  0.00  0.00    +0.041 C 
ATOM     16  C   UNL     1      -1.915  -2.142  24.968  0.00  0.00    +0.098 C 
ATOM     17  N   UNL     1      -2.050  -1.330  24.829  0.00  0.00    -0.155 NA
ATOM     18  C   UNL     1      -2.416  -1.939  24.789  0.00  0.00    +0.102 C 
ATOM     29  C   UNL     1      -3.142  -1.625  24.529  0.00  0.00    +0.110 C 
ATOM     30  N   UNL     1      -2.937  -0.988  24.516  0.00  0.00    -0.299 N 
ATOM     31  C   UNL     1      -2.952  -0.170  24.414  0.00  0.00    +0.261 A 
ATOM     32  O   UNL     1      -2.277   0.278  24.568  0.00  0.00    -0.267 OA
ENDROOT
BRANCH   9   5
ATOM      1  C   UNL     1      -4.658   2.770  24.894  0.00  0.00    +0.031 C 
ATOM      2  C   UNL     1      -4.166   2.304  24.423  0.00  0.00    -0.026 A 
ATOM      3  C   UNL     1      -4.151   1.485  24.526  0.00  0.00    -0.026 A 
ATOM      4  C   UNL     1      -4.627   1.132  25.100  0.00  0.00    +0.031 C 
ATOM      5  C   UNL     1      -3.659   1.019  24.055  0.00  0.00    +0.000 A 
ATOM      6  C   UNL     1      -3.183   1.372  23.481  0.00  0.00    -0.000 A 
ATOM      7  C   UNL     1      -3.198   2.190  23.378  0.00  0.00    -0.000 A 
ATOM      8  C   UNL     1      -3.690   2.656  23.849  0.00  0.00    -0.005 A 
ENDBRANCH   9   5
BRANCH  17  19
ATOM     19  S   UNL     1      -1.894  -0.521  24.781  0.00  0.00    +0.063 S 
ATOM     20  O   UNL     1      -2.127  -0.429  25.568  0.00  0.00    -0.153 OA
ATOM     21  O   UNL     1      -1.660  -0.613  23.995  0.00  0.00    -0.153 OA
BRANCH  19  22
ATOM     22  C   UNL     1      -1.737   0.288  24.733  0.00  0.00    +0.122 A 
ATOM     23  C   UNL     1      -1.479   0.617  24.022  0.00  0.00    +0.021 A 
ATOM     24  C   UNL     1      -1.323   1.426  23.973  0.00  0.00    +0.013 A 
ATOM     25  C   UNL     1      -1.425   1.905  24.637  0.00  0.00    +0.058 A 
ATOM     26 CL   UNL     1      -1.269   2.714  24.588  0.00  0.00    -0.082 Cl
ATOM     27  C   UNL     1      -1.683   1.577  25.348  0.00  0.00    +0.013 A 
ATOM     28  C   UNL     1      -1.839   0.768  25.396  0.00  0.00    +0.021 A 
ENDBRANCH  19  22
ENDBRANCH  17  19
TORSDOF 3
ENDMDL
MODEL 3
REMARK VINA RESULT:     -15.8      1.007      2.191
REMARK  Name = 
REMARK  3 active torsions:
REMARK  status: ('A' for Active; 'I' for Inactive)
REMARK    1  A    between atoms: C_5  and  C_9
REMARK    2  A    between atoms: N_17  and  S_19
REMARK    3  A    between atoms: S_19  and  C_22
REMARK                            x       y       z     vdW  Elec       q    Type
REMARK                         _______ _______ _______ _____ _____    ______ ____
ROOT
ATOM      9  C   UNL     1      -2.355   0.867  25.000  0.00  0.00    +0.056 A 
ATOM     10  C   UNL     1      -2.020   1.620  25.043  0.00  0.00    +0.006 A 
ATOM     11  C   UNL     1      -2.499   2.288  24.979  0.00  0.00    +0.013 A 
ATOM     12  C   UNL     1      -3.312   2.204  24.872  0.00  0.00    +0.041 A 
ATOM     13  C   UNL     1      -4.075   2.707  24.771  0.00  0.00    +0.056 C 
ATOM     14  C   UNL     1      -4.295   3.373  24.741  0.00  0.00    +0.011 C 
ATOM     15  C   UNL     1      -4.622   2.628  24.699  0.00  0.00    +0.041 C 
ATOM     16  C   UNL     1      -5.196   1.827  24.626  0.00  0.00    +0.098 C 
ATOM     17  N   UNL     1      -4.616   1.231  24.703  0.00  0.00    -0.155 NA
ATOM     18  C   UNL     1      -4.643   1.943  24.698  0.00  0.00    +0.102 C 
ATOM     29  C   UNL     1      -3.831   2.094  24.804  0.00  0.00    +0.110 C 
ATOM     30  N   UNL     1      -3.647   1.451  24.830  0.00  0.00    -0.299 N 
ATOM     31  C   UNL     1      -3.168   0.782  24.894  0.00  0.00    +0.261 A 
ATOM     32  O   UNL     1      -3.503   0.029  24.851  0.00  0.00    -0.267 OA
ENDROOT
BRANCH   9   5
ATOM      1  C   UNL     1      -0.243  -0.772  23.988  0.00  0.00    +0.031 C 
ATOM      2  C   UNL     1      -0.820  -0.621  24.558  0.00  0.00    -0.026 A 
ATOM      3  C   UNL     1      -1.299   0.048  24.494  0.00  0.00    -0.026 A 
ATOM      4  C   UNL     1      -1.202   0.565  23.858  0.00  0.00    +0.031 C 
ATOM      5  C   UNL     1      -1.875   0.199  25.064  0.00  0.00    +0.000 A 
ATOM      6  C   UNL     1      -1.972  -0.318  25.700  0.00  0.00    -0.000 A 
ATOM      7  C   UNL     1      -1.493  -0.987  25.765  0.00  0.00    -0.000 A 
ATOM      8  C   UNL     1      -0.917  -1.138  25.194  0.00  0.00    -0.005 A 
ENDBRANCH   9   5
BRANCH  17  19
ATOM     19  S   UNL     1      -4.292   0.473  24.747  0.00  0.00    +0.063 S 
ATOM     20  O   UNL     1      -4.170   0.478  23.930  0.00  0.00    -0.153 OA
ATOM     21  O   UNL     1      -4.413   0.469  25.563  0.00  0.00    -0.153 OA
BRANCH  19  22
ATOM     22  C   UNL     1      -3.968  -0.284  24.791  0.00  0.00    +0.122 A 
ATOM     23  C   UNL     1      -3.855  -0.643  25.525  0.00  0.00    +0.021 A 
ATOM     24  C   UNL     1      -3.531  -1.401  25.569  0.00  0.00    +0.013 A 
ATOM     25  C   UNL     1      -3.320  -1.799  24.878  0.00  0.00    +0.058 A 
ATOM     26 CL   UNL     1      -2.996  -2.557  24.922  0.00  0.00    -0.082 Cl
ATOM     27  C   UNL     1      -3.433  -1.441  24.144  0.00  0.00    +0.013 A 
ATOM     28  C   UNL     1      -3.757  -0.683  24.100  0.00  0.00    +0.021 A 
ENDBRANCH  19  22
ENDBRANCH  17  19
TORSDOF 3
ENDMDL
MODEL 4
REMARK VINA RESULT:     -15.6      2.218      3.730
REMARK  Name = 
REMARK  3 active torsions:
REMARK  status: ('A' for Active; 'I' for Inactive)
REMARK    1  A    between atoms: C_5  and  C_9
REMARK    2  A    between atoms: N_17  and  S_19
REMARK    3  A    between atoms: S_19  and  C_22
REMARK                            x       y       z     vdW  Elec       q    Type
REMARK                         _______ _______ _______ _____ _____    ______ ____
ROOT
ATOM      9  C   UNL     1      -2.901   3.377  25.541  0.00  0.00    +0.056 A 
ATOM     10  C   UNL     1      -3.341   3.900  26.003  0.00  0.00    +0.006 A 
ATOM     11  C   UNL     1      -4.160   3.814  26.057  0.00  0.00    +0.013 A 
ATOM     12  C   UNL     1      -4.538   3.204  25.649  0.00  0.00    +0.041 A 
ATOM     13  C   UNL     1      -5.375   2.854  25.505  0.00  0.00    +0.056 C 
ATOM     14  C   UNL     1      -6.049   2.950  25.677  0.00  0.00    +0.011 C 
ATOM     15  C   UNL     1      -5.611   2.435  25.222  0.00  0.00    +0.041 C 
ATOM     16  C   UNL     1      -5.262   1.724  24.631  0.00  0.00    +0.098 C 
ATOM     17  N   UNL     1      -4.448   1.910  24.654  0.00  0.00    -0.155 NA
ATOM     18  C   UNL     1      -5.054   2.161  24.933  0.00  0.00    +0.102 C 
ATOM     29  C   UNL     1      -4.732   2.794  25.366  0.00  0.00    +0.110 C 
ATOM     30  N   UNL     1      -4.097   2.681  25.188  0.00  0.00    -0.299 N 
ATOM     31  C   UNL     1      -3.278   2.768  25.134  0.00  0.00    +0.261 A 
ATOM     32  O   UNL     1      -2.838   2.244  24.672  0.00  0.00    -0.267 OA
ENDROOT
BRANCH   9   5
ATOM      1  C   UNL     1      -0.619   4.906  24.749  0.00  0.00    +0.031 C 
ATOM      2  C   UNL     1      -0.941   4.228  25.092  0.00  0.00    -0.026 A 
ATOM      3  C   UNL     1      -1.761   4.142  25.145  0.00  0.00    -0.026 A 
ATOM      4  C   UNL     1      -2.258   4.733  24.855  0.00  0.00    +0.031 C 
ATOM      5  C   UNL     1      -2.082   3.464  25.488  0.00  0.00    +0.000 A 
ATOM      6  C   UNL     1      -1.585   2.873  25.778  0.00  0.00    -0.000 A 
ATOM      7  C   UNL     1      -0.767   2.959  25.725  0.00  0.00    -0.000 A 
ATOM      8  C   UNL     1      -0.445   3.637  25.382  0.00  0.00    -0.005 A 
ENDBRANCH   9   5
BRANCH  17  19
ATOM     19  S   UNL     1      -3.640   1.853  24.492  0.00  0.00    +0.063 S 
ATOM     20  O   UNL     1      -3.737   2.341  23.834  0.00  0.00    -0.153 OA
ATOM     21  O   UNL     1      -3.543   1.364  25.151  0.00  0.00    -0.153 OA
BRANCH  19  22
ATOM     22  C   UNL     1      -2.833   1.795  24.331  0.00  0.00    +0.122 A 
ATOM     23  C   UNL     1      -2.342   1.362  24.832  0.00  0.00    +0.021 A 
ATOM     24  C   UNL     1      -1.535   1.305  24.671  0.00  0.00    +0.013 A 
ATOM     25  C   UNL     1      -1.220   1.681  24.008  0.00  0.00    +0.058 A 
ATOM     26 CL   UNL     1      -0.412   1.623  23.847  0.00  0.00    -0.082 Cl
ATOM     27  C   UNL     1      -1.710   2.114  23.507  0.00  0.00    +0.013 A 
ATOM     28  C   UNL     1      -2.518   2.171  23.668  0.00  0.00    +0.021 A 
ENDBRANCH  19  22
ENDBRANCH  17  19
TORSDOF 3
ENDMDL
MODEL 5
REMARK VINA RESULT:     -15.4      1.615      3.830
REMARK  Name = 
REMARK  3 active torsions:
REMARK  status: ('A' for Active; 'I' for Inactive)
REMARK    1  A    between atoms: C_5  and  C_9
REMARK    2  A    between atoms: N_17  and  S_19
REMARK    3  A    between atoms: S_19  and  C_22
REMARK                            x       y       z     vdW  Elec       q    Type
REMARK                         _______ _______ _______ _____ _____    ______ ____
ROOT
ATOM      9  C   UNL     1      -2.100   0.879  25.071  0.00  0.00    +0.056 A 
ATOM     10  C   UNL     1      -1.587   0.301  25.361  0.00  0.00    +0.006 A 
ATOM     11  C   UNL     1      -1.809  -0.493  25.345  0.00  0.00    +0.013 A 
ATOM     12  C   UNL     1      -2.543  -0.710  25.039  0.00  0.00    +0.041 A 
ATOM     13  C   UNL     1      -3.061  -1.453  24.885  0.00  0.00    +0.056 C 
ATOM     14  C   UNL     1      -3.058  -2.151  24.960  0.00  0.00    +0.011 C 
ATOM     15  C   UNL     1      -3.562  -1.578  24.674  0.00  0.00    +0.041 C 
ATOM     16  C   UNL     1      -4.298  -1.043  24.289  0.00  0.00    +0.098 C 
ATOM     17  N   UNL     1      -3.966  -0.279  24.358  0.00  0.00    -0.155 NA
ATOM     18  C   UNL     1      -3.781  -0.950  24.511  0.00  0.00    +0.102 C 
ATOM     29  C   UNL     1      -3.028  -0.796  24.831  0.00  0.00    +0.110 C 
ATOM     30  N   UNL     1      -3.056  -0.132  24.749  0.00  0.00    -0.299 N 
ATOM     31  C   UNL     1      -2.834   0.663  24.765  0.00  0.00    +0.261 A 
ATOM     32  O   UNL     1      -3.347   1.240  24.475  0.00  0.00    -0.267 OA
ENDROOT
BRANCH   9   5
ATOM      1  C   UNL     1      -0.373   2.985  24.205  0.00  0.00    +0.031 C 
ATOM      2  C   UNL     1      -1.014   2.727  24.655  0.00  0.00    -0.026 A 
ATOM      3  C   UNL     1      -1.236   1.931  24.638  0.00  0.00    -0.026 A 
ATOM      4  C   UNL     1      -0.817   1.396  24.171  0.00  0.00    +0.031 C 
ATOM      5  C   UNL     1      -1.877   1.673  25.088  0.00  0.00    +0.000 A 
ATOM      6  C   UNL     1      -2.296   2.209  25.555  0.00  0.00    -0.000 A 
ATOM      7  C   UNL     1      -2.074   3.003  25.572  0.00  0.00    -0.000 A 
ATOM      8  C   UNL     1      -1.433   3.262  25.122  0.00  0.00    -0.005 A 
ENDBRANCH   9   5
BRANCH  17  19
ATOM     19  S   UNL     1      -3.905   0.542  24.299  0.00  0.00    +0.063 S 
ATOM     20  O   UNL     1      -3.575   0.464  23.546  0.00  0.00    -0.153 OA
ATOM     21  O   UNL     1      -4.235   0.620  25.051  0.00  0.00    -0.153 OA
BRANCH  19  22
ATOM     22  C   UNL     1      -3.845   1.363  24.240  0.00  0.00    +0.122 A 
ATOM     23  C   UNL     1      -4.089   1.840  24.866  0.00  0.00    +0.021 A 
ATOM     24  C   UNL     1      -4.028   2.661  24.808  0.00  0.00    +0.013 A 
ATOM     25  C   UNL     1      -3.724   3.004  24.122  0.00  0.00    +0.058 A 
ATOM     26 CL   UNL     1      -3.663   3.825  24.063  0.00  0.00    -0.082 Cl
ATOM     27  C   UNL     1      -3.479   2.527  23.495  0.00  0.00    +0.013 A 
ATOM     28  C   UNL     1      -3.540   1.706  23.554  0.00  0.00    +0.021 A 
ENDBRANCH  19  22
ENDBRANCH  17  19
TORSDOF 3
ENDMDL
MODEL 6
REMARK VINA RESULT:     -15.3      1.907      3.354
REMARK  Name = 
REMARK  3 active torsions:
REMARK  status: ('A' for Active; 'I' for Inactive)
REMARK    1  A    between atoms: C_5  and  C_9
REMARK    2  A    between atoms: N_17  and  S_19
REMARK    3  A    between atoms: S_19  and  C_22
REMARK                            x       y       z     vdW  Elec       q    Type
REMARK                         _______ _______ _______ _____ _____    ______ ____
ROOT
ATOM      9  C   UNL     1      -2.302   1.915  24.561  0.00  0.00    +0.056 A 
ATOM     10  C   UNL     1      -1.490   1.804  24.463  0.00  0.00    +0.006 A 
ATOM     11  C   UNL     1      -0.970   2.433  24.579  0.00  0.00    +0.013 A 
ATOM     12  C   UNL     1      -1.262   3.175  24.793  0.00  0.00    +0.041 A 
ATOM     13  C   UNL     1      -0.974   4.026  24.986  0.00  0.00    +0.056 C 
ATOM     14  C   UNL     1      -0.390   4.412  25.035  0.00  0.00    +0.011 C 
ATOM     15  C   UNL     1      -1.192   4.519  25.131  0.00  0.00    +0.041 C 
ATOM     16  C   UNL     1      -2.112   4.842  25.292  0.00  0.00    +0.098 C 
ATOM     17  N   UNL     1      -2.536   4.137  25.148  0.00  0.00    -0.155 NA
ATOM     18  C   UNL     1      -1.857   4.354  25.145  0.00  0.00    +0.102 C 
ATOM     29  C   UNL     1      -1.502   3.632  24.931  0.00  0.00    +0.110 C 
ATOM     30  N   UNL     1      -2.073   3.286  24.891  0.00  0.00    -0.299 N 
ATOM     31  C   UNL     1      -2.594   2.657  24.775  0.00  0.00    +0.261 A 
ATOM     32  O   UNL     1      -3.405   2.768  24.873  0.00  0.00    -0.267 OA
ENDROOT
BRANCH   9   5
ATOM      1  C   UNL     1      -3.275  -0.664  25.316  0.00  0.00    +0.031 C 
ATOM      2  C   UNL     1      -3.308  -0.004  24.821  0.00  0.00    -0.026 A 
ATOM      3  C   UNL     1      -2.788   0.626  24.939  0.00  0.00    -0.026 A 
ATOM      4  C   UNL     1      -2.235   0.597  25.550  0.00  0.00    +0.031 C 
ATOM      5  C   UNL     1      -2.821   1.285  24.444  0.00  0.00    +0.000 A 
ATOM      6  C   UNL     1      -3.374   1.315  23.832  0.00  0.00    -0.000 A 
ATOM      7  C   UNL     1      -3.894   0.685  23.715  0.00  0.00    -0.000 A 
ATOM      8  C   UNL     1      -3.861   0.026  24.210  0.00  0.00    -0.005 A 
ENDBRANCH   9   5
BRANCH  17  19
ATOM     19  S   UNL     1      -3.182   3.628  25.073  0.00  0.00    +0.063 S 
ATOM     20  O   UNL     1      -3.126   3.440  25.875  0.00  0.00    -0.153 OA
ATOM     21  O   UNL     1      -3.238   3.817  24.272  0.00  0.00    -0.153 OA
BRANCH  19  22
ATOM     22  C   UNL     1      -3.828   3.120  24.999  0.00  0.00    +0.122 A 
ATOM     23  C   UNL     1      -4.181   3.008  24.262  0.00  0.00    +0.021 A 
ATOM     24  C   UNL     1      -4.828   2.500  24.188  0.00  0.00    +0.013 A 
ATOM     25  C   UNL     1      -5.119   2.104  24.850  0.00  0.00    +0.058 A 
ATOM     26 CL   UNL     1      -5.765   1.596  24.775  0.00  0.00    -0.082 Cl
ATOM     27  C   UNL     1      -4.765   2.216  25.586  0.00  0.00    +0.013 A 
ATOM     28  C   UNL     1      -4.119   2.724  25.661  0.00  0.00    +0.021 A 
ENDBRANCH  19  22
ENDBRANCH  17  19
TORSDOF 3
ENDMDL
MODEL 7
REMARK VINA RESULT:     -15.3      2.287      3.614
REMARK  Name = 
REMARK  3 active torsions:
REMARK  status: ('A' for Active; 'I' for Inactive)
REMARK    1  A    between atoms: C_5  and  C_9
REMARK    2  A    between atoms: N_17  and  S_19
REMARK    3  A    between atoms: S_19  and  C_22
REMARK                            x       y       z     vdW  Elec       q    Type
REMARK                         _______ _______ _______ _____ _____    ______ ____
ROOT
ATOM      9  C   UNL     1      -3.123   1.886  24.593  0.00  0.00    +0.056 A 
ATOM     10  C   UNL     1      -3.497   1.180  24.386  0.00  0.00    +0.006 A 
ATOM     11  C   UNL     1      -4.309   1.092  24.507  0.00  0.00    +0.013 A 
ATOM     12  C   UNL     1      -4.746   1.709  24.835  0.00  0.00    +0.041 A 
ATOM     13  C   UNL     1      -5.605   1.922  25.084  0.00  0.00    +0.056 C 
ATOM     14  C   UNL     1      -6.254   1.656  25.104  0.00  0.00    +0.011 C 
ATOM     15  C   UNL     1      -5.881   2.352  25.307  0.00  0.00    +0.041 C 
ATOM     16  C   UNL     1      -5.618   3.254  25.613  0.00  0.00    +0.098 C 
ATOM     17  N   UNL     1      -4.801   3.225  25.445  0.00  0.00    -0.155 NA
ATOM     18  C   UNL     1      -5.366   2.797  25.384  0.00  0.00    +0.102 C 
ATOM     29  C   UNL     1      -4.981   2.138  25.050  0.00  0.00    +0.110 C 
ATOM     30  N   UNL     1      -4.372   2.415  25.042  0.00  0.00    -0.299 N 
ATOM     31  C   UNL     1      -3.561   2.503  24.921  0.00  0.00    +0.261 A 
ATOM     32  O   UNL     1      -3.187   3.209  25.128  0.00  0.00    -0.267 OA
ENDROOT
BRANCH   9   5
ATOM      1  C   UNL     1      -0.435   1.110  25.176  0.00  0.00    +0.031 C 
ATOM      2  C   UNL     1      -0.968   1.586  24.763  0.00  0.00    -0.026 A 
ATOM      3  C   UNL     1      -1.780   1.498  24.885  0.00  0.00    -0.026 A 
ATOM      4  C   UNL     1      -2.058   0.934  25.420  0.00  0.00    +0.031 C 
ATOM      5  C   UNL     1      -2.313   1.973  24.472  0.00  0.00    +0.000 A 
ATOM      6  C   UNL     1      -2.034   2.536  23.937  0.00  0.00    -0.000 A 
ATOM      7  C   UNL     1      -1.223   2.625  23.815  0.00  0.00    -0.000 A 
ATOM      8  C   UNL     1      -0.690   2.149  24.228  0.00  0.00    -0.005 A 
ENDBRANCH   9   5
BRANCH  17  19
ATOM     19  S   UNL     1      -4.016   3.477  25.394  0.00  0.00    +0.063 S 
ATOM     20  O   UNL     1      -4.154   3.752  24.628  0.00  0.00    -0.153 OA
ATOM     21  O   UNL     1      -3.878   3.203  26.160  0.00  0.00    -0.153 OA
BRANCH  19  22
ATOM     22  C   UNL     1      -3.232   3.729  25.343  0.00  0.00    +0.122 A 
ATOM     23  C   UNL     1      -2.957   4.085  24.651  0.00  0.00    +0.021 A 
ATOM     24  C   UNL     1      -2.173   4.337  24.600  0.00  0.00    +0.013 A 
ATOM     25  C   UNL     1      -1.664   4.232  25.241  0.00  0.00    +0.058 A 
ATOM     26 CL   UNL     1      -0.880   4.484  25.190  0.00  0.00    -0.082 Cl
ATOM     27  C   UNL     1      -1.939   3.876  25.932  0.00  0.00    +0.013 A 
ATOM     28  C   UNL     1      -2.723   3.624  25.983  0.00  0.00    +0.021 A 
ENDBRANCH  19  22
ENDBRANCH  17  19
TORSDOF 3
ENDMDL
