REMARK  Name = 
REMARK  6 active torsions:
REMARK  status: ('A' for Active; 'I' for Inactive)
REMARK    1  A    between atoms: O_2  and  C_3
REMARK    2  A    between atoms: C_6  and  N_9
REMARK    3  A    between atoms: C_13  and  C_14
REMARK    4  A    between atoms: C_16  and  O_17
REMARK    5  A    between atoms: O_17  and  C_18
REMARK    6  A    between atoms: N_20  and  C_21
REMARK                            x       y       z     vdW  Elec       q    Type
REMARK                         _______ _______ _______ _____ _____    ______ ____
ROOT
ATOM     14  C   UNL     1       2.760  -6.510   0.000  0.00  0.00    +0.050 C 
ATOM     15  C   UNL     1       3.015  -7.294   0.000  0.00  0.00    +0.057 C 
ATOM     16  C   UNL     1       2.348  -7.779   0.000  0.00  0.00    +0.193 C 
ATOM     28  C   UNL     1       1.680  -7.294   0.000  0.00  0.00    +0.012 C 
ATOM     29  C   UNL     1       1.935  -6.510   0.000  0.00  0.00    -0.023 C 
ENDROOT
BRANCH  14  13
ATOM      9  N   UNL     1       3.658  -4.572   0.000  0.00  0.00    -0.234 N 
ATOM     10  N   UNL     1       4.325  -5.057   0.000  0.00  0.00    -0.170 NA
ATOM     11  C   UNL     1       4.070  -5.842   0.000  0.00  0.00    +0.077 A 
ATOM     12  C   UNL     1       4.555  -6.510   0.000  0.00  0.00    +0.054 C 
ATOM     13  C   UNL     1       3.245  -5.842   0.000  0.00  0.00    +0.011 A 
ATOM     30  C   UNL     1       2.990  -5.057   0.000  0.00  0.00    +0.058 A 
ATOM     31  C   UNL     1       2.206  -4.803   0.000  0.00  0.00    +0.052 C 
BRANCH   9   6
ATOM      3  C   UNL     1       3.658  -2.098   0.000  0.00  0.00    +0.139 A 
ATOM      4  C   UNL     1       4.372  -2.510   0.000  0.00  0.00    +0.038 A 
ATOM      5  C   UNL     1       4.372  -3.335   0.000  0.00  0.00    +0.022 A 
ATOM      6  C   UNL     1       3.658  -3.748   0.000  0.00  0.00    +0.083 A 
ATOM      7  C   UNL     1       2.943  -3.335   0.000  0.00  0.00    +0.022 A 
ATOM      8  C   UNL     1       2.943  -2.510   0.000  0.00  0.00    +0.038 A 
BRANCH   3   2
ATOM      1  C   UNL     1       2.943  -0.860   0.000  0.00  0.00    +0.252 C 
ATOM      2  O   UNL     1       3.658  -1.272   0.000  0.00  0.00    -0.471 OA
ENDBRANCH   3   2
ENDBRANCH   9   6
ENDBRANCH  14  13
BRANCH  16  17
ATOM     17  O   UNL     1       2.348  -8.604   0.000  0.00  0.00    -0.432 OA
BRANCH  17  18
ATOM     18  C   UNL     1       1.633  -9.017   0.000  0.00  0.00    +0.426 C 
ATOM     19  O   UNL     1       0.919  -8.604   0.000  0.00  0.00    -0.224 OA
ATOM     20  N   UNL     1       1.633  -9.841   0.000  0.00  0.00    -0.142 NA
BRANCH  20  21
ATOM     21  C   UNL     1       0.919 -10.254   0.000  0.00  0.00    +0.079 A 
ATOM     22  C   UNL     1       0.919 -11.079   0.000  0.00  0.00    +0.017 A 
ATOM     23  C   UNL     1       0.204 -11.492   0.000  0.00  0.00    +0.004 A 
ATOM     24  C   UNL     1      -0.510 -11.079   0.000  0.00  0.00    +0.030 A 
ATOM     25  C   UNL     1      -0.510 -10.254   0.000  0.00  0.00    +0.141 A 
ATOM     26  F   UNL     1      -1.225  -9.841   0.000  0.00  0.00    -0.204 F 
ATOM     27  C   UNL     1       0.204  -9.841   0.000  0.00  0.00    +0.046 A 
ENDBRANCH  20  21
ENDBRANCH  17  18
ENDBRANCH  16  17
TORSDOF 6
