MODEL 1
REMARK VINA RESULT:     -12.5      0.000      0.000
REMARK  Name = 
REMARK  6 active torsions:
REMARK  status: ('A' for Active; 'I' for Inactive)
REMARK    1  A    between atoms: C_2  and  C_4
REMARK    2  A    between atoms: C_4  and  C_5
REMARK    3  A    between atoms: C_7  and  C_25
REMARK    4  A    between atoms: N_11  and  C_12
REMARK    5  A    between atoms: C_12  and  C_13
REMARK    6  A    between atoms: N_27  and  C_28
REMARK                            x       y       z     vdW  Elec       q    Type
REMARK                         _______ _______ _______ _____ _____    ______ ____
ROOT
ATOM      5  C   UNL     1      -4.748   1.918  24.753  0.00  0.00    +0.095 C 
ATOM      6  N   UNL     1      -4.634   1.101  24.767  0.00  0.00    -0.207 NA
ATOM      7  C   UNL     1      -3.925   0.681  24.795  0.00  0.00    +0.155 C 
ATOM      8  C   UNL     1      -3.154   0.974  24.817  0.00  0.00    +0.055 C 
ATOM      9  C   UNL     1      -2.903   1.760  24.816  0.00  0.00    -0.002 A 
ATOM     10  C   UNL     1      -2.109   1.984  24.840  0.00  0.00    +0.072 A 
ATOM     11  N   UNL     1      -2.075   2.808  24.831  0.00  0.00    -0.322 N 
ATOM     19  C   UNL     1      -2.848   3.094  24.802  0.00  0.00    +0.060 A 
ATOM     20  C   UNL     1      -3.360   2.447  24.793  0.00  0.00    +0.011 A 
ATOM     21  C   UNL     1      -4.182   2.516  24.765  0.00  0.00    -0.005 A 
ATOM     22  C   UNL     1      -4.480   3.332  24.745  0.00  0.00    -0.003 A 
ATOM     23  C   UNL     1      -3.969   3.980  24.754  0.00  0.00    +0.001 A 
ATOM     24  C   UNL     1      -3.153   3.860  24.783  0.00  0.00    +0.017 A 
ENDROOT
BRANCH   7  25
ATOM     25  C   UNL     1      -3.995  -0.141  24.803  0.00  0.00    +0.257 C 
ATOM     26  O   UNL     1      -4.144  -0.536  25.512  0.00  0.00    -0.272 OA
ATOM     27  N   UNL     1      -3.918  -0.568  24.101  0.00  0.00    -0.206 NA
BRANCH  27  28
ATOM     28  C   UNL     1      -3.989  -1.390  24.110  0.00  0.00    +0.095 C 
ATOM     29  C   UNL     1      -3.566  -2.008  24.456  0.00  0.00    +0.022 C 
ATOM     30  C   UNL     1      -4.089  -2.552  24.122  0.00  0.00    +0.004 C 
ATOM     31  C   UNL     1      -4.511  -1.934  23.776  0.00  0.00    +0.022 C 
ENDBRANCH  27  28
ENDBRANCH   7  25
BRANCH   5   4
ATOM      4  C   UNL     1      -5.534   2.168  24.724  0.00  0.00    +0.022 C 
BRANCH   4   2
ATOM      1  C   UNL     1      -6.125   1.864  25.990  0.00  0.00    +0.000 C 
ATOM      2  C   UNL     1      -6.108   1.777  25.170  0.00  0.00    +0.002 C 
ATOM      3  C   UNL     1      -6.666   1.298  24.794  0.00  0.00    +0.000 C 
ENDBRANCH   4   2
ENDBRANCH   5   4
BRANCH  11  12
ATOM     12  C   UNL     1      -1.390   3.266  24.848  0.00  0.00    +0.133 C 
BRANCH  12  13
ATOM     13  C   UNL     1      -0.678   2.935  25.100  0.00  0.00    +0.003 A 
ATOM     14  C   UNL     1      -0.477   2.950  25.900  0.00  0.00    +0.018 A 
ATOM     15  C   UNL     1       0.236   2.618  26.152  0.00  0.00    +0.099 A 
ATOM     16  N   UNL     1       0.747   2.272  25.604  0.00  0.00    -0.242 NA
ATOM     17  C   UNL     1       0.545   2.258  24.804  0.00  0.00    +0.099 A 
ATOM     18  C   UNL     1      -0.167   2.589  24.552  0.00  0.00    +0.018 A 
ENDBRANCH  12  13
ENDBRANCH  11  12
TORSDOF 6
ENDMDL
MODEL 2
REMARK VINA RESULT:     -11.9      1.841      3.999
REMARK  Name = 
REMARK  6 active torsions:
REMARK  status: ('A' for Active; 'I' for Inactive)
REMARK    1  A    between atoms: C_2  and  C_4
REMARK    2  A    between atoms: C_4  and  C_5
REMARK    3  A    between atoms: C_7  and  C_25
REMARK    4  A    between atoms: N_11  and  C_12
REMARK    5  A    between atoms: C_12  and  C_13
REMARK    6  A    between atoms: N_27  and  C_28
REMARK                            x       y       z     vdW  Elec       q    Type
REMARK                         _______ _______ _______ _____ _____    ______ ____
ROOT
ATOM      5  C   UNL     1      -4.231   2.150  24.917  0.00  0.00    +0.095 C 
ATOM      6  N   UNL     1      -3.647   2.709  25.079  0.00  0.00    -0.207 NA
ATOM      7  C   UNL     1      -2.832   2.597  25.149  0.00  0.00    +0.155 C 
ATOM      8  C   UNL     1      -2.401   1.898  25.072  0.00  0.00    +0.055 C 
ATOM      9  C   UNL     1      -2.678   1.138  24.907  0.00  0.00    -0.002 A 
ATOM     10  C   UNL     1      -2.187   0.479  24.845  0.00  0.00    +0.072 A 
ATOM     11  N   UNL     1      -2.659  -0.177  24.677  0.00  0.00    -0.322 N 
ATOM     19  C   UNL     1      -3.443   0.077  24.636  0.00  0.00    +0.060 A 
ATOM     20  C   UNL     1      -3.455   0.890  24.779  0.00  0.00    +0.011 A 
ATOM     21  C   UNL     1      -4.146   1.342  24.783  0.00  0.00    -0.005 A 
ATOM     22  C   UNL     1      -4.875   0.897  24.625  0.00  0.00    -0.003 A 
ATOM     23  C   UNL     1      -4.863   0.084  24.482  0.00  0.00    +0.001 A 
ATOM     24  C   UNL     1      -4.147  -0.325  24.488  0.00  0.00    +0.017 A 
ENDROOT
BRANCH   7  25
ATOM     25  C   UNL     1      -2.390   3.274  25.316  0.00  0.00    +0.257 C 
ATOM     26  O   UNL     1      -2.214   3.467  26.099  0.00  0.00    -0.272 OA
ATOM     27  N   UNL     1      -2.126   3.756  24.702  0.00  0.00    -0.206 NA
BRANCH  27  28
ATOM     28  C   UNL     1      -1.685   4.433  24.871  0.00  0.00    +0.095 C 
ATOM     29  C   UNL     1      -0.883   4.624  24.855  0.00  0.00    +0.022 C 
ATOM     30  C   UNL     1      -1.060   5.388  25.110  0.00  0.00    +0.004 C 
ATOM     31  C   UNL     1      -1.862   5.197  25.126  0.00  0.00    +0.022 C 
ENDBRANCH  27  28
ENDBRANCH   7  25
BRANCH   5   4
ATOM      4  C   UNL     1      -5.003   2.440  24.883  0.00  0.00    +0.022 C 
BRANCH   4   2
ATOM      1  C   UNL     1      -5.310   3.794  25.220  0.00  0.00    +0.000 C 
ATOM      2  C   UNL     1      -5.258   2.999  25.434  0.00  0.00    +0.002 C 
ATOM      3  C   UNL     1      -5.459   2.763  26.199  0.00  0.00    +0.000 C 
ENDBRANCH   4   2
ENDBRANCH   5   4
BRANCH  11  12
ATOM     12  C   UNL     1      -2.395  -0.951  24.569  0.00  0.00    +0.133 C 
BRANCH  12  13
ATOM     13  C   UNL     1      -1.602  -1.139  24.699  0.00  0.00    +0.003 A 
ATOM     14  C   UNL     1      -1.051  -1.042  24.094  0.00  0.00    +0.018 A 
ATOM     15  C   UNL     1      -0.258  -1.230  24.224  0.00  0.00    +0.099 A 
ATOM     16  N   UNL     1      -0.017  -1.515  24.960  0.00  0.00    -0.242 NA
ATOM     17  C   UNL     1      -0.570  -1.612  25.566  0.00  0.00    +0.099 A 
ATOM     18  C   UNL     1      -1.362  -1.424  25.435  0.00  0.00    +0.018 A 
ENDBRANCH  12  13
ENDBRANCH  11  12
TORSDOF 6
ENDMDL
MODEL 3
REMARK VINA RESULT:     -11.6      1.275      4.341
REMARK  Name = 
REMARK  6 active torsions:
REMARK  status: ('A' for Active; 'I' for Inactive)
REMARK    1  A    between atoms: C_2  and  C_4
REMARK    2  A    between atoms: C_4  and  C_5
REMARK    3  A    between atoms: C_7  and  C_25
REMARK    4  A    between atoms: N_11  and  C_12
REMARK    5  A    between atoms: C_12  and  C_13
REMARK    6  A    between atoms: N_27  and  C_28
REMARK                            x       y       z     vdW  Elec       q    Type
REMARK                         _______ _______ _______ _____ _____    ______ ____
ROOT
ATOM      5  C   UNL     1      -3.351   2.668  24.812  0.00  0.00    +0.095 C 
ATOM      6  N   UNL     1      -2.568   2.601  24.562  0.00  0.00    -0.207 NA
ATOM      7  C   UNL     1      -2.164   1.926  24.310  0.00  0.00    +0.155 C 
ATOM      8  C   UNL     1      -2.444   1.153  24.248  0.00  0.00    +0.055 C 
ATOM      9  C   UNL     1      -3.197   0.863  24.421  0.00  0.00    -0.002 A 
ATOM     10  C   UNL     1      -3.410   0.071  24.335  0.00  0.00    +0.072 A 
ATOM     11  N   UNL     1      -4.200  -0.008  24.560  0.00  0.00    -0.322 N 
ATOM     19  C   UNL     1      -4.475   0.737  24.786  0.00  0.00    +0.060 A 
ATOM     20  C   UNL     1      -3.855   1.275  24.700  0.00  0.00    +0.011 A 
ATOM     21  C   UNL     1      -3.923   2.079  24.874  0.00  0.00    -0.005 A 
ATOM     22  C   UNL     1      -4.705   2.327  25.159  0.00  0.00    -0.003 A 
ATOM     23  C   UNL     1      -5.325   1.790  25.245  0.00  0.00    +0.001 A 
ATOM     24  C   UNL     1      -5.210   0.994  25.058  0.00  0.00    +0.017 A 
ENDROOT
BRANCH   7  25
ATOM     25  C   UNL     1      -1.376   2.041  24.093  0.00  0.00    +0.257 C 
ATOM     26  O   UNL     1      -1.196   2.447  23.397  0.00  0.00    -0.272 OA
ATOM     27  N   UNL     1      -0.770   1.750  24.571  0.00  0.00    -0.206 NA
BRANCH  27  28
ATOM     28  C   UNL     1       0.017   1.865  24.352  0.00  0.00    +0.095 C 
ATOM     29  C   UNL     1       0.559   2.482  24.428  0.00  0.00    +0.022 C 
ATOM     30  C   UNL     1       1.130   2.028  24.044  0.00  0.00    +0.004 C 
ATOM     31  C   UNL     1       0.589   1.411  23.968  0.00  0.00    +0.022 C 
ENDBRANCH  27  28
ENDBRANCH   7  25
BRANCH   5   4
ATOM      4  C   UNL     1      -3.592   3.426  25.030  0.00  0.00    +0.022 C 
BRANCH   4   2
ATOM      1  C   UNL     1      -2.914   3.822  26.225  0.00  0.00    +0.000 C 
ATOM      2  C   UNL     1      -3.067   3.930  25.421  0.00  0.00    +0.002 C 
ATOM      3  C   UNL     1      -2.697   4.541  25.008  0.00  0.00    +0.000 C 
ENDBRANCH   4   2
ENDBRANCH   5   4
BRANCH  11  12
ATOM     12  C   UNL     1      -4.638  -0.706  24.560  0.00  0.00    +0.133 C 
BRANCH  12  13
ATOM     13  C   UNL     1      -4.253  -1.435  24.517  0.00  0.00    +0.003 A 
ATOM     14  C   UNL     1      -3.839  -1.721  25.170  0.00  0.00    +0.018 A 
ATOM     15  C   UNL     1      -3.454  -2.450  25.127  0.00  0.00    +0.099 A 
ATOM     16  N   UNL     1      -3.485  -2.892  24.431  0.00  0.00    -0.242 NA
ATOM     17  C   UNL     1      -3.900  -2.605  23.777  0.00  0.00    +0.099 A 
ATOM     18  C   UNL     1      -4.284  -1.876  23.821  0.00  0.00    +0.018 A 
ENDBRANCH  12  13
ENDBRANCH  11  12
TORSDOF 6
ENDMDL
MODEL 4
REMARK VINA RESULT:     -11.6      1.442      4.636
REMARK  Name = 
REMARK  6 active torsions:
REMARK  status: ('A' for Active; 'I' for Inactive)
REMARK    1  A    between atoms: C_2  and  C_4
REMARK    2  A    between atoms: C_4  and  C_5
REMARK    3  A    between atoms: C_7  and  C_25
REMARK    4  A    between atoms: N_11  and  C_12
REMARK    5  A    between atoms: C_12  and  C_13
REMARK    6  A    between atoms: N_27  and  C_28
REMARK                            x       y       z     vdW  Elec       q    Type
REMARK                         _______ _______ _______ _____ _____    ______ ____
ROOT
ATOM      5  C   UNL     1      -1.490   2.273  24.571  0.00  0.00    +0.095 C 
ATOM      6  N   UNL     1      -2.264   2.553  24.621  0.00  0.00    -0.207 NA
ATOM      7  C   UNL     1      -2.967   2.121  24.638  0.00  0.00    +0.155 C 
ATOM      8  C   UNL     1      -3.069   1.303  24.609  0.00  0.00    +0.055 C 
ATOM      9  C   UNL     1      -2.493   0.714  24.556  0.00  0.00    -0.002 A 
ATOM     10  C   UNL     1      -2.667  -0.092  24.531  0.00  0.00    +0.072 A 
ATOM     11  N   UNL     1      -1.955  -0.506  24.478  0.00  0.00    -0.322 N 
ATOM     19  C   UNL     1      -1.341   0.045  24.471  0.00  0.00    +0.060 A 
ATOM     20  C   UNL     1      -1.673   0.799  24.519  0.00  0.00    +0.011 A 
ATOM     21  C   UNL     1      -1.227   1.493  24.525  0.00  0.00    -0.005 A 
ATOM     22  C   UNL     1      -0.367   1.377  24.478  0.00  0.00    -0.003 A 
ATOM     23  C   UNL     1      -0.035   0.624  24.430  0.00  0.00    +0.001 A 
ATOM     24  C   UNL     1      -0.522  -0.043  24.427  0.00  0.00    +0.017 A 
ENDROOT
BRANCH   7  25
ATOM     25  C   UNL     1      -3.660   2.567  24.691  0.00  0.00    +0.257 C 
ATOM     26  O   UNL     1      -3.976   2.919  24.014  0.00  0.00    -0.272 OA
ATOM     27  N   UNL     1      -4.035   2.660  25.419  0.00  0.00    -0.206 NA
BRANCH  27  28
ATOM     28  C   UNL     1      -4.728   3.105  25.471  0.00  0.00    +0.095 C 
ATOM     29  C   UNL     1      -5.534   2.931  25.480  0.00  0.00    +0.022 C 
ATOM     30  C   UNL     1      -5.707   3.735  25.544  0.00  0.00    +0.004 C 
ATOM     31  C   UNL     1      -4.901   3.909  25.535  0.00  0.00    +0.022 C 
ENDBRANCH  27  28
ENDBRANCH   7  25
BRANCH   5   4
ATOM      4  C   UNL     1      -0.901   2.851  24.566  0.00  0.00    +0.022 C 
BRANCH   4   2
ATOM      1  C   UNL     1      -0.887   3.409  25.881  0.00  0.00    +0.000 C 
ATOM      2  C   UNL     1      -0.961   3.505  25.065  0.00  0.00    +0.002 C 
ATOM      3  C   UNL     1      -1.095   4.255  24.747  0.00  0.00    +0.000 C 
ENDBRANCH   4   2
ENDBRANCH   5   4
BRANCH  11  12
ATOM     12  C   UNL     1      -1.872  -1.325  24.440  0.00  0.00    +0.133 C 
BRANCH  12  13
ATOM     13  C   UNL     1      -2.513  -1.814  24.615  0.00  0.00    +0.003 A 
ATOM     14  C   UNL     1      -3.005  -2.080  24.008  0.00  0.00    +0.018 A 
ATOM     15  C   UNL     1      -3.646  -2.570  24.183  0.00  0.00    +0.099 A 
ATOM     16  N   UNL     1      -3.794  -2.792  24.963  0.00  0.00    -0.242 NA
ATOM     17  C   UNL     1      -3.302  -2.526  25.569  0.00  0.00    +0.099 A 
ATOM     18  C   UNL     1      -2.661  -2.037  25.395  0.00  0.00    +0.018 A 
ENDBRANCH  12  13
ENDBRANCH  11  12
TORSDOF 6
ENDMDL
MODEL 5
REMARK VINA RESULT:     -11.1      1.485      4.127
REMARK  Name = 
REMARK  6 active torsions:
REMARK  status: ('A' for Active; 'I' for Inactive)
REMARK    1  A    between atoms: C_2  and  C_4
REMARK    2  A    between atoms: C_4  and  C_5
REMARK    3  A    between atoms: C_7  and  C_25
REMARK    4  A    between atoms: N_11  and  C_12
REMARK    5  A    between atoms: C_12  and  C_13
REMARK    6  A    between atoms: N_27  and  C_28
REMARK                            x       y       z     vdW  Elec       q    Type
REMARK                         _______ _______ _______ _____ _____    ______ ____
ROOT
ATOM      5  C   UNL     1      -1.199   2.481  25.118  0.00  0.00    +0.095 C 
ATOM      6  N   UNL     1      -1.125   1.679  24.940  0.00  0.00    -0.207 NA
ATOM      7  C   UNL     1      -1.718   1.136  24.755  0.00  0.00    +0.155 C 
ATOM      8  C   UNL     1      -2.532   1.262  24.702  0.00  0.00    +0.055 C 
ATOM      9  C   UNL     1      -2.953   1.961  24.822  0.00  0.00    -0.002 A 
ATOM     10  C   UNL     1      -3.773   2.015  24.752  0.00  0.00    +0.072 A 
ATOM     11  N   UNL     1      -3.992   2.795  24.910  0.00  0.00    -0.322 N 
ATOM     19  C   UNL     1      -3.307   3.223  25.078  0.00  0.00    +0.060 A 
ATOM     20  C   UNL     1      -2.665   2.707  25.023  0.00  0.00    +0.011 A 
ATOM     21  C   UNL     1      -1.883   2.938  25.155  0.00  0.00    -0.005 A 
ATOM     22  C   UNL     1      -1.778   3.776  25.359  0.00  0.00    -0.003 A 
ATOM     23  C   UNL     1      -2.420   4.292  25.414  0.00  0.00    +0.001 A 
ATOM     24  C   UNL     1      -3.184   4.015  25.273  0.00  0.00    +0.017 A 
ENDROOT
BRANCH   7  25
ATOM     25  C   UNL     1      -1.464   0.366  24.602  0.00  0.00    +0.257 C 
ATOM     26  O   UNL     1      -1.124   0.181  23.873  0.00  0.00    -0.272 OA
ATOM     27  N   UNL     1      -1.550  -0.218  25.178  0.00  0.00    -0.206 NA
BRANCH  27  28
ATOM     28  C   UNL     1      -1.296  -0.988  25.024  0.00  0.00    +0.095 C 
ATOM     29  C   UNL     1      -0.595  -1.406  25.147  0.00  0.00    +0.022 C 
ATOM     30  C   UNL     1      -0.935  -2.076  24.807  0.00  0.00    +0.004 C 
ATOM     31  C   UNL     1      -1.636  -1.658  24.684  0.00  0.00    +0.022 C 
ENDBRANCH  27  28
ENDBRANCH   7  25
BRANCH   5   4
ATOM      4  C   UNL     1      -0.494   2.877  25.280  0.00  0.00    +0.022 C 
BRANCH   4   2
ATOM      1  C   UNL     1       0.753   2.192  25.147  0.00  0.00    +0.000 C 
ATOM      2  C   UNL     1       0.139   2.471  25.621  0.00  0.00    +0.002 C 
ATOM      3  C   UNL     1       0.155   2.344  26.437  0.00  0.00    +0.000 C 
ENDBRANCH   4   2
ENDBRANCH   5   4
BRANCH  11  12
ATOM     12  C   UNL     1      -4.760   3.095  24.903  0.00  0.00    +0.133 C 
BRANCH  12  13
ATOM     13  C   UNL     1      -5.383   2.643  25.200  0.00  0.00    +0.003 A 
ATOM     14  C   UNL     1      -5.792   2.127  24.702  0.00  0.00    +0.018 A 
ATOM     15  C   UNL     1      -6.415   1.675  25.000  0.00  0.00    +0.099 A 
ATOM     16  N   UNL     1      -6.629   1.739  25.794  0.00  0.00    -0.242 NA
ATOM     17  C   UNL     1      -6.219   2.255  26.291  0.00  0.00    +0.099 A 
ATOM     18  C   UNL     1      -5.597   2.707  25.994  0.00  0.00    +0.018 A 
ENDBRANCH  12  13
ENDBRANCH  11  12
TORSDOF 6
ENDMDL
MODEL 6
REMARK VINA RESULT:     -11.1      1.573      3.594
REMARK  Name = 
REMARK  6 active torsions:
REMARK  status: ('A' for Active; 'I' for Inactive)
REMARK    1  A    between atoms: C_2  and  C_4
REMARK    2  A    between atoms: C_4  and  C_5
REMARK    3  A    between atoms: C_7  and  C_25
REMARK    4  A    between atoms: N_11  and  C_12
REMARK    5  A    between atoms: C_12  and  C_13
REMARK    6  A    between atoms: N_27  and  C_28
REMARK                            x       y       z     vdW  Elec       q    Type
REMARK                         _______ _______ _______ _____ _____    ______ ____
ROOT
ATOM      5  C   UNL     1      -1.263   0.123  25.049  0.00  0.00    +0.095 C 
ATOM      6  N   UNL     1      -1.864  -0.438  24.978  0.00  0.00    -0.207 NA
ATOM      7  C   UNL     1      -2.675  -0.314  24.884  0.00  0.00    +0.155 C 
ATOM      8  C   UNL     1      -3.084   0.401  24.837  0.00  0.00    +0.055 C 
ATOM      9  C   UNL     1      -2.784   1.169  24.873  0.00  0.00    -0.002 A 
ATOM     10  C   UNL     1      -3.255   1.844  24.820  0.00  0.00    +0.072 A 
ATOM     11  N   UNL     1      -2.763   2.504  24.878  0.00  0.00    -0.322 N 
ATOM     19  C   UNL     1      -1.987   2.236  24.968  0.00  0.00    +0.060 A 
ATOM     20  C   UNL     1      -2.000   1.411  24.965  0.00  0.00    +0.011 A 
ATOM     21  C   UNL     1      -1.324   0.945  25.043  0.00  0.00    -0.005 A 
ATOM     22  C   UNL     1      -0.582   1.388  25.130  0.00  0.00    -0.003 A 
ATOM     23  C   UNL     1      -0.568   2.213  25.133  0.00  0.00    +0.001 A 
ATOM     24  C   UNL     1      -1.272   2.637  25.052  0.00  0.00    +0.017 A 
ENDROOT
BRANCH   7  25
ATOM     25  C   UNL     1      -3.137  -0.996  24.829  0.00  0.00    +0.257 C 
ATOM     26  O   UNL     1      -3.437  -1.346  25.514  0.00  0.00    -0.272 OA
ATOM     27  N   UNL     1      -3.299  -1.326  24.091  0.00  0.00    -0.206 NA
BRANCH  27  28
ATOM     28  C   UNL     1      -3.761  -2.007  24.037  0.00  0.00    +0.095 C 
ATOM     29  C   UNL     1      -4.504  -2.184  23.728  0.00  0.00    +0.022 C 
ATOM     30  C   UNL     1      -4.414  -2.970  23.961  0.00  0.00    +0.004 C 
ATOM     31  C   UNL     1      -3.671  -2.793  24.270  0.00  0.00    +0.022 C 
ENDBRANCH  27  28
ENDBRANCH   7  25
BRANCH   5   4
ATOM      4  C   UNL     1      -0.501  -0.180  25.137  0.00  0.00    +0.022 C 
BRANCH   4   2
ATOM      1  C   UNL     1      -0.298  -1.591  25.236  0.00  0.00    +0.000 C 
ATOM      2  C   UNL     1      -0.300  -0.899  24.786  0.00  0.00    +0.002 C 
ATOM      3  C   UNL     1      -0.101  -0.926  23.985  0.00  0.00    +0.000 C 
ENDBRANCH   4   2
ENDBRANCH   5   4
BRANCH  11  12
ATOM     12  C   UNL     1      -3.003   3.292  24.851  0.00  0.00    +0.133 C 
BRANCH  12  13
ATOM     13  C   UNL     1      -3.745   3.508  25.138  0.00  0.00    +0.003 A 
ATOM     14  C   UNL     1      -3.841   3.690  25.937  0.00  0.00    +0.018 A 
ATOM     15  C   UNL     1      -4.585   3.906  26.224  0.00  0.00    +0.099 A 
ATOM     16  N   UNL     1      -5.231   3.939  25.712  0.00  0.00    -0.242 NA
ATOM     17  C   UNL     1      -5.134   3.757  24.913  0.00  0.00    +0.099 A 
ATOM     18  C   UNL     1      -4.391   3.541  24.626  0.00  0.00    +0.018 A 
ENDBRANCH  12  13
ENDBRANCH  11  12
TORSDOF 6
ENDMDL
MODEL 7
REMARK VINA RESULT:     -11.0      1.695      3.234
REMARK  Name = 
REMARK  6 active torsions:
REMARK  status: ('A' for Active; 'I' for Inactive)
REMARK    1  A    between atoms: C_2  and  C_4
REMARK    2  A    between atoms: C_4  and  C_5
REMARK    3  A    between atoms: C_7  and  C_25
REMARK    4  A    between atoms: N_11  and  C_12
REMARK    5  A    between atoms: C_12  and  C_13
REMARK    6  A    between atoms: N_27  and  C_28
REMARK                            x       y       z     vdW  Elec       q    Type
REMARK                         _______ _______ _______ _____ _____    ______ ____
ROOT
ATOM      5  C   UNL     1      -3.583  -0.351  24.908  0.00  0.00    +0.095 C 
ATOM      6  N   UNL     1      -2.774  -0.484  24.818  0.00  0.00    -0.207 NA
ATOM      7  C   UNL     1      -2.165   0.069  24.758  0.00  0.00    +0.155 C 
ATOM      8  C   UNL     1      -2.215   0.892  24.773  0.00  0.00    +0.055 C 
ATOM      9  C   UNL     1      -2.886   1.366  24.851  0.00  0.00    -0.002 A 
ATOM     10  C   UNL     1      -2.862   2.190  24.859  0.00  0.00    +0.072 A 
ATOM     11  N   UNL     1      -3.634   2.467  24.946  0.00  0.00    -0.322 N 
ATOM     19  C   UNL     1      -4.136   1.814  24.993  0.00  0.00    +0.060 A 
ATOM     20  C   UNL     1      -3.673   1.133  24.935  0.00  0.00    +0.011 A 
ATOM     21  C   UNL     1      -3.983   0.368  24.960  0.00  0.00    -0.005 A 
ATOM     22  C   UNL     1      -4.845   0.325  25.053  0.00  0.00    -0.003 A 
ATOM     23  C   UNL     1      -5.308   1.005  25.112  0.00  0.00    +0.001 A 
ATOM     24  C   UNL     1      -4.953   1.750  25.082  0.00  0.00    +0.017 A 
ENDROOT
BRANCH   7  25
ATOM     25  C   UNL     1      -1.405  -0.242  24.671  0.00  0.00    +0.257 C 
ATOM     26  O   UNL     1      -1.038  -0.616  25.309  0.00  0.00    -0.272 OA
ATOM     27  N   UNL     1      -1.014  -0.180  23.948  0.00  0.00    -0.206 NA
BRANCH  27  28
ATOM     28  C   UNL     1      -0.255  -0.492  23.862  0.00  0.00    +0.095 C 
ATOM     29  C   UNL     1       0.458  -0.214  23.555  0.00  0.00    +0.022 C 
ATOM     30  C   UNL     1       0.818  -0.933  23.741  0.00  0.00    +0.004 C 
ATOM     31  C   UNL     1       0.105  -1.211  24.048  0.00  0.00    +0.022 C 
ENDBRANCH  27  28
ENDBRANCH   7  25
BRANCH   5   4
ATOM      4  C   UNL     1      -4.054  -1.027  24.951  0.00  0.00    +0.022 C 
BRANCH   4   2
ATOM      1  C   UNL     1      -3.502  -2.342  24.859  0.00  0.00    +0.000 C 
ATOM      2  C   UNL     1      -3.863  -1.692  24.501  0.00  0.00    +0.002 C 
ATOM      3  C   UNL     1      -4.033  -1.706  23.693  0.00  0.00    +0.000 C 
ENDBRANCH   4   2
ENDBRANCH   5   4
BRANCH  11  12
ATOM     12  C   UNL     1      -3.866   3.258  24.981  0.00  0.00    +0.133 C 
BRANCH  12  13
ATOM     13  C   UNL     1      -3.333   3.834  25.236  0.00  0.00    +0.003 A 
ATOM     14  C   UNL     1      -2.842   4.211  24.692  0.00  0.00    +0.018 A 
ATOM     15  C   UNL     1      -2.308   4.787  24.948  0.00  0.00    +0.099 A 
ATOM     16  N   UNL     1      -2.268   4.985  25.748  0.00  0.00    -0.242 NA
ATOM     17  C   UNL     1      -2.760   4.606  26.292  0.00  0.00    +0.099 A 
ATOM     18  C   UNL     1      -3.292   4.031  26.036  0.00  0.00    +0.018 A 
ENDBRANCH  12  13
ENDBRANCH  11  12
TORSDOF 6
ENDMDL
