MODEL 1
REMARK VINA RESULT:      -9.2      0.000      0.000
REMARK  Name = 
REMARK  7 active torsions:
REMARK  status: ('A' for Active; 'I' for Inactive)
REMARK    1  A    between atoms: C_2  and  C_5
REMARK    2  A    between atoms: C_5  and  C_6
REMARK    3  A    between atoms: N_8  and  C_9
REMARK    4  A    between atoms: C_9  and  C_10
REMARK    5  A    between atoms: C_13  and  N_14
REMARK    6  A    between atoms: N_14  and  C_15
REMARK    7  A    between atoms: C_15  and  C_16
REMARK                            x       y       z     vdW  Elec       q    Type
REMARK                         _______ _______ _______ _____ _____    ______ ____
ROOT
ATOM     10  C   UNL     1      -3.655   1.878  24.566  0.00  0.00    +0.169 C 
ATOM     11  O   UNL     1      -4.240   1.677  25.112  0.00  0.00    -0.350 OA
ATOM     12  C   UNL     1      -4.384   0.867  25.045  0.00  0.00    +0.162 C 
ATOM     13  C   UNL     1      -3.887   0.568  24.458  0.00  0.00    +0.135 C 
ATOM     21  C   UNL     1      -3.437   1.193  24.162  0.00  0.00    +0.199 C 
ATOM     22  O   UNL     1      -2.868   1.141  23.566  0.00  0.00    -0.219 OA
ENDROOT
BRANCH  10   9
ATOM      9  C   UNL     1      -3.342   2.632  24.446  0.00  0.00    +0.147 C 
BRANCH   9   8
ATOM      6  C   UNL     1      -2.553   3.730  24.907  0.00  0.00    +0.241 C 
ATOM      7  O   UNL     1      -2.801   4.179  24.259  0.00  0.00    -0.273 OA
ATOM      8  N   UNL     1      -2.824   2.957  25.000  0.00  0.00    -0.203 NA
BRANCH   6   5
ATOM      5  C   UNL     1      -2.036   4.056  25.460  0.00  0.00    +0.087 C 
BRANCH   5   2
ATOM      1  C   UNL     1      -0.890   5.142  24.980  0.00  0.00    +0.000 C 
ATOM      2  C   UNL     1      -1.463   4.599  25.220  0.00  0.00    +0.009 C 
ATOM      3  C   UNL     1      -2.000   5.215  25.332  0.00  0.00    +0.000 C 
ATOM      4  C   UNL     1      -0.926   3.983  25.108  0.00  0.00    +0.000 C 
ENDBRANCH   5   2
ENDBRANCH   6   5
ENDBRANCH   9   8
ENDBRANCH  10   9
BRANCH  13  14
ATOM     14  N   UNL     1      -3.848  -0.218  24.210  0.00  0.00    -0.209 NA
BRANCH  14  15
ATOM     15  C   UNL     1      -4.054  -0.825  24.729  0.00  0.00    +0.122 C 
BRANCH  15  16
ATOM     16  C   UNL     1      -3.900  -1.610  24.529  0.00  0.00    +0.025 A 
ATOM     17  C   UNL     1      -4.242  -2.029  23.906  0.00  0.00    +0.004 A 
ATOM     18  C   UNL     1      -3.929  -2.792  23.909  0.00  0.00    +0.007 A 
ATOM     19  C   UNL     1      -3.393  -2.845  24.534  0.00  0.00    +0.035 A 
ATOM     20  S   UNL     1      -3.375  -2.114  24.917  0.00  0.00    -0.089 S 
ENDBRANCH  15  16
ENDBRANCH  14  15
ENDBRANCH  13  14
TORSDOF 7
ENDMDL
MODEL 2
REMARK VINA RESULT:      -9.0      1.612      5.494
REMARK  Name = 
REMARK  7 active torsions:
REMARK  status: ('A' for Active; 'I' for Inactive)
REMARK    1  A    between atoms: C_2  and  C_5
REMARK    2  A    between atoms: C_5  and  C_6
REMARK    3  A    between atoms: N_8  and  C_9
REMARK    4  A    between atoms: C_9  and  C_10
REMARK    5  A    between atoms: C_13  and  N_14
REMARK    6  A    between atoms: N_14  and  C_15
REMARK    7  A    between atoms: C_15  and  C_16
REMARK                            x       y       z     vdW  Elec       q    Type
REMARK                         _______ _______ _______ _____ _____    ______ ____
ROOT
ATOM     10  C   UNL     1      -3.566   1.221  24.346  0.00  0.00    +0.169 C 
ATOM     11  O   UNL     1      -3.953   1.544  25.000  0.00  0.00    -0.350 OA
ATOM     12  C   UNL     1      -3.632   2.290  25.143  0.00  0.00    +0.162 C 
ATOM     13  C   UNL     1      -3.048   2.429  24.577  0.00  0.00    +0.135 C 
ATOM     21  C   UNL     1      -3.007   1.768  24.085  0.00  0.00    +0.199 C 
ATOM     22  O   UNL     1      -2.496   1.672  23.443  0.00  0.00    -0.219 OA
ENDROOT
BRANCH  10   9
ATOM      9  C   UNL     1      -3.713   0.481  24.012  0.00  0.00    +0.147 C 
BRANCH   9   8
ATOM      6  C   UNL     1      -3.948  -0.919  24.169  0.00  0.00    +0.241 C 
ATOM      7  O   UNL     1      -3.874  -1.023  23.353  0.00  0.00    -0.273 OA
ATOM      8  N   UNL     1      -3.867  -0.167  24.498  0.00  0.00    -0.203 NA
BRANCH   6   5
ATOM      5  C   UNL     1      -4.102  -1.568  24.654  0.00  0.00    +0.087 C 
BRANCH   5   2
ATOM      1  C   UNL     1      -3.384  -3.021  24.343  0.00  0.00    +0.000 C 
ATOM      2  C   UNL     1      -3.743  -2.295  24.499  0.00  0.00    +0.009 C 
ATOM      3  C   UNL     1      -3.191  -2.150  25.095  0.00  0.00    +0.000 C 
ATOM      4  C   UNL     1      -4.295  -2.440  23.903  0.00  0.00    +0.000 C 
ENDBRANCH   5   2
ENDBRANCH   6   5
ENDBRANCH   9   8
ENDBRANCH  10   9
BRANCH  13  14
ATOM     14  N   UNL     1      -2.585   3.109  24.515  0.00  0.00    -0.209 NA
BRANCH  14  15
ATOM     15  C   UNL     1      -2.310   3.486  25.196  0.00  0.00    +0.122 C 
BRANCH  15  16
ATOM     16  C   UNL     1      -1.805   4.134  25.134  0.00  0.00    +0.025 A 
ATOM     17  C   UNL     1      -2.029   4.928  25.158  0.00  0.00    +0.004 A 
ATOM     18  C   UNL     1      -1.349   5.388  25.076  0.00  0.00    +0.007 A 
ATOM     19  C   UNL     1      -0.705   4.878  25.002  0.00  0.00    +0.035 A 
ATOM     20  S   UNL     1      -0.987   4.103  25.038  0.00  0.00    -0.089 S 
ENDBRANCH  15  16
ENDBRANCH  14  15
ENDBRANCH  13  14
TORSDOF 7
ENDMDL
MODEL 3
REMARK VINA RESULT:      -8.7      0.790      1.045
REMARK  Name = 
REMARK  7 active torsions:
REMARK  status: ('A' for Active; 'I' for Inactive)
REMARK    1  A    between atoms: C_2  and  C_5
REMARK    2  A    between atoms: C_5  and  C_6
REMARK    3  A    between atoms: N_8  and  C_9
REMARK    4  A    between atoms: C_9  and  C_10
REMARK    5  A    between atoms: C_13  and  N_14
REMARK    6  A    between atoms: N_14  and  C_15
REMARK    7  A    between atoms: C_15  and  C_16
REMARK                            x       y       z     vdW  Elec       q    Type
REMARK                         _______ _______ _______ _____ _____    ______ ____
ROOT
ATOM     10  C   UNL     1      -2.688   1.661  24.856  0.00  0.00    +0.169 C 
ATOM     11  O   UNL     1      -2.041   1.222  25.121  0.00  0.00    -0.350 OA
ATOM     12  C   UNL     1      -2.226   0.422  25.041  0.00  0.00    +0.162 C 
ATOM     13  C   UNL     1      -2.987   0.367  24.726  0.00  0.00    +0.135 C 
ATOM     21  C   UNL     1      -3.272   1.133  24.612  0.00  0.00    +0.199 C 
ATOM     22  O   UNL     1      -4.012   1.334  24.307  0.00  0.00    -0.219 OA
ENDROOT
BRANCH  10   9
ATOM      9  C   UNL     1      -2.740   2.484  24.838  0.00  0.00    +0.147 C 
BRANCH   9   8
ATOM      6  C   UNL     1      -2.154   3.760  25.104  0.00  0.00    +0.241 C 
ATOM      7  O   UNL     1      -2.721   4.120  24.623  0.00  0.00    -0.273 OA
ATOM      8  N   UNL     1      -2.164   2.942  25.211  0.00  0.00    -0.203 NA
BRANCH   6   5
ATOM      5  C   UNL     1      -1.579   4.219  25.476  0.00  0.00    +0.087 C 
BRANCH   5   2
ATOM      1  C   UNL     1      -0.992   5.571  24.735  0.00  0.00    +0.000 C 
ATOM      2  C   UNL     1      -1.286   4.895  25.106  0.00  0.00    +0.009 C 
ATOM      3  C   UNL     1      -0.622   4.472  24.858  0.00  0.00    +0.000 C 
ATOM      4  C   UNL     1      -1.949   5.318  25.353  0.00  0.00    +0.000 C 
ENDBRANCH   5   2
ENDBRANCH   6   5
ENDBRANCH   9   8
ENDBRANCH  10   9
BRANCH  13  14
ATOM     14  N   UNL     1      -3.392  -0.332  24.556  0.00  0.00    -0.209 NA
BRANCH  14  15
ATOM     15  C   UNL     1      -2.993  -1.054  24.569  0.00  0.00    +0.122 C 
BRANCH  15  16
ATOM     16  C   UNL     1      -3.398  -1.752  24.402  0.00  0.00    +0.025 A 
ATOM     17  C   UNL     1      -4.041  -1.831  23.892  0.00  0.00    +0.004 A 
ATOM     18  C   UNL     1      -4.271  -2.623  23.892  0.00  0.00    +0.007 A 
ATOM     19  C   UNL     1      -3.770  -3.034  24.402  0.00  0.00    +0.035 A 
ATOM     20  S   UNL     1      -3.230  -2.496  24.718  0.00  0.00    -0.089 S 
ENDBRANCH  15  16
ENDBRANCH  14  15
ENDBRANCH  13  14
TORSDOF 7
ENDMDL
MODEL 4
REMARK VINA RESULT:      -6.3     17.618     19.291
REMARK  Name = 
REMARK  7 active torsions:
REMARK  status: ('A' for Active; 'I' for Inactive)
REMARK    1  A    between atoms: C_2  and  C_5
REMARK    2  A    between atoms: C_5  and  C_6
REMARK    3  A    between atoms: N_8  and  C_9
REMARK    4  A    between atoms: C_9  and  C_10
REMARK    5  A    between atoms: C_13  and  N_14
REMARK    6  A    between atoms: N_14  and  C_15
REMARK    7  A    between atoms: C_15  and  C_16
REMARK                            x       y       z     vdW  Elec       q    Type
REMARK                         _______ _______ _______ _____ _____    ______ ____
ROOT
ATOM     10  C   UNL     1      13.278   7.549  18.977  0.00  0.00    +0.169 C 
ATOM     11  O   UNL     1      13.097   7.836  19.729  0.00  0.00    -0.350 OA
ATOM     12  C   UNL     1      13.774   7.771  20.197  0.00  0.00    +0.162 C 
ATOM     13  C   UNL     1      14.373   7.444  19.734  0.00  0.00    +0.135 C 
ATOM     21  C   UNL     1      14.066   7.306  18.980  0.00  0.00    +0.199 C 
ATOM     22  O   UNL     1      14.477   6.983  18.341  0.00  0.00    -0.219 OA
ENDROOT
BRANCH  10   9
ATOM      9  C   UNL     1      12.761   7.511  18.335  0.00  0.00    +0.147 C 
BRANCH   9   8
ATOM      6  C   UNL     1      11.819   8.145  17.468  0.00  0.00    +0.241 C 
ATOM      7  O   UNL     1      11.654   7.417  17.115  0.00  0.00    -0.273 OA
ATOM      8  N   UNL     1      12.373   8.192  18.078  0.00  0.00    -0.203 NA
BRANCH   6   5
ATOM      5  C   UNL     1      11.430   8.825  17.210  0.00  0.00    +0.087 C 
BRANCH   5   2
ATOM      1  C   UNL     1      10.552   8.795  15.813  0.00  0.00    +0.000 C 
ATOM      2  C   UNL     1      10.991   8.810  16.512  0.00  0.00    +0.009 C 
ATOM      3  C   UNL     1      10.337   8.527  16.929  0.00  0.00    +0.000 C 
ATOM      4  C   UNL     1      11.644   9.093  16.095  0.00  0.00    +0.000 C 
ENDBRANCH   5   2
ENDBRANCH   6   5
ENDBRANCH   9   8
ENDBRANCH  10   9
BRANCH  13  14
ATOM     14  N   UNL     1      15.143   7.282  19.980  0.00  0.00    -0.209 NA
BRANCH  14  15
ATOM     15  C   UNL     1      15.345   7.353  20.777  0.00  0.00    +0.122 C 
BRANCH  15  16
ATOM     16  C   UNL     1      16.126   7.247  21.017  0.00  0.00    +0.025 A 
ATOM     17  C   UNL     1      16.685   7.843  21.128  0.00  0.00    +0.004 A 
ATOM     18  C   UNL     1      17.391   7.490  21.368  0.00  0.00    +0.007 A 
ATOM     19  C   UNL     1      17.269   6.675  21.404  0.00  0.00    +0.035 A 
ATOM     20  S   UNL     1      16.487   6.525  21.187  0.00  0.00    -0.089 S 
ENDBRANCH  15  16
ENDBRANCH  14  15
ENDBRANCH  13  14
TORSDOF 7
ENDMDL
MODEL 5
REMARK VINA RESULT:      -6.1     18.132     19.672
REMARK  Name = 
REMARK  7 active torsions:
REMARK  status: ('A' for Active; 'I' for Inactive)
REMARK    1  A    between atoms: C_2  and  C_5
REMARK    2  A    between atoms: C_5  and  C_6
REMARK    3  A    between atoms: N_8  and  C_9
REMARK    4  A    between atoms: C_9  and  C_10
REMARK    5  A    between atoms: C_13  and  N_14
REMARK    6  A    between atoms: N_14  and  C_15
REMARK    7  A    between atoms: C_15  and  C_16
REMARK                            x       y       z     vdW  Elec       q    Type
REMARK                         _______ _______ _______ _____ _____    ______ ____
ROOT
ATOM     10  C   UNL     1      14.265   7.725  18.502  0.00  0.00    +0.169 C 
ATOM     11  O   UNL     1      13.846   8.256  18.975  0.00  0.00    -0.350 OA
ATOM     12  C   UNL     1      13.213   8.546  18.532  0.00  0.00    +0.162 C 
ATOM     13  C   UNL     1      13.241   8.194  17.786  0.00  0.00    +0.135 C 
ATOM     21  C   UNL     1      13.892   7.687  17.768  0.00  0.00    +0.199 C 
ATOM     22  O   UNL     1      14.128   7.223  17.127  0.00  0.00    -0.219 OA
ENDROOT
BRANCH  10   9
ATOM      9  C   UNL     1      14.940   7.305  18.726  0.00  0.00    +0.147 C 
BRANCH   9   8
ATOM      6  C   UNL     1      15.845   6.942  19.770  0.00  0.00    +0.241 C 
ATOM      7  O   UNL     1      15.992   6.223  19.392  0.00  0.00    -0.273 OA
ATOM      8  N   UNL     1      15.319   7.483  19.437  0.00  0.00    -0.203 NA
BRANCH   6   5
ATOM      5  C   UNL     1      16.224   7.119  20.480  0.00  0.00    +0.087 C 
BRANCH   5   2
ATOM      1  C   UNL     1      17.405   6.121  21.057  0.00  0.00    +0.000 C 
ATOM      2  C   UNL     1      16.815   6.620  20.769  0.00  0.00    +0.009 C 
ATOM      3  C   UNL     1      17.341   6.919  20.208  0.00  0.00    +0.000 C 
ATOM      4  C   UNL     1      16.288   6.321  21.329  0.00  0.00    +0.000 C 
ENDBRANCH   5   2
ENDBRANCH   6   5
ENDBRANCH   9   8
ENDBRANCH  10   9
BRANCH  13  14
ATOM     14  N   UNL     1      12.713   8.326  17.167  0.00  0.00    -0.209 NA
BRANCH  14  15
ATOM     15  C   UNL     1      11.923   8.503  17.329  0.00  0.00    +0.122 C 
BRANCH  15  16
ATOM     16  C   UNL     1      11.404   8.678  16.713  0.00  0.00    +0.025 A 
ATOM     17  C   UNL     1      11.606   9.018  15.988  0.00  0.00    +0.004 A 
ATOM     18  C   UNL     1      10.918   9.094  15.540  0.00  0.00    +0.007 A 
ATOM     19  C   UNL     1      10.290   8.801  15.987  0.00  0.00    +0.035 A 
ATOM     20  S   UNL     1      10.590   8.544  16.712  0.00  0.00    -0.089 S 
ENDBRANCH  15  16
ENDBRANCH  14  15
ENDBRANCH  13  14
TORSDOF 7
ENDMDL
