MODEL 1
REMARK VINA RESULT:     -11.5      0.000      0.000
REMARK  Name = 
REMARK  6 active torsions:
REMARK  status: ('A' for Active; 'I' for Inactive)
REMARK    1  A    between atoms: C_5  and  C_6
REMARK    2  A    between atoms: C_6  and  N_7
REMARK    3  A    between atoms: C_10  and  C_12
REMARK    4  A    between atoms: C_15  and  C_16
REMARK    5  A    between atoms: C_16  and  O_17
REMARK    6  A    between atoms: O_17  and  C_18
REMARK                            x       y       z     vdW  Elec       q    Type
REMARK                         _______ _______ _______ _____ _____    ______ ____
ROOT
ATOM     12  C   UNL     1      -4.535   2.204  24.946  0.00  0.00    +0.227 A 
ATOM     13  N   UNL     1      -5.352   2.108  25.009  0.00  0.00    -0.112 NA
ATOM     14  N   UNL     1      -5.516   1.300  24.998  0.00  0.00    -0.108 NA
ATOM     15  C   UNL     1      -4.800   0.896  24.928  0.00  0.00    +0.270 A 
ATOM     25  O   UNL     1      -4.195   1.455  24.896  0.00  0.00    -0.420 OA
ENDROOT
BRANCH  12  10
ATOM      7  N   UNL     1      -3.304   3.918  25.260  0.00  0.00    -0.266 NA
ATOM      8  C   UNL     1      -3.714   4.140  24.580  0.00  0.00    +0.073 C 
ATOM      9  C   UNL     1      -4.226   3.524  24.378  0.00  0.00    +0.028 C 
ATOM     10  C   UNL     1      -4.131   2.923  24.936  0.00  0.00    +0.096 C 
ATOM     11  C   UNL     1      -3.561   3.167  25.480  0.00  0.00    +0.082 C 
BRANCH   7   6
ATOM      6  C   UNL     1      -2.735   4.371  25.651  0.00  0.00    +0.138 C 
BRANCH   6   5
ATOM      1  C   UNL     1      -0.065   3.260  25.384  0.00  0.00    +0.072 C 
ATOM      2  C   UNL     1      -0.710   3.773  25.340  0.00  0.00    +0.123 A 
ATOM      3  C   UNL     1      -0.707   4.527  25.003  0.00  0.00    +0.036 A 
ATOM      4  C   UNL     1      -1.466   4.842  25.079  0.00  0.00    +0.037 A 
ATOM      5  C   UNL     1      -1.937   4.284  25.462  0.00  0.00    +0.139 A 
ATOM     26  O   UNL     1      -1.470   3.623  25.623  0.00  0.00    -0.461 OA
ENDBRANCH   6   5
ENDBRANCH   7   6
ENDBRANCH  12  10
BRANCH  15  16
ATOM     16  C   UNL     1      -4.707   0.077  24.896  0.00  0.00    +0.291 C 
BRANCH  16  17
ATOM     17  O   UNL     1      -4.050  -0.249  24.517  0.00  0.00    -0.465 OA
BRANCH  17  18
ATOM     18  C   UNL     1      -3.942  -1.068  24.508  0.00  0.00    +0.139 A 
ATOM     19  C   UNL     1      -4.251  -1.517  23.890  0.00  0.00    +0.039 A 
ATOM     20  C   UNL     1      -4.143  -2.335  23.881  0.00  0.00    +0.033 A 
ATOM     21  C   UNL     1      -3.725  -2.702  24.491  0.00  0.00    +0.140 A 
ATOM     22  F   UNL     1      -3.617  -3.520  24.482  0.00  0.00    -0.204 F 
ATOM     23  C   UNL     1      -3.416  -2.251  25.109  0.00  0.00    +0.033 A 
ATOM     24  C   UNL     1      -3.525  -1.434  25.118  0.00  0.00    +0.039 A 
ENDBRANCH  17  18
ENDBRANCH  16  17
ENDBRANCH  15  16
TORSDOF 6
ENDMDL
MODEL 2
REMARK VINA RESULT:     -10.9      2.247      5.402
REMARK  Name = 
REMARK  6 active torsions:
REMARK  status: ('A' for Active; 'I' for Inactive)
REMARK    1  A    between atoms: C_5  and  C_6
REMARK    2  A    between atoms: C_6  and  N_7
REMARK    3  A    between atoms: C_10  and  C_12
REMARK    4  A    between atoms: C_15  and  C_16
REMARK    5  A    between atoms: C_16  and  O_17
REMARK    6  A    between atoms: O_17  and  C_18
REMARK                            x       y       z     vdW  Elec       q    Type
REMARK                         _______ _______ _______ _____ _____    ______ ____
ROOT
ATOM     12  C   UNL     1      -4.163   1.185  24.893  0.00  0.00    +0.227 A 
ATOM     13  N   UNL     1      -4.829   1.628  25.098  0.00  0.00    -0.112 NA
ATOM     14  N   UNL     1      -4.605   2.421  25.140  0.00  0.00    -0.108 NA
ATOM     15  C   UNL     1      -3.801   2.468  24.961  0.00  0.00    +0.270 A 
ATOM     25  O   UNL     1      -3.529   1.705  24.808  0.00  0.00    -0.420 OA
ENDROOT
BRANCH  12  10
ATOM      7  N   UNL     1      -3.853  -0.925  24.965  0.00  0.00    -0.266 NA
ATOM      8  C   UNL     1      -4.345  -0.859  24.307  0.00  0.00    +0.073 C 
ATOM      9  C   UNL     1      -4.522  -0.060  24.199  0.00  0.00    +0.028 C 
ATOM     10  C   UNL     1      -4.138   0.367  24.792  0.00  0.00    +0.096 C 
ATOM     11  C   UNL     1      -3.725  -0.168  25.264  0.00  0.00    +0.082 C 
BRANCH   7   6
ATOM      6  C   UNL     1      -3.543  -1.626  25.269  0.00  0.00    +0.138 C 
BRANCH   6   5
ATOM      1  C   UNL     1      -0.663  -1.875  24.984  0.00  0.00    +0.072 C 
ATOM      2  C   UNL     1      -1.474  -2.001  24.898  0.00  0.00    +0.123 A 
ATOM      3  C   UNL     1      -1.828  -2.574  24.421  0.00  0.00    +0.036 A 
ATOM      4  C   UNL     1      -2.646  -2.504  24.502  0.00  0.00    +0.037 A 
ATOM      5  C   UNL     1      -2.798  -1.887  25.029  0.00  0.00    +0.139 A 
ATOM     26  O   UNL     1      -2.073  -1.577  25.274  0.00  0.00    -0.461 OA
ENDBRANCH   6   5
ENDBRANCH   7   6
ENDBRANCH  12  10
BRANCH  15  16
ATOM     16  C   UNL     1      -3.349   3.158  24.938  0.00  0.00    +0.291 C 
BRANCH  16  17
ATOM     17  O   UNL     1      -2.724   3.260  25.466  0.00  0.00    -0.465 OA
BRANCH  17  18
ATOM     18  C   UNL     1      -2.145   3.829  25.317  0.00  0.00    +0.139 A 
ATOM     19  C   UNL     1      -2.324   4.629  25.395  0.00  0.00    +0.039 A 
ATOM     20  C   UNL     1      -1.744   5.198  25.246  0.00  0.00    +0.033 A 
ATOM     21  C   UNL     1      -0.986   4.963  25.018  0.00  0.00    +0.140 A 
ATOM     22  F   UNL     1      -0.406   5.531  24.869  0.00  0.00    -0.204 F 
ATOM     23  C   UNL     1      -0.808   4.161  24.941  0.00  0.00    +0.033 A 
ATOM     24  C   UNL     1      -1.387   3.594  25.090  0.00  0.00    +0.039 A 
ENDBRANCH  17  18
ENDBRANCH  16  17
ENDBRANCH  15  16
TORSDOF 6
ENDMDL
MODEL 3
REMARK VINA RESULT:     -10.6      3.056      6.353
REMARK  Name = 
REMARK  6 active torsions:
REMARK  status: ('A' for Active; 'I' for Inactive)
REMARK    1  A    between atoms: C_5  and  C_6
REMARK    2  A    between atoms: C_6  and  N_7
REMARK    3  A    between atoms: C_10  and  C_12
REMARK    4  A    between atoms: C_15  and  C_16
REMARK    5  A    between atoms: C_16  and  O_17
REMARK    6  A    between atoms: O_17  and  C_18
REMARK                            x       y       z     vdW  Elec       q    Type
REMARK                         _______ _______ _______ _____ _____    ______ ____
ROOT
ATOM     12  C   UNL     1      -0.500   0.372  24.523  0.00  0.00    +0.227 A 
ATOM     13  N   UNL     1       0.188   0.548  24.102  0.00  0.00    -0.112 NA
ATOM     14  N   UNL     1       0.221   1.365  23.996  0.00  0.00    -0.108 NA
ATOM     15  C   UNL     1      -0.448   1.694  24.351  0.00  0.00    +0.270 A 
ATOM     25  O   UNL     1      -0.892   1.081  24.676  0.00  0.00    -0.420 OA
ENDROOT
BRANCH  12  10
ATOM      7  N   UNL     1      -1.282  -1.604  24.717  0.00  0.00    -0.266 NA
ATOM      8  C   UNL     1      -0.988  -1.474  25.477  0.00  0.00    +0.073 C 
ATOM      9  C   UNL     1      -0.659  -0.717  25.497  0.00  0.00    +0.028 C 
ATOM     10  C   UNL     1      -0.750  -0.381  24.749  0.00  0.00    +0.096 C 
ATOM     11  C   UNL     1      -1.134  -0.929  24.268  0.00  0.00    +0.082 C 
BRANCH   7   6
ATOM      6  C   UNL     1      -1.657  -2.290  24.454  0.00  0.00    +0.138 C 
BRANCH   6   5
ATOM      1  C   UNL     1      -4.464  -1.943  23.794  0.00  0.00    +0.072 C 
ATOM      2  C   UNL     1      -3.770  -2.184  24.170  0.00  0.00    +0.123 A 
ATOM      3  C   UNL     1      -3.723  -2.670  24.836  0.00  0.00    +0.036 A 
ATOM      4  C   UNL     1      -2.925  -2.768  25.024  0.00  0.00    +0.037 A 
ATOM      5  C   UNL     1      -2.480  -2.344  24.474  0.00  0.00    +0.139 A 
ATOM     26  O   UNL     1      -3.002  -1.984  23.946  0.00  0.00    -0.461 OA
ENDBRANCH   6   5
ENDBRANCH   7   6
ENDBRANCH  12  10
BRANCH  15  16
ATOM     16  C   UNL     1      -0.637   2.497  24.376  0.00  0.00    +0.291 C 
BRANCH  16  17
ATOM     17  O   UNL     1      -0.731   2.877  25.102  0.00  0.00    -0.465 OA
BRANCH  17  18
ATOM     18  C   UNL     1      -0.995   3.658  25.130  0.00  0.00    +0.139 A 
ATOM     19  C   UNL     1      -1.728   3.834  25.462  0.00  0.00    +0.039 A 
ATOM     20  C   UNL     1      -1.992   4.616  25.490  0.00  0.00    +0.033 A 
ATOM     21  C   UNL     1      -1.520   5.221  25.183  0.00  0.00    +0.140 A 
ATOM     22  F   UNL     1      -1.783   6.002  25.211  0.00  0.00    -0.204 F 
ATOM     23  C   UNL     1      -0.786   5.043  24.851  0.00  0.00    +0.033 A 
ATOM     24  C   UNL     1      -0.523   4.262  24.824  0.00  0.00    +0.039 A 
ENDBRANCH  17  18
ENDBRANCH  16  17
ENDBRANCH  15  16
TORSDOF 6
ENDMDL
MODEL 4
REMARK VINA RESULT:     -10.5      1.941      2.920
REMARK  Name = 
REMARK  6 active torsions:
REMARK  status: ('A' for Active; 'I' for Inactive)
REMARK    1  A    between atoms: C_5  and  C_6
REMARK    2  A    between atoms: C_6  and  N_7
REMARK    3  A    between atoms: C_10  and  C_12
REMARK    4  A    between atoms: C_15  and  C_16
REMARK    5  A    between atoms: C_16  and  O_17
REMARK    6  A    between atoms: O_17  and  C_18
REMARK                            x       y       z     vdW  Elec       q    Type
REMARK                         _______ _______ _______ _____ _____    ______ ____
ROOT
ATOM     12  C   UNL     1      -0.828   0.905  25.061  0.00  0.00    +0.227 A 
ATOM     13  N   UNL     1      -0.170   0.475  24.811  0.00  0.00    -0.112 NA
ATOM     14  N   UNL     1      -0.418  -0.293  24.637  0.00  0.00    -0.108 NA
ATOM     15  C   UNL     1      -1.229  -0.336  24.779  0.00  0.00    +0.270 A 
ATOM     25  O   UNL     1      -1.482   0.403  25.041  0.00  0.00    -0.420 OA
ENDROOT
BRANCH  12  10
ATOM      7  N   UNL     1      -1.137   2.994  25.372  0.00  0.00    -0.266 NA
ATOM      8  C   UNL     1      -0.533   2.840  25.913  0.00  0.00    +0.073 C 
ATOM      9  C   UNL     1      -0.343   2.038  25.863  0.00  0.00    +0.028 C 
ATOM     10  C   UNL     1      -0.831   1.698  25.290  0.00  0.00    +0.096 C 
ATOM     11  C   UNL     1      -1.321   2.288  24.988  0.00  0.00    +0.082 C 
BRANCH   7   6
ATOM      6  C   UNL     1      -1.494   3.726  25.240  0.00  0.00    +0.138 C 
BRANCH   6   5
ATOM      1  C   UNL     1      -4.396   3.769  25.167  0.00  0.00    +0.072 C 
ATOM      2  C   UNL     1      -3.616   3.865  25.418  0.00  0.00    +0.123 A 
ATOM      3  C   UNL     1      -3.374   4.192  26.136  0.00  0.00    +0.036 A 
ATOM      4  C   UNL     1      -2.549   4.180  26.156  0.00  0.00    +0.037 A 
ATOM      5  C   UNL     1      -2.282   3.845  25.452  0.00  0.00    +0.139 A 
ATOM     26  O   UNL     1      -2.941   3.651  24.995  0.00  0.00    -0.461 OA
ENDBRANCH   6   5
ENDBRANCH   7   6
ENDBRANCH  12  10
BRANCH  15  16
ATOM     16  C   UNL     1      -1.704  -1.003  24.677  0.00  0.00    +0.291 C 
BRANCH  16  17
ATOM     17  O   UNL     1      -2.479  -1.005  24.959  0.00  0.00    -0.465 OA
BRANCH  17  18
ATOM     18  C   UNL     1      -3.034  -1.527  24.640  0.00  0.00    +0.139 A 
ATOM     19  C   UNL     1      -2.951  -2.339  24.757  0.00  0.00    +0.039 A 
ATOM     20  C   UNL     1      -3.506  -2.860  24.439  0.00  0.00    +0.033 A 
ATOM     21  C   UNL     1      -4.144  -2.568  24.003  0.00  0.00    +0.140 A 
ATOM     22  F   UNL     1      -4.698  -3.088  23.684  0.00  0.00    -0.204 F 
ATOM     23  C   UNL     1      -4.226  -1.755  23.887  0.00  0.00    +0.033 A 
ATOM     24  C   UNL     1      -3.671  -1.234  24.205  0.00  0.00    +0.039 A 
ENDBRANCH  17  18
ENDBRANCH  16  17
ENDBRANCH  15  16
TORSDOF 6
ENDMDL
MODEL 5
REMARK VINA RESULT:      -9.5      2.740      5.412
REMARK  Name = 
REMARK  6 active torsions:
REMARK  status: ('A' for Active; 'I' for Inactive)
REMARK    1  A    between atoms: C_5  and  C_6
REMARK    2  A    between atoms: C_6  and  N_7
REMARK    3  A    between atoms: C_10  and  C_12
REMARK    4  A    between atoms: C_15  and  C_16
REMARK    5  A    between atoms: C_16  and  O_17
REMARK    6  A    between atoms: O_17  and  C_18
REMARK                            x       y       z     vdW  Elec       q    Type
REMARK                         _______ _______ _______ _____ _____    ______ ____
ROOT
ATOM     12  C   UNL     1      -1.070   1.364  24.498  0.00  0.00    +0.227 A 
ATOM     13  N   UNL     1      -0.605   2.033  24.369  0.00  0.00    -0.112 NA
ATOM     14  N   UNL     1      -1.085   2.698  24.461  0.00  0.00    -0.108 NA
ATOM     15  C   UNL     1      -1.846   2.439  24.647  0.00  0.00    +0.270 A 
ATOM     25  O   UNL     1      -1.836   1.615  24.670  0.00  0.00    -0.420 OA
ENDROOT
BRANCH  12  10
ATOM      7  N   UNL     1      -0.683  -0.726  24.702  0.00  0.00    -0.266 NA
ATOM      8  C   UNL     1      -0.148  -0.522  24.108  0.00  0.00    +0.073 C 
ATOM      9  C   UNL     1      -0.227   0.286  23.959  0.00  0.00    +0.028 C 
ATOM     10  C   UNL     1      -0.812   0.581  24.461  0.00  0.00    +0.096 C 
ATOM     11  C   UNL     1      -1.093  -0.044  24.919  0.00  0.00    +0.082 C 
BRANCH   7   6
ATOM      6  C   UNL     1      -0.789  -1.479  25.020  0.00  0.00    +0.138 C 
BRANCH   6   5
ATOM      1  C   UNL     1      -3.516  -2.477  24.984  0.00  0.00    +0.072 C 
ATOM      2  C   UNL     1      -2.715  -2.376  24.813  0.00  0.00    +0.123 A 
ATOM      3  C   UNL     1      -2.279  -2.807  24.261  0.00  0.00    +0.036 A 
ATOM      4  C   UNL     1      -1.504  -2.523  24.272  0.00  0.00    +0.037 A 
ATOM      5  C   UNL     1      -1.461  -1.917  24.830  0.00  0.00    +0.139 A 
ATOM     26  O   UNL     1      -2.210  -1.826  25.165  0.00  0.00    -0.461 OA
ENDBRANCH   6   5
ENDBRANCH   7   6
ENDBRANCH  12  10
BRANCH  15  16
ATOM     16  C   UNL     1      -2.501   2.920  24.787  0.00  0.00    +0.291 C 
BRANCH  16  17
ATOM     17  O   UNL     1      -3.216   2.765  24.405  0.00  0.00    -0.465 OA
BRANCH  17  18
ATOM     18  C   UNL     1      -3.929   2.996  24.751  0.00  0.00    +0.139 A 
ATOM     19  C   UNL     1      -4.006   3.752  25.070  0.00  0.00    +0.039 A 
ATOM     20  C   UNL     1      -4.719   3.984  25.417  0.00  0.00    +0.033 A 
ATOM     21  C   UNL     1      -5.354   3.456  25.443  0.00  0.00    +0.140 A 
ATOM     22  F   UNL     1      -6.066   3.687  25.789  0.00  0.00    -0.204 F 
ATOM     23  C   UNL     1      -5.275   2.700  25.123  0.00  0.00    +0.033 A 
ATOM     24  C   UNL     1      -4.563   2.469  24.777  0.00  0.00    +0.039 A 
ENDBRANCH  17  18
ENDBRANCH  16  17
ENDBRANCH  15  16
TORSDOF 6
ENDMDL
MODEL 6
REMARK VINA RESULT:      -8.5      1.693      2.424
REMARK  Name = 
REMARK  6 active torsions:
REMARK  status: ('A' for Active; 'I' for Inactive)
REMARK    1  A    between atoms: C_5  and  C_6
REMARK    2  A    between atoms: C_6  and  N_7
REMARK    3  A    between atoms: C_10  and  C_12
REMARK    4  A    between atoms: C_15  and  C_16
REMARK    5  A    between atoms: C_16  and  O_17
REMARK    6  A    between atoms: O_17  and  C_18
REMARK                            x       y       z     vdW  Elec       q    Type
REMARK                         _______ _______ _______ _____ _____    ______ ____
ROOT
ATOM     12  C   UNL     1      -4.613   0.557  24.847  0.00  0.00    +0.227 A 
ATOM     13  N   UNL     1      -5.026  -0.023  24.431  0.00  0.00    -0.112 NA
ATOM     14  N   UNL     1      -4.555  -0.700  24.400  0.00  0.00    -0.108 NA
ATOM     15  C   UNL     1      -3.851  -0.538  24.798  0.00  0.00    +0.270 A 
ATOM     25  O   UNL     1      -3.887   0.238  25.074  0.00  0.00    -0.420 OA
ENDROOT
BRANCH  12  10
ATOM      7  N   UNL     1      -4.912   2.600  25.387  0.00  0.00    -0.266 NA
ATOM      8  C   UNL     1      -5.666   2.393  25.123  0.00  0.00    +0.073 C 
ATOM      9  C   UNL     1      -5.646   1.602  24.888  0.00  0.00    +0.028 C 
ATOM     10  C   UNL     1      -4.880   1.321  25.008  0.00  0.00    +0.096 C 
ATOM     11  C   UNL     1      -4.427   1.937  25.316  0.00  0.00    +0.082 C 
BRANCH   7   6
ATOM      6  C   UNL     1      -4.686   3.340  25.673  0.00  0.00    +0.138 C 
BRANCH   6   5
ATOM      1  C   UNL     1      -1.931   4.254  25.581  0.00  0.00    +0.072 C 
ATOM      2  C   UNL     1      -2.715   4.104  25.373  0.00  0.00    +0.123 A 
ATOM      3  C   UNL     1      -3.079   4.320  24.665  0.00  0.00    +0.036 A 
ATOM      4  C   UNL     1      -3.862   4.060  24.691  0.00  0.00    +0.037 A 
ATOM      5  C   UNL     1      -3.982   3.683  25.415  0.00  0.00    +0.139 A 
ATOM     26  O   UNL     1      -3.272   3.710  25.837  0.00  0.00    -0.461 OA
ENDBRANCH   6   5
ENDBRANCH   7   6
ENDBRANCH  12  10
BRANCH  15  16
ATOM     16  C   UNL     1      -3.222  -1.061  24.902  0.00  0.00    +0.291 C 
BRANCH  16  17
ATOM     17  O   UNL     1      -2.513  -0.940  24.497  0.00  0.00    -0.465 OA
BRANCH  17  18
ATOM     18  C   UNL     1      -1.815  -1.284  24.772  0.00  0.00    +0.139 A 
ATOM     19  C   UNL     1      -1.241  -0.817  25.135  0.00  0.00    +0.039 A 
ATOM     20  C   UNL     1      -0.543  -1.161  25.411  0.00  0.00    +0.033 A 
ATOM     21  C   UNL     1      -0.421  -1.973  25.322  0.00  0.00    +0.140 A 
ATOM     22  F   UNL     1       0.276  -2.317  25.596  0.00  0.00    -0.204 F 
ATOM     23  C   UNL     1      -0.996  -2.439  24.958  0.00  0.00    +0.033 A 
ATOM     24  C   UNL     1      -1.694  -2.094  24.683  0.00  0.00    +0.039 A 
ENDBRANCH  17  18
ENDBRANCH  16  17
ENDBRANCH  15  16
TORSDOF 6
ENDMDL
