REMARK  Name = 
REMARK  2 active torsions:
REMARK  status: ('A' for Active; 'I' for Inactive)
REMARK    1  A    between atoms: O_2  and  C_3
REMARK    2  A    between atoms: C_8  and  N_9
REMARK                            x       y       z     vdW  Elec       q    Type
REMARK                         _______ _______ _______ _____ _____    ______ ____
ROOT
ATOM      9  N   UNL     1       4.067   3.173   0.000  0.00  0.00    -0.159 NA
ATOM     10  C   UNL     1       4.067   2.348   0.000  0.00  0.00    +0.328 C 
ATOM     11  O   UNL     1       4.781   1.935   0.000  0.00  0.00    -0.250 OA
ATOM     12  N   UNL     1       3.352   1.935   0.000  0.00  0.00    -0.259 N 
ATOM     13  C   UNL     1       3.352   1.110   0.000  0.00  0.00    +0.117 C 
ATOM     14  C   UNL     1       2.638   0.698   0.000  0.00  0.00    +0.117 C 
ATOM     15  N   UNL     1       1.923   1.110   0.000  0.00  0.00    -0.259 N 
ATOM     16  C   UNL     1       1.923   1.935   0.000  0.00  0.00    +0.118 C 
ATOM     17  C   UNL     1       1.139   2.190   0.000  0.00  0.00    +0.138 C 
ATOM     18  N   UNL     1       0.654   1.523   0.000  0.00  0.00    -0.187 NA
ATOM     19  C   UNL     1       1.139   0.856   0.000  0.00  0.00    +0.323 C 
ATOM     20  O   UNL     1       0.884   0.071   0.000  0.00  0.00    -0.251 OA
ATOM     21  C   UNL     1       2.638   2.348   0.000  0.00  0.00    +0.117 C 
ENDROOT
BRANCH   9   8
ATOM      3  C   UNL     1       4.781   4.410   0.000  0.00  0.00    +0.154 A 
ATOM      4  C   UNL     1       5.496   4.823   0.000  0.00  0.00    +0.038 A 
ATOM      5  C   UNL     1       6.210   4.410   0.000  0.00  0.00    +0.003 A 
ATOM      6  C   UNL     1       6.210   3.585   0.000  0.00  0.00    +0.002 A 
ATOM      7  C   UNL     1       5.496   3.173   0.000  0.00  0.00    +0.020 A 
ATOM      8  C   UNL     1       4.781   3.585   0.000  0.00  0.00    +0.109 A 
BRANCH   3   2
ATOM      1  C   UNL     1       4.067   5.648   0.000  0.00  0.00    +0.253 C 
ATOM      2  O   UNL     1       4.067   4.823   0.000  0.00  0.00    -0.470 OA
ENDBRANCH   3   2
ENDBRANCH   9   8
TORSDOF 2
