MODEL 1
REMARK VINA RESULT:     -11.2      0.000      0.000
REMARK  Name = 
REMARK  2 active torsions:
REMARK  status: ('A' for Active; 'I' for Inactive)
REMARK    1  A    between atoms: C_7  and  C_9
REMARK    2  A    between atoms: N_12  and  C_14
REMARK                            x       y       z     vdW  Elec       q    Type
REMARK                         _______ _______ _______ _____ _____    ______ ____
ROOT
ATOM      1  F   UNL     1      -3.723  -3.297  23.962  0.00  0.00    -0.204 F 
ATOM      2  C   UNL     1      -3.723  -2.576  24.361  0.00  0.00    +0.142 A 
ATOM      3  C   UNL     1      -4.066  -1.912  24.012  0.00  0.00    +0.050 A 
ATOM      4  C   UNL     1      -4.066  -1.189  24.411  0.00  0.00    +0.102 A 
ATOM      5  C   UNL     1      -3.723  -1.131  25.159  0.00  0.00    +0.100 A 
ATOM      6  N   UNL     1      -3.805  -0.353  25.418  0.00  0.00    -0.229 NA
ATOM      7  C   UNL     1      -4.199   0.071  24.830  0.00  0.00    +0.140 A 
ATOM      8  N   UNL     1      -4.360  -0.447  24.208  0.00  0.00    -0.229 NA
ATOM     18  C   UNL     1      -3.380  -1.796  25.508  0.00  0.00    +0.023 A 
ATOM     19  C   UNL     1      -3.380  -2.518  25.109  0.00  0.00    +0.031 A 
ENDROOT
BRANCH   7   9
ATOM      9  C   UNL     1      -4.397   0.871  24.859  0.00  0.00    +0.076 C 
ATOM     10  C   UNL     1      -5.145   1.180  25.019  0.00  0.00    +0.026 C 
ATOM     11  C   UNL     1      -5.093   2.003  24.992  0.00  0.00    +0.073 C 
ATOM     12  N   UNL     1      -4.312   2.203  24.815  0.00  0.00    -0.274 NA
ATOM     13  C   UNL     1      -3.883   1.503  24.733  0.00  0.00    +0.080 C 
BRANCH  12  14
ATOM     14  C   UNL     1      -4.014   2.967  24.734  0.00  0.00    +0.058 C 
ATOM     15  C   UNL     1      -3.737   3.544  25.256  0.00  0.00    +0.016 C 
ATOM     16  C   UNL     1      -3.591   4.049  24.620  0.00  0.00    +0.003 C 
ATOM     17  C   UNL     1      -3.868   3.473  24.098  0.00  0.00    +0.016 C 
ENDBRANCH  12  14
ENDBRANCH   7   9
TORSDOF 2
ENDMDL
MODEL 2
REMARK VINA RESULT:     -10.6      2.560      4.851
REMARK  Name = 
REMARK  2 active torsions:
REMARK  status: ('A' for Active; 'I' for Inactive)
REMARK    1  A    between atoms: C_7  and  C_9
REMARK    2  A    between atoms: N_12  and  C_14
REMARK                            x       y       z     vdW  Elec       q    Type
REMARK                         _______ _______ _______ _____ _____    ______ ____
ROOT
ATOM      1  F   UNL     1      -1.452   5.556  25.428  0.00  0.00    -0.204 F 
ATOM      2  C   UNL     1      -1.580   4.759  25.261  0.00  0.00    +0.142 A 
ATOM      3  C   UNL     1      -2.341   4.445  25.305  0.00  0.00    +0.050 A 
ATOM      4  C   UNL     1      -2.469   3.647  25.138  0.00  0.00    +0.102 A 
ATOM      5  C   UNL     1      -1.834   3.163  24.927  0.00  0.00    +0.100 A 
ATOM      6  N   UNL     1      -2.126   2.404  24.794  0.00  0.00    -0.229 NA
ATOM      7  C   UNL     1      -2.940   2.417  24.923  0.00  0.00    +0.140 A 
ATOM      8  N   UNL     1      -3.151   3.185  25.135  0.00  0.00    -0.229 NA
ATOM     18  C   UNL     1      -1.072   3.478  24.882  0.00  0.00    +0.023 A 
ATOM     19  C   UNL     1      -0.945   4.276  25.050  0.00  0.00    +0.031 A 
ENDROOT
BRANCH   7   9
ATOM      9  C   UNL     1      -3.453   1.775  24.852  0.00  0.00    +0.076 C 
ATOM     10  C   UNL     1      -4.277   1.805  24.892  0.00  0.00    +0.026 C 
ATOM     11  C   UNL     1      -4.566   1.039  24.793  0.00  0.00    +0.073 C 
ATOM     12  N   UNL     1      -3.921   0.535  24.691  0.00  0.00    -0.274 NA
ATOM     13  C   UNL     1      -3.234   0.990  24.727  0.00  0.00    +0.080 C 
BRANCH  12  14
ATOM     14  C   UNL     1      -3.957  -0.281  24.574  0.00  0.00    +0.058 C 
ATOM     15  C   UNL     1      -4.036  -0.772  23.916  0.00  0.00    +0.016 C 
ATOM     16  C   UNL     1      -4.007  -1.434  24.407  0.00  0.00    +0.003 C 
ATOM     17  C   UNL     1      -3.928  -0.943  25.065  0.00  0.00    +0.016 C 
ENDBRANCH  12  14
ENDBRANCH   7   9
TORSDOF 2
ENDMDL
MODEL 3
REMARK VINA RESULT:     -10.5      1.937      4.578
REMARK  Name = 
REMARK  2 active torsions:
REMARK  status: ('A' for Active; 'I' for Inactive)
REMARK    1  A    between atoms: C_7  and  C_9
REMARK    2  A    between atoms: N_12  and  C_14
REMARK                            x       y       z     vdW  Elec       q    Type
REMARK                         _______ _______ _______ _____ _____    ______ ____
ROOT
ATOM      1  F   UNL     1      -5.876   3.899  25.631  0.00  0.00    -0.204 F 
ATOM      2  C   UNL     1      -5.275   3.399  25.370  0.00  0.00    +0.142 A 
ATOM      3  C   UNL     1      -5.338   2.585  25.484  0.00  0.00    +0.050 A 
ATOM      4  C   UNL     1      -4.737   2.083  25.223  0.00  0.00    +0.102 A 
ATOM      5  C   UNL     1      -4.073   2.397  24.848  0.00  0.00    +0.100 A 
ATOM      6  N   UNL     1      -3.572   1.772  24.651  0.00  0.00    -0.229 NA
ATOM      7  C   UNL     1      -3.927   1.072  24.905  0.00  0.00    +0.140 A 
ATOM      8  N   UNL     1      -4.646   1.265  25.258  0.00  0.00    -0.229 NA
ATOM     18  C   UNL     1      -4.009   3.212  24.734  0.00  0.00    +0.023 A 
ATOM     19  C   UNL     1      -4.611   3.712  24.995  0.00  0.00    +0.031 A 
ENDROOT
BRANCH   7   9
ATOM      9  C   UNL     1      -3.616   0.312  24.820  0.00  0.00    +0.076 C 
ATOM     10  C   UNL     1      -2.833   0.091  24.953  0.00  0.00    +0.026 C 
ATOM     11  C   UNL     1      -2.766  -0.718  24.802  0.00  0.00    +0.073 C 
ATOM     12  N   UNL     1      -3.509  -0.996  24.576  0.00  0.00    -0.274 NA
ATOM     13  C   UNL     1      -4.034  -0.360  24.587  0.00  0.00    +0.080 C 
BRANCH  12  14
ATOM     14  C   UNL     1      -3.694  -1.774  24.374  0.00  0.00    +0.058 C 
ATOM     15  C   UNL     1      -3.449  -2.518  24.632  0.00  0.00    +0.016 C 
ATOM     16  C   UNL     1      -3.957  -2.875  24.089  0.00  0.00    +0.003 C 
ATOM     17  C   UNL     1      -4.203  -2.131  23.830  0.00  0.00    +0.016 C 
ENDBRANCH  12  14
ENDBRANCH   7   9
TORSDOF 2
ENDMDL
