REMARK  Name = 
REMARK  6 active torsions:
REMARK  status: ('A' for Active; 'I' for Inactive)
REMARK    1  A    between atoms: S_2  and  N_5
REMARK    2  A    between atoms: N_5  and  C_6
REMARK    3  A    between atoms: C_6  and  C_7
REMARK    4  A    between atoms: C_9  and  C_10
REMARK    5  A    between atoms: C_10  and  C_11
REMARK    6  A    between atoms: N_13  and  C_14
REMARK                            x       y       z     vdW  Elec       q    Type
REMARK                         _______ _______ _______ _____ _____    ______ ____
ROOT
ATOM      7  C   UNL     1      -3.435   7.853   0.000  0.00  0.00    +0.167 C 
ATOM      8  O   UNL     1      -2.628   7.681   0.000  0.00  0.00    -0.351 OA
ATOM      9  C   UNL     1      -2.542   6.861   0.000  0.00  0.00    +0.157 C 
ATOM     17  C   UNL     1      -3.295   6.525   0.000  0.00  0.00    +0.212 C 
ATOM     18  O   UNL     1      -3.467   5.718   0.000  0.00  0.00    -0.218 OA
ATOM     19  C   UNL     1      -3.847   7.138   0.000  0.00  0.00    +0.213 C 
ATOM     20  O   UNL     1      -4.668   7.052   0.000  0.00  0.00    -0.218 OA
ENDROOT
BRANCH   7   6
ATOM      6  C   UNL     1      -3.770   8.607   0.000  0.00  0.00    +0.147 C 
BRANCH   6   5
ATOM      5  N   UNL     1      -4.591   8.693   0.000  0.00  0.00    -0.079 NA
BRANCH   5   2
ATOM      1  C   UNL     1      -5.262  10.200   0.000  0.00  0.00    +0.197 C 
ATOM      2  S   UNL     1      -4.926   9.446   0.000  0.00  0.00    +0.059 S 
ATOM      3  O   UNL     1      -5.680   9.111   0.000  0.00  0.00    -0.156 OA
ATOM      4  O   UNL     1      -4.173   9.782   0.000  0.00  0.00    -0.156 OA
ENDBRANCH   5   2
ENDBRANCH   6   5
ENDBRANCH   7   6
BRANCH   9  10
ATOM     10  C   UNL     1      -1.827   6.448   0.000  0.00  0.00    +0.119 C 
BRANCH  10  11
ATOM     11  C   UNL     1      -1.827   5.623   0.000  0.00  0.00    +0.244 C 
ATOM     12  O   UNL     1      -2.542   5.211   0.000  0.00  0.00    -0.273 OA
ATOM     13  N   UNL     1      -1.113   5.211   0.000  0.00  0.00    -0.207 NA
BRANCH  13  14
ATOM     14  C   UNL     1      -1.113   4.386   0.000  0.00  0.00    +0.095 C 
ATOM     15  C   UNL     1      -0.700   3.671   0.000  0.00  0.00    +0.023 C 
ATOM     16  C   UNL     1      -1.525   3.671   0.000  0.00  0.00    +0.023 C 
ENDBRANCH  13  14
ENDBRANCH  10  11
ENDBRANCH   9  10
TORSDOF 6
