MODEL 1
REMARK VINA RESULT:     -10.9      0.000      0.000
REMARK  Name = 
REMARK  6 active torsions:
REMARK  status: ('A' for Active; 'I' for Inactive)
REMARK    1  A    between atoms: O_2  and  C_3
REMARK    2  A    between atoms: C_6  and  C_9
REMARK    3  A    between atoms: C_11  and  C_12
REMARK    4  A    between atoms: C_12  and  C_13
REMARK    5  A    between atoms: C_18  and  C_19
REMARK    6  A    between atoms: C_19  and  N_20
REMARK                            x       y       z     vdW  Elec       q    Type
REMARK                         _______ _______ _______ _____ _____    ______ ____
ROOT
ATOM      9  C   UNL     1      -4.255   0.321  24.657  0.00  0.00    +0.177 A 
ATOM     10  C   UNL     1      -3.805   0.922  24.313  0.00  0.00    +0.058 A 
ATOM     11  C   UNL     1      -4.202   1.636  24.428  0.00  0.00    +0.103 A 
ATOM     24  N   UNL     1      -4.897   1.477  24.843  0.00  0.00    -0.081 NA
ATOM     25  O   UNL     1      -4.929   0.665  24.985  0.00  0.00    -0.354 OA
ENDROOT
BRANCH   9   6
ATOM      3  C   UNL     1      -3.680  -2.086  24.698  0.00  0.00    +0.139 A 
ATOM      4  C   UNL     1      -4.063  -1.764  24.041  0.00  0.00    +0.037 A 
ATOM      5  C   UNL     1      -4.254  -0.961  24.027  0.00  0.00    +0.006 A 
ATOM      6  C   UNL     1      -4.063  -0.481  24.671  0.00  0.00    +0.037 A 
ATOM      7  C   UNL     1      -3.682  -0.802  25.327  0.00  0.00    +0.006 A 
ATOM      8  C   UNL     1      -3.490  -1.605  25.341  0.00  0.00    +0.037 A 
BRANCH   3   2
ATOM      1  C   UNL     1      -2.729  -3.134  24.509  0.00  0.00    +0.252 C 
ATOM      2  O   UNL     1      -3.489  -2.888  24.712  0.00  0.00    -0.471 OA
ENDBRANCH   3   2
ENDBRANCH   9   6
BRANCH  11  12
ATOM     12  C   UNL     1      -3.948   2.378  24.173  0.00  0.00    +0.079 C 
BRANCH  12  13
ATOM     13  C   UNL     1      -3.643   2.919  24.715  0.00  0.00    +0.121 C 
ATOM     14  C   UNL     1      -4.150   3.322  25.226  0.00  0.00    +0.033 C 
ATOM     15  C   UNL     1      -3.845   3.863  25.768  0.00  0.00    +0.038 C 
ATOM     16  C   UNL     1      -3.033   4.002  25.801  0.00  0.00    +0.180 C 
ATOM     17  O   UNL     1      -2.727   4.543  26.344  0.00  0.00    -0.220 OA
ATOM     18  C   UNL     1      -2.525   3.599  25.290  0.00  0.00    +0.161 C 
ATOM     23  O   UNL     1      -2.831   3.057  24.747  0.00  0.00    -0.354 OA
BRANCH  18  19
ATOM     19  C   UNL     1      -1.712   3.737  25.322  0.00  0.00    +0.105 C 
BRANCH  19  20
ATOM     20  N   UNL     1      -1.183   3.130  25.144  0.00  0.00    -0.268 NA
ATOM     21  C   UNL     1      -0.976   2.580  25.725  0.00  0.00    +0.090 C 
ATOM     22  C   UNL     1      -0.861   3.071  24.387  0.00  0.00    +0.090 C 
ENDBRANCH  19  20
ENDBRANCH  18  19
ENDBRANCH  12  13
ENDBRANCH  11  12
TORSDOF 6
ENDMDL
MODEL 2
REMARK VINA RESULT:     -10.0      1.507      4.868
REMARK  Name = 
REMARK  6 active torsions:
REMARK  status: ('A' for Active; 'I' for Inactive)
REMARK    1  A    between atoms: O_2  and  C_3
REMARK    2  A    between atoms: C_6  and  C_9
REMARK    3  A    between atoms: C_11  and  C_12
REMARK    4  A    between atoms: C_12  and  C_13
REMARK    5  A    between atoms: C_18  and  C_19
REMARK    6  A    between atoms: C_19  and  N_20
REMARK                            x       y       z     vdW  Elec       q    Type
REMARK                         _______ _______ _______ _____ _____    ______ ____
ROOT
ATOM      9  C   UNL     1      -3.310   2.087  24.788  0.00  0.00    +0.177 A 
ATOM     10  C   UNL     1      -3.062   1.535  24.227  0.00  0.00    +0.058 A 
ATOM     11  C   UNL     1      -3.603   0.912  24.224  0.00  0.00    +0.103 A 
ATOM     24  N   UNL     1      -4.186   1.080  24.784  0.00  0.00    -0.081 NA
ATOM     25  O   UNL     1      -4.004   1.806  25.132  0.00  0.00    -0.354 OA
ENDROOT
BRANCH   9   6
ATOM      3  C   UNL     1      -2.170   4.213  25.340  0.00  0.00    +0.139 A 
ATOM      4  C   UNL     1      -1.814   3.493  25.528  0.00  0.00    +0.037 A 
ATOM      5  C   UNL     1      -2.194   2.784  25.344  0.00  0.00    +0.006 A 
ATOM      6  C   UNL     1      -2.930   2.796  24.972  0.00  0.00    +0.037 A 
ATOM      7  C   UNL     1      -3.286   3.515  24.783  0.00  0.00    +0.006 A 
ATOM      8  C   UNL     1      -2.906   4.224  24.967  0.00  0.00    +0.037 A 
BRANCH   3   2
ATOM      1  C   UNL     1      -1.194   5.210  25.032  0.00  0.00    +0.252 C 
ATOM      2  O   UNL     1      -1.790   4.922  25.524  0.00  0.00    -0.471 OA
ENDBRANCH   3   2
ENDBRANCH   9   6
BRANCH  11  12
ATOM     12  C   UNL     1      -3.568   0.241  23.747  0.00  0.00    +0.079 C 
BRANCH  12  13
ATOM     13  C   UNL     1      -3.479  -0.504  24.088  0.00  0.00    +0.121 C 
ATOM     14  C   UNL     1      -4.144  -0.961  24.262  0.00  0.00    +0.033 C 
ATOM     15  C   UNL     1      -4.055  -1.706  24.603  0.00  0.00    +0.038 C 
ATOM     16  C   UNL     1      -3.301  -1.996  24.771  0.00  0.00    +0.180 C 
ATOM     17  O   UNL     1      -3.212  -2.742  25.113  0.00  0.00    -0.220 OA
ATOM     18  C   UNL     1      -2.636  -1.540  24.597  0.00  0.00    +0.161 C 
ATOM     23  O   UNL     1      -2.725  -0.794  24.256  0.00  0.00    -0.354 OA
BRANCH  18  19
ATOM     19  C   UNL     1      -1.881  -1.829  24.765  0.00  0.00    +0.105 C 
BRANCH  19  20
ATOM     20  N   UNL     1      -1.280  -1.310  24.986  0.00  0.00    -0.268 NA
ATOM     21  C   UNL     1      -1.246  -1.024  25.760  0.00  0.00    +0.090 C 
ATOM     22  C   UNL     1      -0.713  -1.075  24.435  0.00  0.00    +0.090 C 
ENDBRANCH  19  20
ENDBRANCH  18  19
ENDBRANCH  12  13
ENDBRANCH  11  12
TORSDOF 6
ENDMDL
MODEL 3
REMARK VINA RESULT:      -9.7      1.391      2.341
REMARK  Name = 
REMARK  6 active torsions:
REMARK  status: ('A' for Active; 'I' for Inactive)
REMARK    1  A    between atoms: O_2  and  C_3
REMARK    2  A    between atoms: C_6  and  C_9
REMARK    3  A    between atoms: C_11  and  C_12
REMARK    4  A    between atoms: C_12  and  C_13
REMARK    5  A    between atoms: C_18  and  C_19
REMARK    6  A    between atoms: C_19  and  N_20
REMARK                            x       y       z     vdW  Elec       q    Type
REMARK                         _______ _______ _______ _____ _____    ______ ____
ROOT
ATOM      9  C   UNL     1      -1.774  -0.041  25.147  0.00  0.00    +0.177 A 
ATOM     10  C   UNL     1      -1.770   0.566  24.587  0.00  0.00    +0.058 A 
ATOM     11  C   UNL     1      -1.257   1.155  24.853  0.00  0.00    +0.103 A 
ATOM     24  N   UNL     1      -0.943   0.912  25.577  0.00  0.00    -0.081 NA
ATOM     25  O   UNL     1      -1.263   0.173  25.758  0.00  0.00    -0.354 OA
ENDROOT
BRANCH   9   6
ATOM      3  C   UNL     1      -3.087  -2.135  25.014  0.00  0.00    +0.139 A 
ATOM      4  C   UNL     1      -3.419  -1.460  25.355  0.00  0.00    +0.037 A 
ATOM      5  C   UNL     1      -2.982  -0.762  25.399  0.00  0.00    +0.006 A 
ATOM      6  C   UNL     1      -2.212  -0.739  25.103  0.00  0.00    +0.037 A 
ATOM      7  C   UNL     1      -1.880  -1.413  24.763  0.00  0.00    +0.006 A 
ATOM      8  C   UNL     1      -2.318  -2.110  24.718  0.00  0.00    +0.037 A 
BRANCH   3   2
ATOM      1  C   UNL     1      -3.907  -3.036  24.268  0.00  0.00    +0.252 C 
ATOM      2  O   UNL     1      -3.525  -2.832  24.970  0.00  0.00    -0.471 OA
ENDBRANCH   3   2
ENDBRANCH   9   6
BRANCH  11  12
ATOM     12  C   UNL     1      -1.087   1.861  24.464  0.00  0.00    +0.079 C 
BRANCH  12  13
ATOM     13  C   UNL     1      -1.347   2.578  24.777  0.00  0.00    +0.121 C 
ATOM     14  C   UNL     1      -0.869   2.996  25.305  0.00  0.00    +0.033 C 
ATOM     15  C   UNL     1      -1.130   3.713  25.618  0.00  0.00    +0.038 C 
ATOM     16  C   UNL     1      -1.868   4.013  25.405  0.00  0.00    +0.180 C 
ATOM     17  O   UNL     1      -2.129   4.730  25.718  0.00  0.00    -0.220 OA
ATOM     18  C   UNL     1      -2.346   3.596  24.877  0.00  0.00    +0.161 C 
ATOM     23  O   UNL     1      -2.085   2.878  24.564  0.00  0.00    -0.354 OA
BRANCH  18  19
ATOM     19  C   UNL     1      -3.085   3.896  24.664  0.00  0.00    +0.105 C 
BRANCH  19  20
ATOM     20  N   UNL     1      -3.731   3.388  24.592  0.00  0.00    -0.268 NA
ATOM     21  C   UNL     1      -3.972   3.129  23.846  0.00  0.00    +0.090 C 
ATOM     22  C   UNL     1      -4.136   3.138  25.267  0.00  0.00    +0.090 C 
ENDBRANCH  19  20
ENDBRANCH  18  19
ENDBRANCH  12  13
ENDBRANCH  11  12
TORSDOF 6
ENDMDL
MODEL 4
REMARK VINA RESULT:      -9.6      1.836      4.653
REMARK  Name = 
REMARK  6 active torsions:
REMARK  status: ('A' for Active; 'I' for Inactive)
REMARK    1  A    between atoms: O_2  and  C_3
REMARK    2  A    between atoms: C_6  and  C_9
REMARK    3  A    between atoms: C_11  and  C_12
REMARK    4  A    between atoms: C_12  and  C_13
REMARK    5  A    between atoms: C_18  and  C_19
REMARK    6  A    between atoms: C_19  and  N_20
REMARK                            x       y       z     vdW  Elec       q    Type
REMARK                         _______ _______ _______ _____ _____    ______ ____
ROOT
ATOM      9  C   UNL     1      -4.556   0.533  24.895  0.00  0.00    +0.177 A 
ATOM     10  C   UNL     1      -4.154   0.069  25.447  0.00  0.00    +0.058 A 
ATOM     11  C   UNL     1      -4.058  -0.685  25.125  0.00  0.00    +0.103 A 
ATOM     24  N   UNL     1      -4.400  -0.686  24.374  0.00  0.00    -0.081 NA
ATOM     25  O   UNL     1      -4.708   0.066  24.232  0.00  0.00    -0.354 OA
ENDROOT
BRANCH   9   6
ATOM      3  C   UNL     1      -5.194   2.907  25.180  0.00  0.00    +0.139 A 
ATOM      4  C   UNL     1      -5.696   2.310  25.448  0.00  0.00    +0.037 A 
ATOM      5  C   UNL     1      -5.484   1.518  25.353  0.00  0.00    +0.006 A 
ATOM      6  C   UNL     1      -4.769   1.324  24.990  0.00  0.00    +0.037 A 
ATOM      7  C   UNL     1      -4.267   1.921  24.722  0.00  0.00    +0.006 A 
ATOM      8  C   UNL     1      -4.479   2.712  24.817  0.00  0.00    +0.037 A 
BRANCH   3   2
ATOM      1  C   UNL     1      -4.864   4.236  25.586  0.00  0.00    +0.252 C 
ATOM      2  O   UNL     1      -5.406   3.699  25.275  0.00  0.00    -0.471 OA
ENDBRANCH   3   2
ENDBRANCH   9   6
BRANCH  11  12
ATOM     12  C   UNL     1      -3.685  -1.324  25.489  0.00  0.00    +0.079 C 
BRANCH  12  13
ATOM     13  C   UNL     1      -3.023  -1.670  25.139  0.00  0.00    +0.121 C 
ATOM     14  C   UNL     1      -3.109  -2.346  24.673  0.00  0.00    +0.033 C 
ATOM     15  C   UNL     1      -2.448  -2.692  24.323  0.00  0.00    +0.038 C 
ATOM     16  C   UNL     1      -1.700  -2.363  24.439  0.00  0.00    +0.180 C 
ATOM     17  O   UNL     1      -1.038  -2.710  24.088  0.00  0.00    -0.220 OA
ATOM     18  C   UNL     1      -1.614  -1.688  24.904  0.00  0.00    +0.161 C 
ATOM     23  O   UNL     1      -2.276  -1.341  25.254  0.00  0.00    -0.354 OA
BRANCH  18  19
ATOM     19  C   UNL     1      -0.865  -1.359  25.020  0.00  0.00    +0.105 C 
BRANCH  19  20
ATOM     20  N   UNL     1      -0.762  -0.542  24.965  0.00  0.00    -0.268 NA
ATOM     21  C   UNL     1      -0.770  -0.078  25.647  0.00  0.00    +0.090 C 
ATOM     22  C   UNL     1      -0.649  -0.189  24.227  0.00  0.00    +0.090 C 
ENDBRANCH  19  20
ENDBRANCH  18  19
ENDBRANCH  12  13
ENDBRANCH  11  12
TORSDOF 6
ENDMDL
