MODEL 1
REMARK VINA RESULT:      -9.5      0.000      0.000
REMARK  Name = 
REMARK  5 active torsions:
REMARK  status: ('A' for Active; 'I' for Inactive)
REMARK    1  A    between atoms: N_6  and  C_7
REMARK    2  A    between atoms: C_7  and  C_8
REMARK    3  A    between atoms: C_19  and  C_20
REMARK    4  A    between atoms: C_20  and  C_21
REMARK    5  A    between atoms: C_21  and  C_22
REMARK                            x       y       z     vdW  Elec       q    Type
REMARK                         _______ _______ _______ _____ _____    ______ ____
ROOT
ATOM      1  C   UNL     1      -1.264   0.661  23.430  0.00  0.00    +0.090 C 
ATOM      2  N   UNL     1      -1.077   0.900  24.198  0.00  0.00    -0.271 NA
ATOM      3  C   UNL     1      -1.028   1.715  24.316  0.00  0.00    +0.083 C 
ATOM      4  C   UNL     1      -1.153   2.270  23.718  0.00  0.00    +0.035 C 
ATOM      5  C   UNL     1      -1.057   3.022  24.044  0.00  0.00    +0.074 C 
ATOM      6  N   UNL     1      -0.872   2.932  24.843  0.00  0.00    -0.262 NA
ATOM     14  C   UNL     1      -0.854   2.124  25.011  0.00  0.00    +0.151 C 
ATOM     15  C   UNL     1      -0.687   1.819  25.759  0.00  0.00    +0.257 C 
ATOM     16  O   UNL     1      -0.534   2.377  26.348  0.00  0.00    -0.272 OA
ATOM     17  N   UNL     1      -0.653   1.030  25.997  0.00  0.00    -0.203 NA
ATOM     18  C   UNL     1      -0.777   0.350  25.545  0.00  0.00    +0.131 C 
ATOM     19  C   UNL     1      -0.966   0.293  24.744  0.00  0.00    +0.080 C 
ENDROOT
BRANCH   6   7
ATOM      7  C   UNL     1      -0.730   3.542  25.380  0.00  0.00    +0.100 C 
BRANCH   7   8
ATOM      8  C   UNL     1      -1.037   4.295  25.240  0.00  0.00    -0.006 A 
ATOM      9  C   UNL     1      -1.805   4.478  25.479  0.00  0.00    -0.003 A 
ATOM     10  C   UNL     1      -2.112   5.230  25.339  0.00  0.00    -0.000 A 
ATOM     11  C   UNL     1      -1.652   5.800  24.958  0.00  0.00    -0.000 A 
ATOM     12  C   UNL     1      -0.884   5.615  24.718  0.00  0.00    -0.000 A 
ATOM     13  C   UNL     1      -0.577   4.864  24.859  0.00  0.00    -0.003 A 
ENDBRANCH   7   8
ENDBRANCH   6   7
BRANCH  19  20
ATOM     20  C   UNL     1      -1.055  -0.474  24.452  0.00  0.00    +0.027 C 
BRANCH  20  21
ATOM     21  C   UNL     1      -1.540  -1.012  24.848  0.00  0.00    +0.087 C 
BRANCH  21  22
ATOM     22  C   UNL     1      -1.651  -1.769  24.541  0.00  0.00    +0.226 C 
ATOM     23  O   UNL     1      -1.044  -2.138  24.120  0.00  0.00    -0.275 OA
ATOM     24  N   UNL     1      -2.370  -2.158  24.655  0.00  0.00    -0.274 N 
ATOM     25  C   UNL     1      -2.481  -2.916  24.347  0.00  0.00    +0.125 C 
ATOM     26  C   UNL     1      -3.200  -3.305  24.461  0.00  0.00    +0.164 C 
ATOM     27  O   UNL     1      -3.807  -2.937  24.882  0.00  0.00    -0.350 OA
ATOM     28  C   UNL     1      -3.695  -2.180  25.189  0.00  0.00    +0.164 C 
ATOM     29  C   UNL     1      -2.976  -1.791  25.075  0.00  0.00    +0.125 C 
ENDBRANCH  21  22
ENDBRANCH  20  21
ENDBRANCH  19  20
TORSDOF 5
ENDMDL
MODEL 2
REMARK VINA RESULT:      -9.4      1.452      5.889
REMARK  Name = 
REMARK  5 active torsions:
REMARK  status: ('A' for Active; 'I' for Inactive)
REMARK    1  A    between atoms: N_6  and  C_7
REMARK    2  A    between atoms: C_7  and  C_8
REMARK    3  A    between atoms: C_19  and  C_20
REMARK    4  A    between atoms: C_20  and  C_21
REMARK    5  A    between atoms: C_21  and  C_22
REMARK                            x       y       z     vdW  Elec       q    Type
REMARK                         _______ _______ _______ _____ _____    ______ ____
ROOT
ATOM      1  C   UNL     1      -0.595   0.725  24.930  0.00  0.00    +0.090 C 
ATOM      2  N   UNL     1      -1.415   0.812  24.963  0.00  0.00    -0.271 NA
ATOM      3  C   UNL     1      -1.849   0.110  24.974  0.00  0.00    +0.083 C 
ATOM      4  C   UNL     1      -1.503  -0.639  24.955  0.00  0.00    +0.035 C 
ATOM      5  C   UNL     1      -2.107  -1.200  24.973  0.00  0.00    +0.074 C 
ATOM      6  N   UNL     1      -2.828  -0.798  25.004  0.00  0.00    -0.262 NA
ATOM     14  C   UNL     1      -2.667   0.012  25.005  0.00  0.00    +0.151 C 
ATOM     15  C   UNL     1      -3.254   0.592  25.032  0.00  0.00    +0.257 C 
ATOM     16  O   UNL     1      -4.031   0.313  25.060  0.00  0.00    -0.272 OA
ATOM     17  N   UNL     1      -3.167   1.412  25.035  0.00  0.00    -0.203 NA
ATOM     18  C   UNL     1      -2.472   1.855  25.012  0.00  0.00    +0.131 C 
ATOM     19  C   UNL     1      -1.692   1.588  24.979  0.00  0.00    +0.080 C 
ENDROOT
BRANCH   6   7
ATOM      7  C   UNL     1      -3.576  -1.144  25.031  0.00  0.00    +0.100 C 
BRANCH   7   8
ATOM      8  C   UNL     1      -3.701  -1.883  24.686  0.00  0.00    -0.006 A 
ATOM      9  C   UNL     1      -3.451  -2.567  25.074  0.00  0.00    -0.003 A 
ATOM     10  C   UNL     1      -3.576  -3.305  24.728  0.00  0.00    -0.000 A 
ATOM     11  C   UNL     1      -3.950  -3.360  23.995  0.00  0.00    -0.000 A 
ATOM     12  C   UNL     1      -4.199  -2.675  23.607  0.00  0.00    -0.000 A 
ATOM     13  C   UNL     1      -4.075  -1.937  23.952  0.00  0.00    -0.003 A 
ENDBRANCH   7   8
ENDBRANCH   6   7
BRANCH  19  20
ATOM     20  C   UNL     1      -1.113   2.176  24.962  0.00  0.00    +0.027 C 
BRANCH  20  21
ATOM     21  C   UNL     1      -1.324   2.965  25.079  0.00  0.00    +0.087 C 
BRANCH  21  22
ATOM     22  C   UNL     1      -0.816   3.568  24.835  0.00  0.00    +0.226 C 
ATOM     23  O   UNL     1      -0.085   3.382  24.500  0.00  0.00    -0.275 OA
ATOM     24  N   UNL     1      -1.039   4.357  24.925  0.00  0.00    -0.274 N 
ATOM     25  C   UNL     1      -0.531   4.960  24.681  0.00  0.00    +0.125 C 
ATOM     26  C   UNL     1      -0.755   5.749  24.771  0.00  0.00    +0.164 C 
ATOM     27  O   UNL     1      -1.486   5.935  25.105  0.00  0.00    -0.350 OA
ATOM     28  C   UNL     1      -1.993   5.333  25.349  0.00  0.00    +0.164 C 
ATOM     29  C   UNL     1      -1.770   4.543  25.259  0.00  0.00    +0.125 C 
ENDBRANCH  21  22
ENDBRANCH  20  21
ENDBRANCH  19  20
TORSDOF 5
ENDMDL
MODEL 3
REMARK VINA RESULT:      -9.4      1.546      1.836
REMARK  Name = 
REMARK  5 active torsions:
REMARK  status: ('A' for Active; 'I' for Inactive)
REMARK    1  A    between atoms: N_6  and  C_7
REMARK    2  A    between atoms: C_7  and  C_8
REMARK    3  A    between atoms: C_19  and  C_20
REMARK    4  A    between atoms: C_20  and  C_21
REMARK    5  A    between atoms: C_21  and  C_22
REMARK                            x       y       z     vdW  Elec       q    Type
REMARK                         _______ _______ _______ _____ _____    ______ ____
ROOT
ATOM      1  C   UNL     1      -4.283   1.627  24.295  0.00  0.00    +0.090 C 
ATOM      2  N   UNL     1      -3.528   1.554  24.623  0.00  0.00    -0.271 NA
ATOM      3  C   UNL     1      -3.139   2.263  24.785  0.00  0.00    +0.083 C 
ATOM      4  C   UNL     1      -3.466   3.006  24.638  0.00  0.00    +0.035 C 
ATOM      5  C   UNL     1      -2.918   3.577  24.870  0.00  0.00    +0.074 C 
ATOM      6  N   UNL     1      -2.252   3.187  25.162  0.00  0.00    -0.262 NA
ATOM     14  C   UNL     1      -2.388   2.375  25.109  0.00  0.00    +0.151 C 
ATOM     15  C   UNL     1      -1.842   1.805  25.350  0.00  0.00    +0.257 C 
ATOM     16  O   UNL     1      -1.132   2.097  25.655  0.00  0.00    -0.272 OA
ATOM     17  N   UNL     1      -1.911   0.984  25.327  0.00  0.00    -0.203 NA
ATOM     18  C   UNL     1      -2.544   0.528  25.056  0.00  0.00    +0.131 C 
ATOM     19  C   UNL     1      -3.264   0.782  24.743  0.00  0.00    +0.080 C 
ENDROOT
BRANCH   6   7
ATOM      7  C   UNL     1      -1.568   3.546  25.454  0.00  0.00    +0.100 C 
BRANCH   7   8
ATOM      8  C   UNL     1      -1.360   4.303  25.201  0.00  0.00    -0.006 A 
ATOM      9  C   UNL     1      -1.807   4.955  25.435  0.00  0.00    -0.003 A 
ATOM     10  C   UNL     1      -1.598   5.710  25.181  0.00  0.00    -0.000 A 
ATOM     11  C   UNL     1      -0.942   5.816  24.694  0.00  0.00    -0.000 A 
ATOM     12  C   UNL     1      -0.494   5.163  24.459  0.00  0.00    -0.000 A 
ATOM     13  C   UNL     1      -0.703   4.407  24.713  0.00  0.00    -0.003 A 
ENDBRANCH   7   8
ENDBRANCH   6   7
BRANCH  19  20
ATOM     20  C   UNL     1      -3.788   0.185  24.521  0.00  0.00    +0.027 C 
BRANCH  20  21
ATOM     21  C   UNL     1      -3.567  -0.607  24.599  0.00  0.00    +0.087 C 
BRANCH  21  22
ATOM     22  C   UNL     1      -4.048  -1.201  24.287  0.00  0.00    +0.226 C 
ATOM     23  O   UNL     1      -4.793  -1.014  23.986  0.00  0.00    -0.275 OA
ATOM     24  N   UNL     1      -3.782  -1.982  24.277  0.00  0.00    -0.274 N 
ATOM     25  C   UNL     1      -4.263  -2.576  23.965  0.00  0.00    +0.125 C 
ATOM     26  C   UNL     1      -3.997  -3.358  23.954  0.00  0.00    +0.164 C 
ATOM     27  O   UNL     1      -3.252  -3.544  24.255  0.00  0.00    -0.350 OA
ATOM     28  C   UNL     1      -2.772  -2.950  24.566  0.00  0.00    +0.164 C 
ATOM     29  C   UNL     1      -3.038  -2.169  24.577  0.00  0.00    +0.125 C 
ENDBRANCH  21  22
ENDBRANCH  20  21
ENDBRANCH  19  20
TORSDOF 5
ENDMDL
MODEL 4
REMARK VINA RESULT:      -8.9      3.019      4.279
REMARK  Name = 
REMARK  5 active torsions:
REMARK  status: ('A' for Active; 'I' for Inactive)
REMARK    1  A    between atoms: N_6  and  C_7
REMARK    2  A    between atoms: C_7  and  C_8
REMARK    3  A    between atoms: C_19  and  C_20
REMARK    4  A    between atoms: C_20  and  C_21
REMARK    5  A    between atoms: C_21  and  C_22
REMARK                            x       y       z     vdW  Elec       q    Type
REMARK                         _______ _______ _______ _____ _____    ______ ____
ROOT
ATOM      1  C   UNL     1      -1.546  -0.331  24.707  0.00  0.00    +0.090 C 
ATOM      2  N   UNL     1      -1.688   0.406  24.364  0.00  0.00    -0.271 NA
ATOM      3  C   UNL     1      -2.427   0.737  24.520  0.00  0.00    +0.083 C 
ATOM      4  C   UNL     1      -3.000   0.369  24.986  0.00  0.00    +0.035 C 
ATOM      5  C   UNL     1      -3.661   0.862  25.016  0.00  0.00    +0.074 C 
ATOM      6  N   UNL     1      -3.496   1.536  24.568  0.00  0.00    -0.262 NA
ATOM     14  C   UNL     1      -2.733   1.458  24.262  0.00  0.00    +0.151 C 
ATOM     15  C   UNL     1      -2.375   2.026  23.783  0.00  0.00    +0.257 C 
ATOM     16  O   UNL     1      -2.830   2.696  23.621  0.00  0.00    -0.272 OA
ATOM     17  N   UNL     1      -1.623   2.015  23.445  0.00  0.00    -0.203 NA
ATOM     18  C   UNL     1      -1.042   1.430  23.502  0.00  0.00    +0.131 C 
ATOM     19  C   UNL     1      -1.071   0.715  23.911  0.00  0.00    +0.080 C 
ENDROOT
BRANCH   6   7
ATOM      7  C   UNL     1      -4.004   2.175  24.447  0.00  0.00    +0.100 C 
BRANCH   7   8
ATOM      8  C   UNL     1      -4.707   2.228  24.875  0.00  0.00    -0.006 A 
ATOM      9  C   UNL     1      -5.371   1.802  24.633  0.00  0.00    -0.003 A 
ATOM     10  C   UNL     1      -6.073   1.856  25.060  0.00  0.00    -0.000 A 
ATOM     11  C   UNL     1      -6.114   2.336  25.730  0.00  0.00    -0.000 A 
ATOM     12  C   UNL     1      -5.449   2.762  25.972  0.00  0.00    -0.000 A 
ATOM     13  C   UNL     1      -4.747   2.708  25.545  0.00  0.00    -0.003 A 
ENDBRANCH   7   8
ENDBRANCH   6   7
BRANCH  19  20
ATOM     20  C   UNL     1      -0.394   0.246  23.860  0.00  0.00    +0.027 C 
BRANCH  20  21
ATOM     21  C   UNL     1       0.288   0.545  23.505  0.00  0.00    +0.087 C 
BRANCH  21  22
ATOM     22  C   UNL     1       0.821   0.032  23.139  0.00  0.00    +0.226 C 
ATOM     23  O   UNL     1       0.574  -0.719  22.902  0.00  0.00    -0.275 OA
ATOM     24  N   UNL     1       1.600   0.271  23.010  0.00  0.00    -0.274 N 
ATOM     25  C   UNL     1       2.133  -0.242  22.644  0.00  0.00    +0.125 C 
ATOM     26  C   UNL     1       2.912  -0.003  22.515  0.00  0.00    +0.164 C 
ATOM     27  O   UNL     1       3.159   0.748  22.752  0.00  0.00    -0.350 OA
ATOM     28  C   UNL     1       2.626   1.260  23.118  0.00  0.00    +0.164 C 
ATOM     29  C   UNL     1       1.846   1.021  23.247  0.00  0.00    +0.125 C 
ENDBRANCH  21  22
ENDBRANCH  20  21
ENDBRANCH  19  20
TORSDOF 5
ENDMDL
