MODEL 1
REMARK VINA RESULT:      -9.3      0.000      0.000
REMARK  Name = 
REMARK  7 active torsions:
REMARK  status: ('A' for Active; 'I' for Inactive)
REMARK    1  A    between atoms: C_2  and  C_4
REMARK    2  A    between atoms: C_6  and  C_7
REMARK    3  A    between atoms: C_7  and  C_8
REMARK    4  A    between atoms: C_19  and  C_20
REMARK    5  A    between atoms: C_20  and  N_21
REMARK    6  A    between atoms: C_22  and  C_24
REMARK    7  A    between atoms: C_27  and  N_28
REMARK                            x       y       z     vdW  Elec       q    Type
REMARK                         _______ _______ _______ _____ _____    ______ ____
ROOT
ATOM      4  C   UNL     1      -2.230   0.425  24.754  0.00  0.00    +0.006 C 
ATOM      5  C   UNL     1      -2.861   0.951  24.838  0.00  0.00    +0.005 C 
ATOM      6  C   UNL     1      -2.958   1.567  24.299  0.00  0.00    +0.027 C 
ATOM     16  C   UNL     1      -2.425   1.659  23.675  0.00  0.00    -0.048 C 
ATOM     17  C   UNL     1      -2.523   2.276  23.136  0.00  0.00    +0.026 C 
ATOM     18  C   UNL     1      -1.795   1.133  23.591  0.00  0.00    -0.033 C 
ATOM     19  C   UNL     1      -1.697   0.516  24.130  0.00  0.00    +0.043 C 
ENDROOT
BRANCH   4   2
ATOM      1  C   UNL     1      -2.487  -0.923  25.151  0.00  0.00    +0.000 C 
ATOM      2  C   UNL     1      -2.132  -0.192  25.293  0.00  0.00    +0.000 C 
ATOM      3  C   UNL     1      -1.680  -0.077  25.973  0.00  0.00    +0.000 C 
ENDBRANCH   4   2
BRANCH   6   7
ATOM      7  C   UNL     1      -3.588   2.093  24.383  0.00  0.00    +0.089 C 
BRANCH   7   8
ATOM      8  C   UNL     1      -4.339   1.811  24.578  0.00  0.00    +0.226 C 
ATOM      9  O   UNL     1      -4.585   1.073  24.306  0.00  0.00    -0.275 OA
ATOM     10  N   UNL     1      -4.841   2.267  25.046  0.00  0.00    -0.274 N 
ATOM     11  C   UNL     1      -4.595   3.006  25.319  0.00  0.00    +0.125 C 
ATOM     12  C   UNL     1      -5.098   3.462  25.786  0.00  0.00    +0.164 C 
ATOM     13  O   UNL     1      -5.849   3.180  25.982  0.00  0.00    -0.350 OA
ATOM     14  C   UNL     1      -6.096   2.442  25.709  0.00  0.00    +0.164 C 
ATOM     15  C   UNL     1      -5.593   1.985  25.241  0.00  0.00    +0.125 C 
ENDBRANCH   7   8
ENDBRANCH   6   7
BRANCH  19  20
ATOM     20  C   UNL     1      -1.067  -0.009  24.046  0.00  0.00    +0.120 C 
BRANCH  20  21
ATOM     21  N   UNL     1      -0.334   0.265  23.786  0.00  0.00    -0.201 NA
ATOM     22  C   UNL     1       0.244  -0.269  23.542  0.00  0.00    +0.265 C 
ATOM     23  O   UNL     1       0.090  -1.080  23.557  0.00  0.00    -0.268 OA
BRANCH  22  24
ATOM     24  C   UNL     1       0.977   0.006  23.281  0.00  0.00    +0.055 A 
ATOM     25  C   UNL     1       1.352   0.623  23.681  0.00  0.00    +0.006 A 
ATOM     26  C   UNL     1       2.085   0.897  23.421  0.00  0.00    +0.017 A 
ATOM     27  C   UNL     1       2.444   0.556  22.761  0.00  0.00    +0.073 A 
ATOM     32  C   UNL     1       2.069  -0.061  22.361  0.00  0.00    +0.017 A 
ATOM     33  C   UNL     1       1.335  -0.336  22.622  0.00  0.00    +0.006 A 
BRANCH  27  28
ATOM     28  N   UNL     1       3.176   0.830  22.501  0.00  0.00    -0.179 NA
ATOM     29  C   UNL     1       3.870   0.469  22.763  0.00  0.00    +0.246 C 
ATOM     30  C   UNL     1       4.602   0.743  22.503  0.00  0.00    +0.097 C 
ATOM     31  O   UNL     1       3.830  -0.168  23.286  0.00  0.00    -0.273 OA
ENDBRANCH  27  28
ENDBRANCH  22  24
ENDBRANCH  20  21
ENDBRANCH  19  20
TORSDOF 7
ENDMDL
MODEL 2
REMARK VINA RESULT:      -9.3      1.106      6.439
REMARK  Name = 
REMARK  7 active torsions:
REMARK  status: ('A' for Active; 'I' for Inactive)
REMARK    1  A    between atoms: C_2  and  C_4
REMARK    2  A    between atoms: C_6  and  C_7
REMARK    3  A    between atoms: C_7  and  C_8
REMARK    4  A    between atoms: C_19  and  C_20
REMARK    5  A    between atoms: C_20  and  N_21
REMARK    6  A    between atoms: C_22  and  C_24
REMARK    7  A    between atoms: C_27  and  N_28
REMARK                            x       y       z     vdW  Elec       q    Type
REMARK                         _______ _______ _______ _____ _____    ______ ____
ROOT
ATOM      4  C   UNL     1      -0.868  -0.581  24.384  0.00  0.00    +0.006 C 
ATOM      5  C   UNL     1      -0.095  -0.406  24.151  0.00  0.00    +0.005 C 
ATOM      6  C   UNL     1       0.086   0.341  23.853  0.00  0.00    +0.027 C 
ATOM     16  C   UNL     1      -0.504   0.914  23.787  0.00  0.00    -0.048 C 
ATOM     17  C   UNL     1      -0.323   1.661  23.489  0.00  0.00    +0.026 C 
ATOM     18  C   UNL     1      -1.277   0.739  24.020  0.00  0.00    -0.033 C 
ATOM     19  C   UNL     1      -1.459  -0.008  24.317  0.00  0.00    +0.043 C 
ENDROOT
BRANCH   4   2
ATOM      1  C   UNL     1      -1.355  -1.909  24.181  0.00  0.00    +0.000 C 
ATOM      2  C   UNL     1      -1.050  -1.328  24.682  0.00  0.00    +0.000 C 
ATOM      3  C   UNL     1      -0.927  -1.494  25.481  0.00  0.00    +0.000 C 
ENDBRANCH   4   2
BRANCH   6   7
ATOM      7  C   UNL     1       0.858   0.516  23.621  0.00  0.00    +0.089 C 
BRANCH   7   8
ATOM      8  C   UNL     1       1.191   0.132  22.972  0.00  0.00    +0.226 C 
ATOM      9  O   UNL     1       0.735  -0.385  22.520  0.00  0.00    -0.275 OA
ATOM     10  N   UNL     1       1.981   0.265  22.775  0.00  0.00    -0.274 N 
ATOM     11  C   UNL     1       2.438   0.782  23.227  0.00  0.00    +0.125 C 
ATOM     12  C   UNL     1       3.227   0.915  23.030  0.00  0.00    +0.164 C 
ATOM     13  O   UNL     1       3.561   0.530  22.380  0.00  0.00    -0.350 OA
ATOM     14  C   UNL     1       3.105   0.013  21.929  0.00  0.00    +0.164 C 
ATOM     15  C   UNL     1       2.315  -0.120  22.125  0.00  0.00    +0.125 C 
ENDBRANCH   7   8
ENDBRANCH   6   7
BRANCH  19  20
ATOM     20  C   UNL     1      -2.231  -0.183  24.550  0.00  0.00    +0.120 C 
BRANCH  20  21
ATOM     21  N   UNL     1      -2.768   0.428  24.686  0.00  0.00    -0.201 NA
ATOM     22  C   UNL     1      -3.577   0.289  24.613  0.00  0.00    +0.265 C 
ATOM     23  O   UNL     1      -3.851  -0.460  24.403  0.00  0.00    -0.268 OA
BRANCH  22  24
ATOM     24  C   UNL     1      -4.114   0.901  24.750  0.00  0.00    +0.055 A 
ATOM     25  C   UNL     1      -4.125   1.560  24.253  0.00  0.00    +0.006 A 
ATOM     26  C   UNL     1      -4.662   2.170  24.390  0.00  0.00    +0.017 A 
ATOM     27  C   UNL     1      -5.188   2.124  25.024  0.00  0.00    +0.073 A 
ATOM     32  C   UNL     1      -5.178   1.465  25.521  0.00  0.00    +0.017 A 
ATOM     33  C   UNL     1      -4.640   0.853  25.384  0.00  0.00    +0.006 A 
BRANCH  27  28
ATOM     28  N   UNL     1      -5.725   2.734  25.161  0.00  0.00    -0.179 NA
ATOM     29  C   UNL     1      -5.478   3.425  25.539  0.00  0.00    +0.246 C 
ATOM     30  C   UNL     1      -6.014   4.035  25.676  0.00  0.00    +0.097 C 
ATOM     31  O   UNL     1      -4.693   3.504  25.780  0.00  0.00    -0.273 OA
ENDBRANCH  27  28
ENDBRANCH  22  24
ENDBRANCH  20  21
ENDBRANCH  19  20
TORSDOF 7
ENDMDL
MODEL 3
REMARK VINA RESULT:      -5.9     15.239     16.136
REMARK  Name = 
REMARK  7 active torsions:
REMARK  status: ('A' for Active; 'I' for Inactive)
REMARK    1  A    between atoms: C_2  and  C_4
REMARK    2  A    between atoms: C_6  and  C_7
REMARK    3  A    between atoms: C_7  and  C_8
REMARK    4  A    between atoms: C_19  and  C_20
REMARK    5  A    between atoms: C_20  and  N_21
REMARK    6  A    between atoms: C_22  and  C_24
REMARK    7  A    between atoms: C_27  and  N_28
REMARK                            x       y       z     vdW  Elec       q    Type
REMARK                         _______ _______ _______ _____ _____    ______ ____
ROOT
ATOM      4  C   UNL     1      -9.043  -9.949  14.523  0.00  0.00    +0.006 C 
ATOM      5  C   UNL     1      -9.164  -9.982  15.340  0.00  0.00    +0.005 C 
ATOM      6  C   UNL     1      -8.522  -9.922  15.853  0.00  0.00    +0.027 C 
ATOM     16  C   UNL     1      -7.759  -9.828  15.552  0.00  0.00    -0.048 C 
ATOM     17  C   UNL     1      -7.117  -9.768  16.067  0.00  0.00    +0.026 C 
ATOM     18  C   UNL     1      -7.639  -9.795  14.736  0.00  0.00    -0.033 C 
ATOM     19  C   UNL     1      -8.280  -9.855  14.222  0.00  0.00    +0.043 C 
ENDROOT
BRANCH   4   2
ATOM      1  C   UNL     1      -9.953 -10.752  13.769  0.00  0.00    +0.000 C 
ATOM      2  C   UNL     1      -9.686 -10.009  14.009  0.00  0.00    +0.000 C 
ATOM      3  C   UNL     1     -10.060  -9.326  13.735  0.00  0.00    +0.000 C 
ENDBRANCH   4   2
BRANCH   6   7
ATOM      7  C   UNL     1      -8.642  -9.956  16.669  0.00  0.00    +0.089 C 
BRANCH   7   8
ATOM      8  C   UNL     1      -9.217  -9.482  17.022  0.00  0.00    +0.226 C 
ATOM      9  O   UNL     1      -9.379  -8.734  16.716  0.00  0.00    -0.275 OA
ATOM     10  N   UNL     1      -9.631  -9.757  17.680  0.00  0.00    -0.274 N 
ATOM     11  C   UNL     1      -9.469 -10.506  17.986  0.00  0.00    +0.125 C 
ATOM     12  C   UNL     1      -9.882 -10.781  18.644  0.00  0.00    +0.164 C 
ATOM     13  O   UNL     1     -10.459 -10.307  18.998  0.00  0.00    -0.350 OA
ATOM     14  C   UNL     1     -10.620  -9.558  18.692  0.00  0.00    +0.164 C 
ATOM     15  C   UNL     1     -10.207  -9.282  18.034  0.00  0.00    +0.125 C 
ENDBRANCH   7   8
ENDBRANCH   6   7
BRANCH  19  20
ATOM     20  C   UNL     1      -8.161  -9.821  13.407  0.00  0.00    +0.120 C 
BRANCH  20  21
ATOM     21  N   UNL     1      -7.399  -9.721  13.106  0.00  0.00    -0.201 NA
ATOM     22  C   UNL     1      -7.276  -9.703  12.292  0.00  0.00    +0.265 C 
ATOM     23  O   UNL     1      -7.914  -9.784  11.776  0.00  0.00    -0.268 OA
BRANCH  22  24
ATOM     24  C   UNL     1      -6.513  -9.603  11.992  0.00  0.00    +0.055 A 
ATOM     25  C   UNL     1      -6.251  -8.853  11.772  0.00  0.00    +0.006 A 
ATOM     26  C   UNL     1      -5.489  -8.753  11.472  0.00  0.00    +0.017 A 
ATOM     27  C   UNL     1      -4.989  -9.405  11.392  0.00  0.00    +0.073 A 
ATOM     32  C   UNL     1      -5.251 -10.155  11.612  0.00  0.00    +0.017 A 
ATOM     33  C   UNL     1      -6.014 -10.255  11.912  0.00  0.00    +0.006 A 
BRANCH  27  28
ATOM     28  N   UNL     1      -4.227  -9.305  11.093  0.00  0.00    -0.179 NA
ATOM     29  C   UNL     1      -4.099  -9.315  10.277  0.00  0.00    +0.246 C 
ATOM     30  C   UNL     1      -3.338  -9.216   9.978  0.00  0.00    +0.097 C 
ATOM     31  O   UNL     1      -4.734  -9.425   9.762  0.00  0.00    -0.273 OA
ENDBRANCH  27  28
ENDBRANCH  22  24
ENDBRANCH  20  21
ENDBRANCH  19  20
TORSDOF 7
ENDMDL
MODEL 4
REMARK VINA RESULT:      -5.5     14.849     15.942
REMARK  Name = 
REMARK  7 active torsions:
REMARK  status: ('A' for Active; 'I' for Inactive)
REMARK    1  A    between atoms: C_2  and  C_4
REMARK    2  A    between atoms: C_6  and  C_7
REMARK    3  A    between atoms: C_7  and  C_8
REMARK    4  A    between atoms: C_19  and  C_20
REMARK    5  A    between atoms: C_20  and  N_21
REMARK    6  A    between atoms: C_22  and  C_24
REMARK    7  A    between atoms: C_27  and  N_28
REMARK                            x       y       z     vdW  Elec       q    Type
REMARK                         _______ _______ _______ _____ _____    ______ ____
ROOT
ATOM      4  C   UNL     1      -7.596 -10.040  15.070  0.00  0.00    +0.006 C 
ATOM      5  C   UNL     1      -7.352 -10.145  15.851  0.00  0.00    +0.005 C 
ATOM      6  C   UNL     1      -6.550 -10.124  16.040  0.00  0.00    +0.027 C 
ATOM     16  C   UNL     1      -5.990  -9.999  15.446  0.00  0.00    -0.048 C 
ATOM     17  C   UNL     1      -5.187  -9.978  15.634  0.00  0.00    +0.026 C 
ATOM     18  C   UNL     1      -6.234  -9.893  14.664  0.00  0.00    -0.033 C 
ATOM     19  C   UNL     1      -7.036  -9.914  14.476  0.00  0.00    +0.043 C 
ENDROOT
BRANCH   4   2
ATOM      1  C   UNL     1      -8.835  -9.360  14.860  0.00  0.00    +0.000 C 
ATOM      2  C   UNL     1      -8.399 -10.061  14.881  0.00  0.00    +0.000 C 
ATOM      3  C   UNL     1      -8.764 -10.781  14.714  0.00  0.00    +0.000 C 
ENDBRANCH   4   2
BRANCH   6   7
ATOM      7  C   UNL     1      -6.306 -10.229  16.820  0.00  0.00    +0.089 C 
BRANCH   7   8
ATOM      8  C   UNL     1      -6.748  -9.907  17.438  0.00  0.00    +0.226 C 
ATOM      9  O   UNL     1      -7.379  -9.402  17.274  0.00  0.00    -0.275 OA
ATOM     10  N   UNL     1      -6.560 -10.091  18.219  0.00  0.00    -0.274 N 
ATOM     11  C   UNL     1      -5.929 -10.597  18.384  0.00  0.00    +0.125 C 
ATOM     12  C   UNL     1      -5.740 -10.781  19.165  0.00  0.00    +0.164 C 
ATOM     13  O   UNL     1      -6.183 -10.458  19.784  0.00  0.00    -0.350 OA
ATOM     14  C   UNL     1      -6.813  -9.953  19.619  0.00  0.00    +0.164 C 
ATOM     15  C   UNL     1      -7.003  -9.769  18.838  0.00  0.00    +0.125 C 
ENDBRANCH   7   8
ENDBRANCH   6   7
BRANCH  19  20
ATOM     20  C   UNL     1      -7.280  -9.809  13.695  0.00  0.00    +0.120 C 
BRANCH  20  21
ATOM     21  N   UNL     1      -6.718  -9.729  13.096  0.00  0.00    -0.201 NA
ATOM     22  C   UNL     1      -6.959  -9.582  12.322  0.00  0.00    +0.265 C 
ATOM     23  O   UNL     1      -7.762  -9.516  12.145  0.00  0.00    -0.268 OA
BRANCH  22  24
ATOM     24  C   UNL     1      -6.397  -9.502  11.723  0.00  0.00    +0.055 A 
ATOM     25  C   UNL     1      -6.114 -10.170  11.330  0.00  0.00    +0.006 A 
ATOM     26  C   UNL     1      -5.553 -10.090  10.731  0.00  0.00    +0.017 A 
ATOM     27  C   UNL     1      -5.273  -9.341  10.525  0.00  0.00    +0.073 A 
ATOM     32  C   UNL     1      -5.555  -8.673  10.918  0.00  0.00    +0.017 A 
ATOM     33  C   UNL     1      -6.118  -8.753  11.518  0.00  0.00    +0.006 A 
BRANCH  27  28
ATOM     28  N   UNL     1      -4.711  -9.261   9.927  0.00  0.00    -0.179 NA
ATOM     29  C   UNL     1      -4.952  -9.194   9.141  0.00  0.00    +0.246 C 
ATOM     30  C   UNL     1      -4.391  -9.114   8.542  0.00  0.00    +0.097 C 
ATOM     31  O   UNL     1      -5.755  -9.208   8.953  0.00  0.00    -0.273 OA
ENDBRANCH  27  28
ENDBRANCH  22  24
ENDBRANCH  20  21
ENDBRANCH  19  20
TORSDOF 7
ENDMDL
