MODEL 1
REMARK VINA RESULT:     -15.6      0.000      0.000
REMARK  Name = 
REMARK  6 active torsions:
REMARK  status: ('A' for Active; 'I' for Inactive)
REMARK    1  A    between atoms: C_2  and  C_27
REMARK    2  A    between atoms: N_3  and  C_4
REMARK    3  A    between atoms: N_12  and  C_13
REMARK    4  A    between atoms: C_13  and  C_14
REMARK    5  A    between atoms: C_14  and  C_15
REMARK    6  A    between atoms: C_15  and  C_16
REMARK                            x       y       z     vdW  Elec       q    Type
REMARK                         _______ _______ _______ _____ _____    ______ ____
ROOT
ATOM      4  C   UNL     1      -3.131   2.491  24.021  0.00  0.00    +0.129 A 
ATOM      5  C   UNL     1      -3.334   3.283  24.134  0.00  0.00    +0.023 A 
ATOM      6  C   UNL     1      -4.027   3.478  24.537  0.00  0.00    +0.014 A 
ATOM      7  C   UNL     1      -4.517   2.881  24.827  0.00  0.00    +0.041 A 
ATOM      8  C   UNL     1      -5.303   2.764  25.287  0.00  0.00    +0.054 C 
ATOM      9  C   UNL     1      -5.824   3.126  25.588  0.00  0.00    +0.011 C 
ATOM     10  C   UNL     1      -5.620   2.345  25.475  0.00  0.00    +0.039 C 
ATOM     11  C   UNL     1      -5.548   1.360  25.440  0.00  0.00    +0.074 C 
ATOM     12  N   UNL     1      -4.829   1.287  25.021  0.00  0.00    -0.272 NA
ATOM     22  C   UNL     1      -5.248   1.811  25.261  0.00  0.00    +0.078 C 
ATOM     23  C   UNL     1      -4.797   2.457  24.994  0.00  0.00    +0.110 C 
ATOM     24  N   UNL     1      -4.313   2.089  24.714  0.00  0.00    -0.298 N 
ATOM     25  C   UNL     1      -3.621   1.894  24.311  0.00  0.00    +0.276 A 
ATOM     26  O   UNL     1      -3.417   1.102  24.198  0.00  0.00    -0.266 OA
ENDROOT
BRANCH   4   3
ATOM      1  O   UNL     1      -1.014   2.356  23.502  0.00  0.00    -0.273 OA
ATOM      2  C   UNL     1      -1.708   2.550  23.906  0.00  0.00    +0.245 C 
ATOM      3  N   UNL     1      -2.438   2.297  23.618  0.00  0.00    -0.174 NA
BRANCH   2  27
ATOM     27  C   UNL     1      -1.670   2.998  24.598  0.00  0.00    +0.079 C 
ATOM     28  C   UNL     1      -1.545   2.625  25.324  0.00  0.00    +0.009 C 
ATOM     29  C   UNL     1      -1.508   3.073  26.016  0.00  0.00    +0.000 C 
ATOM     30  C   UNL     1      -1.595   3.892  25.982  0.00  0.00    +0.000 C 
ATOM     31  C   UNL     1      -1.721   4.265  25.256  0.00  0.00    +0.000 C 
ATOM     32  C   UNL     1      -1.758   3.817  24.564  0.00  0.00    +0.009 C 
ENDBRANCH   2  27
ENDBRANCH   4   3
BRANCH  12  13
ATOM     13  C   UNL     1      -4.189   0.923  24.649  0.00  0.00    +0.072 C 
BRANCH  13  14
ATOM     14  C   UNL     1      -4.032   0.125  24.786  0.00  0.00    +0.022 C 
BRANCH  14  15
ATOM     15  C   UNL     1      -3.944  -0.393  24.149  0.00  0.00    +0.028 C 
BRANCH  15  16
ATOM     16  C   UNL     1      -3.851  -1.202  24.285  0.00  0.00    -0.022 A 
ATOM     17  C   UNL     1      -3.349  -1.464  24.884  0.00  0.00    -0.004 A 
ATOM     18  C   UNL     1      -3.256  -2.273  25.020  0.00  0.00    -0.000 A 
ATOM     19  C   UNL     1      -3.666  -2.818  24.556  0.00  0.00    -0.000 A 
ATOM     20  C   UNL     1      -4.168  -2.556  23.957  0.00  0.00    -0.000 A 
ATOM     21  C   UNL     1      -4.261  -1.747  23.821  0.00  0.00    -0.004 A 
ENDBRANCH  15  16
ENDBRANCH  14  15
ENDBRANCH  13  14
ENDBRANCH  12  13
TORSDOF 6
ENDMDL
MODEL 2
REMARK VINA RESULT:     -14.7      1.039      4.149
REMARK  Name = 
REMARK  6 active torsions:
REMARK  status: ('A' for Active; 'I' for Inactive)
REMARK    1  A    between atoms: C_2  and  C_27
REMARK    2  A    between atoms: N_3  and  C_4
REMARK    3  A    between atoms: N_12  and  C_13
REMARK    4  A    between atoms: C_13  and  C_14
REMARK    5  A    between atoms: C_14  and  C_15
REMARK    6  A    between atoms: C_15  and  C_16
REMARK                            x       y       z     vdW  Elec       q    Type
REMARK                         _______ _______ _______ _____ _____    ______ ____
ROOT
ATOM      4  C   UNL     1      -3.294   0.604  24.246  0.00  0.00    +0.129 A 
ATOM      5  C   UNL     1      -3.931   0.085  24.170  0.00  0.00    +0.023 A 
ATOM      6  C   UNL     1      -4.687   0.323  24.402  0.00  0.00    +0.014 A 
ATOM      7  C   UNL     1      -4.804   1.079  24.710  0.00  0.00    +0.041 A 
ATOM      8  C   UNL     1      -5.471   1.619  25.039  0.00  0.00    +0.054 C 
ATOM      9  C   UNL     1      -6.160   1.625  25.172  0.00  0.00    +0.011 C 
ATOM     10  C   UNL     1      -5.529   2.134  25.245  0.00  0.00    +0.039 C 
ATOM     11  C   UNL     1      -4.904   2.882  25.410  0.00  0.00    +0.074 C 
ATOM     12  N   UNL     1      -4.193   2.532  25.144  0.00  0.00    -0.272 NA
ATOM     22  C   UNL     1      -4.880   2.351  25.204  0.00  0.00    +0.078 C 
ATOM     23  C   UNL     1      -4.826   1.577  24.902  0.00  0.00    +0.110 C 
ATOM     24  N   UNL     1      -4.167   1.597  24.786  0.00  0.00    -0.298 N 
ATOM     25  C   UNL     1      -3.412   1.360  24.554  0.00  0.00    +0.276 A 
ATOM     26  O   UNL     1      -2.775   1.878  24.629  0.00  0.00    -0.266 OA
ENDROOT
BRANCH   4   3
ATOM      1  O   UNL     1      -1.451  -0.558  24.099  0.00  0.00    -0.273 OA
ATOM      2  C   UNL     1      -2.207  -0.319  24.331  0.00  0.00    +0.245 C 
ATOM      3  N   UNL     1      -2.540   0.365  24.014  0.00  0.00    -0.174 NA
BRANCH   2  27
ATOM     27  C   UNL     1      -2.629  -0.767  24.882  0.00  0.00    +0.079 C 
ATOM     28  C   UNL     1      -3.145  -1.357  24.624  0.00  0.00    +0.009 C 
ATOM     29  C   UNL     1      -3.567  -1.804  25.174  0.00  0.00    +0.000 C 
ATOM     30  C   UNL     1      -3.474  -1.661  25.980  0.00  0.00    +0.000 C 
ATOM     31  C   UNL     1      -2.958  -1.070  26.238  0.00  0.00    +0.000 C 
ATOM     32  C   UNL     1      -2.535  -0.623  25.688  0.00  0.00    +0.009 C 
ENDBRANCH   2  27
ENDBRANCH   4   3
BRANCH  12  13
ATOM     13  C   UNL     1      -3.391   2.460  24.965  0.00  0.00    +0.072 C 
BRANCH  13  14
ATOM     14  C   UNL     1      -2.930   3.135  24.859  0.00  0.00    +0.022 C 
BRANCH  14  15
ATOM     15  C   UNL     1      -2.301   3.290  25.371  0.00  0.00    +0.028 C 
BRANCH  15  16
ATOM     16  C   UNL     1      -1.798   3.928  25.225  0.00  0.00    -0.022 A 
ATOM     17  C   UNL     1      -1.020   3.792  24.987  0.00  0.00    -0.004 A 
ATOM     18  C   UNL     1      -0.516   4.430  24.841  0.00  0.00    -0.000 A 
ATOM     19  C   UNL     1      -0.792   5.202  24.933  0.00  0.00    -0.000 A 
ATOM     20  C   UNL     1      -1.570   5.337  25.170  0.00  0.00    -0.000 A 
ATOM     21  C   UNL     1      -2.074   4.700  25.317  0.00  0.00    -0.004 A 
ENDBRANCH  15  16
ENDBRANCH  14  15
ENDBRANCH  13  14
ENDBRANCH  12  13
TORSDOF 6
ENDMDL
MODEL 3
REMARK VINA RESULT:     -13.5      2.061      5.401
REMARK  Name = 
REMARK  6 active torsions:
REMARK  status: ('A' for Active; 'I' for Inactive)
REMARK    1  A    between atoms: C_2  and  C_27
REMARK    2  A    between atoms: N_3  and  C_4
REMARK    3  A    between atoms: N_12  and  C_13
REMARK    4  A    between atoms: C_13  and  C_14
REMARK    5  A    between atoms: C_14  and  C_15
REMARK    6  A    between atoms: C_15  and  C_16
REMARK                            x       y       z     vdW  Elec       q    Type
REMARK                         _______ _______ _______ _____ _____    ______ ____
ROOT
ATOM      4  C   UNL     1      -2.012  -0.650  25.519  0.00  0.00    +0.129 A 
ATOM      5  C   UNL     1      -1.764  -1.394  25.264  0.00  0.00    +0.023 A 
ATOM      6  C   UNL     1      -1.152  -1.459  24.715  0.00  0.00    +0.014 A 
ATOM      7  C   UNL     1      -0.788  -0.779  24.421  0.00  0.00    +0.041 A 
ATOM      8  C   UNL     1      -0.124  -0.519  23.841  0.00  0.00    +0.054 C 
ATOM      9  C   UNL     1       0.356  -0.781  23.401  0.00  0.00    +0.011 C 
ATOM     10  C   UNL     1       0.108  -0.047  23.655  0.00  0.00    +0.039 C 
ATOM     11  C   UNL     1      -0.046   0.912  23.837  0.00  0.00    +0.074 C 
ATOM     12  N   UNL     1      -0.669   0.851  24.390  0.00  0.00    -0.272 NA
ATOM     22  C   UNL     1      -0.261   0.412  24.006  0.00  0.00    +0.078 C 
ATOM     23  C   UNL     1      -0.587  -0.310  24.263  0.00  0.00    +0.110 C 
ATOM     24  N   UNL     1      -1.036  -0.035  24.677  0.00  0.00    -0.298 N 
ATOM     25  C   UNL     1      -1.648   0.030  25.226  0.00  0.00    +0.276 A 
ATOM     26  O   UNL     1      -1.897   0.774  25.481  0.00  0.00    -0.266 OA
ENDROOT
BRANCH   4   3
ATOM      1  O   UNL     1      -3.974  -0.854  26.455  0.00  0.00    -0.273 OA
ATOM      2  C   UNL     1      -3.362  -0.918  25.905  0.00  0.00    +0.245 C 
ATOM      3  N   UNL     1      -2.624  -0.586  26.068  0.00  0.00    -0.174 NA
BRANCH   2  27
ATOM     27  C   UNL     1      -3.487  -1.314  25.192  0.00  0.00    +0.079 C 
ATOM     28  C   UNL     1      -3.797  -0.907  24.544  0.00  0.00    +0.009 C 
ATOM     29  C   UNL     1      -3.923  -1.303  23.831  0.00  0.00    +0.000 C 
ATOM     30  C   UNL     1      -3.738  -2.105  23.766  0.00  0.00    +0.000 C 
ATOM     31  C   UNL     1      -3.428  -2.511  24.415  0.00  0.00    +0.000 C 
ATOM     32  C   UNL     1      -3.302  -2.115  25.128  0.00  0.00    +0.009 C 
ENDBRANCH   2  27
ENDBRANCH   4   3
BRANCH  12  13
ATOM     13  C   UNL     1      -1.252   1.093  24.921  0.00  0.00    +0.072 C 
BRANCH  13  14
ATOM     14  C   UNL     1      -1.518   1.873  24.915  0.00  0.00    +0.022 C 
BRANCH  14  15
ATOM     15  C   UNL     1      -1.293   2.391  25.517  0.00  0.00    +0.028 C 
BRANCH  15  16
ATOM     16  C   UNL     1      -1.466   3.196  25.455  0.00  0.00    -0.022 A 
ATOM     17  C   UNL     1      -2.217   3.471  25.652  0.00  0.00    -0.004 A 
ATOM     18  C   UNL     1      -2.391   4.276  25.591  0.00  0.00    -0.000 A 
ATOM     19  C   UNL     1      -1.811   4.803  25.332  0.00  0.00    -0.000 A 
ATOM     20  C   UNL     1      -1.060   4.528  25.135  0.00  0.00    -0.000 A 
ATOM     21  C   UNL     1      -0.887   3.723  25.197  0.00  0.00    -0.004 A 
ENDBRANCH  15  16
ENDBRANCH  14  15
ENDBRANCH  13  14
ENDBRANCH  12  13
TORSDOF 6
ENDMDL
MODEL 4
REMARK VINA RESULT:     -13.5      1.225      2.762
REMARK  Name = 
REMARK  6 active torsions:
REMARK  status: ('A' for Active; 'I' for Inactive)
REMARK    1  A    between atoms: C_2  and  C_27
REMARK    2  A    between atoms: N_3  and  C_4
REMARK    3  A    between atoms: N_12  and  C_13
REMARK    4  A    between atoms: C_13  and  C_14
REMARK    5  A    between atoms: C_14  and  C_15
REMARK    6  A    between atoms: C_15  and  C_16
REMARK                            x       y       z     vdW  Elec       q    Type
REMARK                         _______ _______ _______ _____ _____    ______ ____
ROOT
ATOM      4  C   UNL     1      -2.592   2.316  24.036  0.00  0.00    +0.129 A 
ATOM      5  C   UNL     1      -2.151   2.993  24.206  0.00  0.00    +0.023 A 
ATOM      6  C   UNL     1      -1.499   2.945  24.708  0.00  0.00    +0.014 A 
ATOM      7  C   UNL     1      -1.286   2.220  25.040  0.00  0.00    +0.041 A 
ATOM      8  C   UNL     1      -0.659   1.848  25.599  0.00  0.00    +0.054 C 
ATOM      9  C   UNL     1      -0.096   2.014  25.983  0.00  0.00    +0.011 C 
ATOM     10  C   UNL     1      -0.533   1.348  25.813  0.00  0.00    +0.039 C 
ATOM     11  C   UNL     1      -0.928   0.446  25.730  0.00  0.00    +0.074 C 
ATOM     12  N   UNL     1      -1.561   0.618  25.213  0.00  0.00    -0.272 NA
ATOM     22  C   UNL     1      -1.029   0.970  25.530  0.00  0.00    +0.078 C 
ATOM     23  C   UNL     1      -1.192   1.729  25.227  0.00  0.00    +0.110 C 
ATOM     24  N   UNL     1      -1.727   1.544  24.870  0.00  0.00    -0.298 N 
ATOM     25  C   UNL     1      -2.380   1.592  24.368  0.00  0.00    +0.276 A 
ATOM     26  O   UNL     1      -2.820   0.915  24.197  0.00  0.00    -0.266 OA
ENDROOT
BRANCH   4   3
ATOM      1  O   UNL     1      -4.550   2.870  23.246  0.00  0.00    -0.273 OA
ATOM      2  C   UNL     1      -3.897   2.822  23.749  0.00  0.00    +0.245 C 
ATOM      3  N   UNL     1      -3.244   2.365  23.534  0.00  0.00    -0.174 NA
BRANCH   2  27
ATOM     27  C   UNL     1      -3.897   3.230  24.466  0.00  0.00    +0.079 C 
ATOM     28  C   UNL     1      -4.261   2.898  25.129  0.00  0.00    +0.009 C 
ATOM     29  C   UNL     1      -4.261   3.306  25.846  0.00  0.00    +0.000 C 
ATOM     30  C   UNL     1      -3.898   4.045  25.900  0.00  0.00    +0.000 C 
ATOM     31  C   UNL     1      -3.534   4.376  25.237  0.00  0.00    +0.000 C 
ATOM     32  C   UNL     1      -3.534   3.968  24.520  0.00  0.00    +0.009 C 
ENDBRANCH   2  27
ENDBRANCH   4   3
BRANCH  12  13
ATOM     13  C   UNL     1      -2.228   0.489  24.743  0.00  0.00    +0.072 C 
BRANCH  13  14
ATOM     14  C   UNL     1      -2.462  -0.280  24.562  0.00  0.00    +0.022 C 
BRANCH  14  15
ATOM     15  C   UNL     1      -3.187  -0.566  24.835  0.00  0.00    +0.028 C 
BRANCH  15  16
ATOM     16  C   UNL     1      -3.440  -1.322  24.620  0.00  0.00    -0.022 A 
ATOM     17  C   UNL     1      -4.008  -1.414  24.030  0.00  0.00    -0.004 A 
ATOM     18  C   UNL     1      -4.261  -2.169  23.815  0.00  0.00    -0.000 A 
ATOM     19  C   UNL     1      -3.945  -2.832  24.191  0.00  0.00    -0.000 A 
ATOM     20  C   UNL     1      -3.377  -2.740  24.781  0.00  0.00    -0.000 A 
ATOM     21  C   UNL     1      -3.124  -1.984  24.996  0.00  0.00    -0.004 A 
ENDBRANCH  15  16
ENDBRANCH  14  15
ENDBRANCH  13  14
ENDBRANCH  12  13
TORSDOF 6
ENDMDL
MODEL 5
REMARK VINA RESULT:     -13.4      1.818      4.141
REMARK  Name = 
REMARK  6 active torsions:
REMARK  status: ('A' for Active; 'I' for Inactive)
REMARK    1  A    between atoms: C_2  and  C_27
REMARK    2  A    between atoms: N_3  and  C_4
REMARK    3  A    between atoms: N_12  and  C_13
REMARK    4  A    between atoms: C_13  and  C_14
REMARK    5  A    between atoms: C_14  and  C_15
REMARK    6  A    between atoms: C_15  and  C_16
REMARK                            x       y       z     vdW  Elec       q    Type
REMARK                         _______ _______ _______ _____ _____    ______ ____
ROOT
ATOM      4  C   UNL     1      -1.988  -0.444  25.429  0.00  0.00    +0.129 A 
ATOM      5  C   UNL     1      -1.618  -1.176  25.339  0.00  0.00    +0.023 A 
ATOM      6  C   UNL     1      -2.016  -1.797  24.969  0.00  0.00    +0.014 A 
ATOM      7  C   UNL     1      -2.784  -1.685  24.689  0.00  0.00    +0.041 A 
ATOM      8  C   UNL     1      -3.459  -2.137  24.260  0.00  0.00    +0.054 C 
ATOM      9  C   UNL     1      -3.615  -2.765  23.988  0.00  0.00    +0.011 C 
ATOM     10  C   UNL     1      -3.977  -2.041  24.078  0.00  0.00    +0.039 C 
ATOM     11  C   UNL     1      -4.575  -1.254  24.092  0.00  0.00    +0.074 C 
ATOM     12  N   UNL     1      -4.077  -0.707  24.480  0.00  0.00    -0.272 NA
ATOM     22  C   UNL     1      -4.048  -1.386  24.266  0.00  0.00    +0.078 C 
ATOM     23  C   UNL     1      -3.277  -1.561  24.526  0.00  0.00    +0.110 C 
ATOM     24  N   UNL     1      -3.154  -0.953  24.779  0.00  0.00    -0.298 N 
ATOM     25  C   UNL     1      -2.756  -0.333  25.149  0.00  0.00    +0.276 A 
ATOM     26  O   UNL     1      -3.126   0.399  25.239  0.00  0.00    -0.266 OA
ENDROOT
BRANCH   4   3
ATOM      1  O   UNL     1      -0.507   1.109  25.831  0.00  0.00    -0.273 OA
ATOM      2  C   UNL     1      -0.906   0.488  25.460  0.00  0.00    +0.245 C 
ATOM      3  N   UNL     1      -1.590   0.176  25.799  0.00  0.00    -0.174 NA
BRANCH   2  27
ATOM     27  C   UNL     1      -0.620   0.180  24.750  0.00  0.00    +0.079 C 
ATOM     28  C   UNL     1      -0.790   0.561  24.037  0.00  0.00    +0.009 C 
ATOM     29  C   UNL     1      -0.504   0.253  23.327  0.00  0.00    +0.000 C 
ATOM     30  C   UNL     1      -0.049  -0.434  23.330  0.00  0.00    +0.000 C 
ATOM     31  C   UNL     1       0.122  -0.815  24.043  0.00  0.00    +0.000 C 
ATOM     32  C   UNL     1      -0.164  -0.507  24.753  0.00  0.00    +0.009 C 
ENDBRANCH   2  27
ENDBRANCH   4   3
BRANCH  12  13
ATOM     13  C   UNL     1      -3.831   0.005  24.817  0.00  0.00    +0.072 C 
BRANCH  13  14
ATOM     14  C   UNL     1      -4.386   0.580  25.018  0.00  0.00    +0.022 C 
BRANCH  14  15
ATOM     15  C   UNL     1      -4.405   1.297  24.609  0.00  0.00    +0.028 C 
BRANCH  15  16
ATOM     16  C   UNL     1      -4.822   1.938  24.920  0.00  0.00    -0.022 A 
ATOM     17  C   UNL     1      -5.600   1.841  25.173  0.00  0.00    -0.004 A 
ATOM     18  C   UNL     1      -6.016   2.482  25.483  0.00  0.00    -0.000 A 
ATOM     19  C   UNL     1      -5.653   3.221  25.539  0.00  0.00    -0.000 A 
ATOM     20  C   UNL     1      -4.875   3.318  25.286  0.00  0.00    -0.000 A 
ATOM     21  C   UNL     1      -4.458   2.677  24.976  0.00  0.00    -0.004 A 
ENDBRANCH  15  16
ENDBRANCH  14  15
ENDBRANCH  13  14
ENDBRANCH  12  13
TORSDOF 6
ENDMDL
MODEL 6
REMARK VINA RESULT:     -13.1      1.271      2.502
REMARK  Name = 
REMARK  6 active torsions:
REMARK  status: ('A' for Active; 'I' for Inactive)
REMARK    1  A    between atoms: C_2  and  C_27
REMARK    2  A    between atoms: N_3  and  C_4
REMARK    3  A    between atoms: N_12  and  C_13
REMARK    4  A    between atoms: C_13  and  C_14
REMARK    5  A    between atoms: C_14  and  C_15
REMARK    6  A    between atoms: C_15  and  C_16
REMARK                            x       y       z     vdW  Elec       q    Type
REMARK                         _______ _______ _______ _____ _____    ______ ____
ROOT
ATOM      4  C   UNL     1      -4.515   2.486  24.460  0.00  0.00    +0.129 A 
ATOM      5  C   UNL     1      -4.369   3.196  24.066  0.00  0.00    +0.023 A 
ATOM      6  C   UNL     1      -3.810   3.225  23.460  0.00  0.00    +0.014 A 
ATOM      7  C   UNL     1      -3.396   2.543  23.249  0.00  0.00    +0.041 A 
ATOM      8  C   UNL     1      -2.753   2.252  22.660  0.00  0.00    +0.054 C 
ATOM      9  C   UNL     1      -2.338   2.480  22.142  0.00  0.00    +0.011 C 
ATOM     10  C   UNL     1      -2.485   1.780  22.533  0.00  0.00    +0.039 C 
ATOM     11  C   UNL     1      -2.520   0.856  22.880  0.00  0.00    +0.074 C 
ATOM     12  N   UNL     1      -3.103   0.950  23.471  0.00  0.00    -0.272 NA
ATOM     22  C   UNL     1      -2.775   1.355  22.985  0.00  0.00    +0.078 C 
ATOM     23  C   UNL     1      -3.158   2.075  23.151  0.00  0.00    +0.110 C 
ATOM     24  N   UNL     1      -3.542   1.833  23.643  0.00  0.00    -0.298 N 
ATOM     25  C   UNL     1      -4.102   1.805  24.249  0.00  0.00    +0.276 A 
ATOM     26  O   UNL     1      -4.248   1.095  24.643  0.00  0.00    -0.266 OA
ENDROOT
BRANCH   4   3
ATOM      1  O   UNL     1      -5.541   2.903  26.342  0.00  0.00    -0.273 OA
ATOM      2  C   UNL     1      -4.981   2.931  25.735  0.00  0.00    +0.245 C 
ATOM      3  N   UNL     1      -5.074   2.459  25.066  0.00  0.00    -0.174 NA
BRANCH   2  27
ATOM     27  C   UNL     1      -4.328   3.432  25.800  0.00  0.00    +0.079 C 
ATOM     28  C   UNL     1      -3.655   3.181  26.207  0.00  0.00    +0.009 C 
ATOM     29  C   UNL     1      -3.002   3.682  26.272  0.00  0.00    +0.000 C 
ATOM     30  C   UNL     1      -3.023   4.432  25.929  0.00  0.00    +0.000 C 
ATOM     31  C   UNL     1      -3.696   4.682  25.522  0.00  0.00    +0.000 C 
ATOM     32  C   UNL     1      -4.349   4.182  25.457  0.00  0.00    +0.009 C 
ENDBRANCH   2  27
ENDBRANCH   4   3
BRANCH  12  13
ATOM     13  C   UNL     1      -3.616   0.748  24.085  0.00  0.00    +0.072 C 
BRANCH  13  14
ATOM     14  C   UNL     1      -3.517   0.035  24.487  0.00  0.00    +0.022 C 
BRANCH  14  15
ATOM     15  C   UNL     1      -4.101  -0.547  24.447  0.00  0.00    +0.028 C 
BRANCH  15  16
ATOM     16  C   UNL     1      -3.908  -1.336  24.590  0.00  0.00    -0.022 A 
ATOM     17  C   UNL     1      -4.077  -1.911  24.024  0.00  0.00    -0.004 A 
ATOM     18  C   UNL     1      -3.884  -2.701  24.167  0.00  0.00    -0.000 A 
ATOM     19  C   UNL     1      -3.522  -2.914  24.877  0.00  0.00    -0.000 A 
ATOM     20  C   UNL     1      -3.352  -2.339  25.443  0.00  0.00    -0.000 A 
ATOM     21  C   UNL     1      -3.545  -1.549  25.300  0.00  0.00    -0.004 A 
ENDBRANCH  15  16
ENDBRANCH  14  15
ENDBRANCH  13  14
ENDBRANCH  12  13
TORSDOF 6
ENDMDL
