MODEL 1
REMARK VINA RESULT:     -12.4      0.000      0.000
REMARK  Name = 
REMARK  3 active torsions:
REMARK  status: ('A' for Active; 'I' for Inactive)
REMARK    1  A    between atoms: C_3  and  N_4
REMARK    2  A    between atoms: N_7  and  C_8
REMARK    3  A    between atoms: C_20  and  N_21
REMARK                            x       y       z     vdW  Elec       q    Type
REMARK                         _______ _______ _______ _____ _____    ______ ____
ROOT
ATOM      1  O   UNL     1      -2.291   2.295  25.786  0.00  0.00    -0.220 OA
ATOM      2  C   UNL     1      -2.960   2.330  25.305  0.00  0.00    +0.194 C 
ATOM      3  C   UNL     1      -3.684   2.113  24.964  0.00  0.00    +0.158 C 
ATOM     15  C   UNL     1      -3.788   2.834  24.387  0.00  0.00    +0.170 C 
ATOM     16  C   UNL     1      -3.215   3.360  24.408  0.00  0.00    +0.176 C 
ATOM     17  O   UNL     1      -2.967   3.986  24.137  0.00  0.00    -0.327 OA
ATOM     18  C   UNL     1      -3.518   3.305  24.241  0.00  0.00    +0.253 C 
ATOM     19  O   UNL     1      -4.238   3.092  23.900  0.00  0.00    -0.327 OA
ATOM     20  C   UNL     1      -3.396   2.557  24.849  0.00  0.00    +0.147 C 
ENDROOT
BRANCH  20  21
ATOM     21  N   UNL     1      -2.760   3.079  24.915  0.00  0.00    -0.268 NA
ATOM     22  C   UNL     1      -2.094   2.981  24.438  0.00  0.00    +0.072 C 
ATOM     23  C   UNL     1      -1.458   3.503  24.505  0.00  0.00    +0.017 C 
ATOM     24  C   UNL     1      -1.489   4.122  25.048  0.00  0.00    +0.003 C 
ATOM     25  C   UNL     1      -2.155   4.221  25.525  0.00  0.00    +0.017 C 
ATOM     26  C   UNL     1      -2.790   3.699  25.458  0.00  0.00    +0.072 C 
ENDBRANCH  20  21
BRANCH   3   4
ATOM      4  N   UNL     1      -4.167   1.457  25.097  0.00  0.00    -0.183 NA
ATOM      5  C   UNL     1      -3.904   0.703  24.888  0.00  0.00    +0.344 C 
ATOM      6  O   UNL     1      -3.158   0.606  24.546  0.00  0.00    -0.249 OA
ATOM      7  N   UNL     1      -4.385   0.047  25.021  0.00  0.00    -0.161 NA
BRANCH   7   8
ATOM      8  C   UNL     1      -4.122  -0.707  24.812  0.00  0.00    +0.075 A 
ATOM      9  C   UNL     1      -4.298  -1.013  24.066  0.00  0.00    +0.019 A 
ATOM     10  C   UNL     1      -4.036  -1.766  23.857  0.00  0.00    +0.031 A 
ATOM     11  C   UNL     1      -3.597  -2.214  24.394  0.00  0.00    +0.140 A 
ATOM     12  F   UNL     1      -3.334  -2.968  24.185  0.00  0.00    -0.204 F 
ATOM     13  C   UNL     1      -3.421  -1.907  25.139  0.00  0.00    +0.031 A 
ATOM     14  C   UNL     1      -3.683  -1.154  25.348  0.00  0.00    +0.019 A 
ENDBRANCH   7   8
ENDBRANCH   3   4
TORSDOF 3
ENDMDL
MODEL 2
REMARK VINA RESULT:     -11.8      1.934      4.586
REMARK  Name = 
REMARK  3 active torsions:
REMARK  status: ('A' for Active; 'I' for Inactive)
REMARK    1  A    between atoms: C_3  and  N_4
REMARK    2  A    between atoms: N_7  and  C_8
REMARK    3  A    between atoms: C_20  and  N_21
REMARK                            x       y       z     vdW  Elec       q    Type
REMARK                         _______ _______ _______ _____ _____    ______ ____
ROOT
ATOM      1  O   UNL     1      -2.612  -0.252  23.932  0.00  0.00    -0.220 OA
ATOM      2  C   UNL     1      -3.187   0.260  24.228  0.00  0.00    +0.194 C 
ATOM      3  C   UNL     1      -3.610   0.961  24.360  0.00  0.00    +0.158 C 
ATOM     15  C   UNL     1      -4.260   0.626  24.933  0.00  0.00    +0.170 C 
ATOM     16  C   UNL     1      -4.204  -0.134  25.090  0.00  0.00    +0.176 C 
ATOM     17  O   UNL     1      -4.492  -0.694  25.451  0.00  0.00    -0.327 OA
ATOM     18  C   UNL     1      -4.408   0.139  25.171  0.00  0.00    +0.253 C 
ATOM     19  O   UNL     1      -4.830   0.835  25.305  0.00  0.00    -0.327 OA
ATOM     20  C   UNL     1      -3.722   0.475  24.571  0.00  0.00    +0.147 C 
ENDROOT
BRANCH  20  21
ATOM     21  N   UNL     1      -3.612  -0.333  24.700  0.00  0.00    -0.268 NA
ATOM     22  C   UNL     1      -3.952  -0.883  24.187  0.00  0.00    +0.072 C 
ATOM     23  C   UNL     1      -3.841  -1.690  24.315  0.00  0.00    +0.017 C 
ATOM     24  C   UNL     1      -3.390  -1.948  24.956  0.00  0.00    +0.003 C 
ATOM     25  C   UNL     1      -3.050  -1.399  25.468  0.00  0.00    +0.017 C 
ATOM     26  C   UNL     1      -3.161  -0.591  25.340  0.00  0.00    +0.072 C 
ENDBRANCH  20  21
BRANCH   3   4
ATOM      4  N   UNL     1      -3.489   1.725  24.071  0.00  0.00    -0.183 NA
ATOM      5  C   UNL     1      -2.910   2.207  24.408  0.00  0.00    +0.344 C 
ATOM      6  O   UNL     1      -2.452   1.925  25.034  0.00  0.00    -0.249 OA
ATOM      7  N   UNL     1      -2.790   2.969  24.119  0.00  0.00    -0.161 NA
BRANCH   7   8
ATOM      8  C   UNL     1      -2.211   3.451  24.456  0.00  0.00    +0.075 A 
ATOM      9  C   UNL     1      -2.426   4.042  24.990  0.00  0.00    +0.019 A 
ATOM     10  C   UNL     1      -1.847   4.524  25.326  0.00  0.00    +0.031 A 
ATOM     11  C   UNL     1      -1.053   4.415  25.129  0.00  0.00    +0.140 A 
ATOM     12  F   UNL     1      -0.474   4.897  25.466  0.00  0.00    -0.204 F 
ATOM     13  C   UNL     1      -0.839   3.824  24.595  0.00  0.00    +0.031 A 
ATOM     14  C   UNL     1      -1.417   3.342  24.259  0.00  0.00    +0.019 A 
ENDBRANCH   7   8
ENDBRANCH   3   4
TORSDOF 3
ENDMDL
