MODEL 1
REMARK VINA RESULT:      -9.8      0.000      0.000
REMARK  Name = 
REMARK  7 active torsions:
REMARK  status: ('A' for Active; 'I' for Inactive)
REMARK    1  A    between atoms: C_2  and  C_3
REMARK    2  A    between atoms: C_3  and  C_4
REMARK    3  A    between atoms: C_3  and  C_6
REMARK    4  A    between atoms: N_8  and  C_9
REMARK    5  A    between atoms: C_9  and  C_10
REMARK    6  A    between atoms: C_17  and  C_18
REMARK    7  A    between atoms: C_20  and  C_25
REMARK                            x       y       z     vdW  Elec       q    Type
REMARK                         _______ _______ _______ _____ _____    ______ ____
ROOT
ATOM     10  C   UNL     1      -0.337   1.757  24.795  0.00  0.00    +0.079 C 
ATOM     11  C   UNL     1      -0.206   1.209  24.258  0.00  0.00    +0.018 C 
ATOM     12  C   UNL     1      -0.460   0.441  24.296  0.00  0.00    +0.010 C 
ATOM     13  C   UNL     1      -0.205  -0.030  23.576  0.00  0.00    +0.018 C 
ATOM     14  C   UNL     1      -0.252   0.501  23.953  0.00  0.00    +0.072 C 
ATOM     15  N   UNL     1      -0.592   0.972  24.827  0.00  0.00    -0.272 NA
ATOM     16  C   UNL     1      -1.075   0.511  25.449  0.00  0.00    +0.078 C 
ATOM     17  C   UNL     1      -0.925   0.004  24.898  0.00  0.00    +0.056 C 
ENDROOT
BRANCH  17  18
ATOM     18  C   UNL     1      -1.152  -0.789  24.875  0.00  0.00    +0.063 A 
ATOM     19  C   UNL     1      -1.920  -0.991  24.649  0.00  0.00    +0.037 A 
ATOM     20  C   UNL     1      -2.147  -1.783  24.626  0.00  0.00    +0.118 A 
ATOM     21  N   UNL     1      -1.607  -2.374  24.827  0.00  0.00    -0.228 NA
ATOM     22  C   UNL     1      -0.840  -2.171  25.052  0.00  0.00    +0.139 A 
ATOM     23  C   UNL     1      -0.299  -2.761  25.254  0.00  0.00    +0.074 C 
ATOM     24  N   UNL     1      -0.612  -1.378  25.076  0.00  0.00    -0.235 NA
BRANCH  20  25
ATOM     25  C   UNL     1      -2.914  -1.987  24.401  0.00  0.00    +0.163 A 
ATOM     26  C   UNL     1      -3.290  -2.704  24.557  0.00  0.00    +0.042 A 
ATOM     27  C   UNL     1      -4.049  -2.669  24.233  0.00  0.00    +0.044 A 
ATOM     28  C   UNL     1      -4.140  -1.931  23.877  0.00  0.00    +0.180 A 
ATOM     29  O   UNL     1      -3.439  -1.509  23.981  0.00  0.00    -0.449 OA
ENDBRANCH  20  25
ENDBRANCH  17  18
BRANCH  10   9
ATOM      9  C   UNL     1      -0.272   2.521  25.098  0.00  0.00    +0.131 C 
BRANCH   9   8
ATOM      6  C   UNL     1      -0.911   3.755  25.429  0.00  0.00    +0.241 C 
ATOM      7  O   UNL     1      -0.334   3.901  26.000  0.00  0.00    -0.273 OA
ATOM      8  N   UNL     1      -0.881   3.065  24.978  0.00  0.00    -0.204 NA
BRANCH   6   3
ATOM      3  C   UNL     1      -1.519   4.299  25.310  0.00  0.00    +0.078 C 
BRANCH   3   2
ATOM      1  C   UNL     1      -2.944   4.202  25.362  0.00  0.00    +0.001 C 
ATOM      2  C   UNL     1      -2.216   4.242  25.748  0.00  0.00    +0.009 C 
ENDBRANCH   3   2
BRANCH   3   4
ATOM      4  C   UNL     1      -1.431   4.901  24.752  0.00  0.00    +0.009 C 
ATOM      5  C   UNL     1      -1.418   5.689  24.994  0.00  0.00    +0.001 C 
ENDBRANCH   3   4
ENDBRANCH   6   3
ENDBRANCH   9   8
ENDBRANCH  10   9
TORSDOF 7
ENDMDL
MODEL 2
REMARK VINA RESULT:      -9.7      1.585      5.662
REMARK  Name = 
REMARK  7 active torsions:
REMARK  status: ('A' for Active; 'I' for Inactive)
REMARK    1  A    between atoms: C_2  and  C_3
REMARK    2  A    between atoms: C_3  and  C_4
REMARK    3  A    between atoms: C_3  and  C_6
REMARK    4  A    between atoms: N_8  and  C_9
REMARK    5  A    between atoms: C_9  and  C_10
REMARK    6  A    between atoms: C_17  and  C_18
REMARK    7  A    between atoms: C_20  and  C_25
REMARK                            x       y       z     vdW  Elec       q    Type
REMARK                         _______ _______ _______ _____ _____    ______ ____
ROOT
ATOM     10  C   UNL     1      -2.902   0.497  23.989  0.00  0.00    +0.079 C 
ATOM     11  C   UNL     1      -2.270   0.842  23.696  0.00  0.00    +0.018 C 
ATOM     12  C   UNL     1      -1.821   1.402  24.072  0.00  0.00    +0.010 C 
ATOM     13  C   UNL     1      -1.134   1.675  23.564  0.00  0.00    +0.018 C 
ATOM     14  C   UNL     1      -1.668   1.326  23.705  0.00  0.00    +0.072 C 
ATOM     15  N   UNL     1      -2.440   1.068  24.366  0.00  0.00    -0.272 NA
ATOM     16  C   UNL     1      -2.504   1.460  25.187  0.00  0.00    +0.078 C 
ATOM     17  C   UNL     1      -1.889   1.775  24.863  0.00  0.00    +0.056 C 
ENDROOT
BRANCH  17  18
ATOM     18  C   UNL     1      -1.391   2.347  25.189  0.00  0.00    +0.063 A 
ATOM     19  C   UNL     1      -1.507   3.145  25.012  0.00  0.00    +0.037 A 
ATOM     20  C   UNL     1      -1.010   3.716  25.338  0.00  0.00    +0.118 A 
ATOM     21  N   UNL     1      -0.396   3.491  25.841  0.00  0.00    -0.228 NA
ATOM     22  C   UNL     1      -0.280   2.694  26.018  0.00  0.00    +0.139 A 
ATOM     23  C   UNL     1       0.333   2.468  26.522  0.00  0.00    +0.074 C 
ATOM     24  N   UNL     1      -0.778   2.122  25.692  0.00  0.00    -0.235 NA
BRANCH  20  25
ATOM     25  C   UNL     1      -1.126   4.514  25.160  0.00  0.00    +0.163 A 
ATOM     26  C   UNL     1      -1.787   4.963  25.363  0.00  0.00    +0.042 A 
ATOM     27  C   UNL     1      -1.670   5.729  25.078  0.00  0.00    +0.044 A 
ATOM     28  C   UNL     1      -0.938   5.752  24.699  0.00  0.00    +0.180 A 
ATOM     29  O   UNL     1      -0.602   5.000  24.750  0.00  0.00    -0.449 OA
ENDBRANCH  20  25
ENDBRANCH  17  18
BRANCH  10   9
ATOM      9  C   UNL     1      -3.537  -0.028  23.953  0.00  0.00    +0.131 C 
BRANCH   9   8
ATOM      6  C   UNL     1      -4.045  -1.349  24.155  0.00  0.00    +0.241 C 
ATOM      7  O   UNL     1      -4.811  -1.048  24.201  0.00  0.00    -0.273 OA
ATOM      8  N   UNL     1      -3.407  -0.839  24.031  0.00  0.00    -0.204 NA
BRANCH   6   3
ATOM      3  C   UNL     1      -3.915  -2.159  24.233  0.00  0.00    +0.078 C 
BRANCH   3   2
ATOM      1  C   UNL     1      -4.116  -3.317  23.420  0.00  0.00    +0.001 C 
ATOM      2  C   UNL     1      -4.423  -2.696  23.868  0.00  0.00    +0.009 C 
ENDBRANCH   3   2
BRANCH   3   4
ATOM      4  C   UNL     1      -3.275  -2.434  24.676  0.00  0.00    +0.009 C 
ATOM      5  C   UNL     1      -3.407  -2.849  25.377  0.00  0.00    +0.001 C 
ENDBRANCH   3   4
ENDBRANCH   6   3
ENDBRANCH   9   8
ENDBRANCH  10   9
TORSDOF 7
ENDMDL
MODEL 3
REMARK VINA RESULT:      -9.7      2.022      6.042
REMARK  Name = 
REMARK  7 active torsions:
REMARK  status: ('A' for Active; 'I' for Inactive)
REMARK    1  A    between atoms: C_2  and  C_3
REMARK    2  A    between atoms: C_3  and  C_4
REMARK    3  A    between atoms: C_3  and  C_6
REMARK    4  A    between atoms: N_8  and  C_9
REMARK    5  A    between atoms: C_9  and  C_10
REMARK    6  A    between atoms: C_17  and  C_18
REMARK    7  A    between atoms: C_20  and  C_25
REMARK                            x       y       z     vdW  Elec       q    Type
REMARK                         _______ _______ _______ _____ _____    ______ ____
ROOT
ATOM     10  C   UNL     1      -3.843   0.246  23.838  0.00  0.00    +0.079 C 
ATOM     11  C   UNL     1      -3.653   0.898  23.458  0.00  0.00    +0.018 C 
ATOM     12  C   UNL     1      -3.577   1.632  23.791  0.00  0.00    +0.010 C 
ATOM     13  C   UNL     1      -3.352   2.252  23.183  0.00  0.00    +0.018 C 
ATOM     14  C   UNL     1      -3.501   1.652  23.394  0.00  0.00    +0.072 C 
ATOM     15  N   UNL     1      -3.763   0.998  24.170  0.00  0.00    -0.272 NA
ATOM     16  C   UNL     1      -3.861   1.301  25.025  0.00  0.00    +0.078 C 
ATOM     17  C   UNL     1      -3.673   1.917  24.615  0.00  0.00    +0.056 C 
ENDROOT
BRANCH  17  18
ATOM     18  C   UNL     1      -3.579   2.690  24.890  0.00  0.00    +0.063 A 
ATOM     19  C   UNL     1      -2.828   3.031  24.912  0.00  0.00    +0.037 A 
ATOM     20  C   UNL     1      -2.735   3.803  25.187  0.00  0.00    +0.118 A 
ATOM     21  N   UNL     1      -3.392   4.234  25.440  0.00  0.00    -0.228 NA
ATOM     22  C   UNL     1      -4.142   3.892  25.418  0.00  0.00    +0.139 A 
ATOM     23  C   UNL     1      -4.799   4.322  25.671  0.00  0.00    +0.074 C 
ATOM     24  N   UNL     1      -4.236   3.120  25.143  0.00  0.00    -0.235 NA
BRANCH  20  25
ATOM     25  C   UNL     1      -1.984   4.146  25.209  0.00  0.00    +0.163 A 
ATOM     26  C   UNL     1      -1.797   4.917  24.983  0.00  0.00    +0.042 A 
ATOM     27  C   UNL     1      -0.987   5.025  25.096  0.00  0.00    +0.044 A 
ATOM     28  C   UNL     1      -0.674   4.321  25.391  0.00  0.00    +0.180 A 
ATOM     29  O   UNL     1      -1.291   3.778  25.461  0.00  0.00    -0.449 OA
ENDBRANCH  20  25
ENDBRANCH  17  18
BRANCH  10   9
ATOM      9  C   UNL     1      -4.000  -0.563  23.879  0.00  0.00    +0.131 C 
BRANCH   9   8
ATOM      6  C   UNL     1      -3.568  -1.891  24.180  0.00  0.00    +0.241 C 
ATOM      7  O   UNL     1      -4.247  -2.193  23.823  0.00  0.00    -0.273 OA
ATOM      8  N   UNL     1      -3.444  -1.075  24.208  0.00  0.00    -0.204 NA
BRANCH   6   3
ATOM      3  C   UNL     1      -3.012  -2.403  24.509  0.00  0.00    +0.078 C 
BRANCH   3   2
ATOM      1  C   UNL     1      -1.716  -2.935  24.231  0.00  0.00    +0.001 C 
ATOM      2  C   UNL     1      -2.208  -2.287  24.366  0.00  0.00    +0.009 C 
ENDBRANCH   3   2
BRANCH   3   4
ATOM      4  C   UNL     1      -3.260  -3.032  24.982  0.00  0.00    +0.009 C 
ATOM      5  C   UNL     1      -3.228  -2.968  25.804  0.00  0.00    +0.001 C 
ENDBRANCH   3   4
ENDBRANCH   6   3
ENDBRANCH   9   8
ENDBRANCH  10   9
TORSDOF 7
ENDMDL
MODEL 4
REMARK VINA RESULT:      -9.4      2.228      3.530
REMARK  Name = 
REMARK  7 active torsions:
REMARK  status: ('A' for Active; 'I' for Inactive)
REMARK    1  A    between atoms: C_2  and  C_3
REMARK    2  A    between atoms: C_3  and  C_4
REMARK    3  A    between atoms: C_3  and  C_6
REMARK    4  A    between atoms: N_8  and  C_9
REMARK    5  A    between atoms: C_9  and  C_10
REMARK    6  A    between atoms: C_17  and  C_18
REMARK    7  A    between atoms: C_20  and  C_25
REMARK                            x       y       z     vdW  Elec       q    Type
REMARK                         _______ _______ _______ _____ _____    ______ ____
ROOT
ATOM     10  C   UNL     1      -2.290   2.507  24.679  0.00  0.00    +0.079 C 
ATOM     11  C   UNL     1      -1.642   2.320  25.067  0.00  0.00    +0.018 C 
ATOM     12  C   UNL     1      -1.174   1.676  24.920  0.00  0.00    +0.010 C 
ATOM     13  C   UNL     1      -0.473   1.638  25.478  0.00  0.00    +0.018 C 
ATOM     14  C   UNL     1      -1.021   1.890  25.227  0.00  0.00    +0.072 C 
ATOM     15  N   UNL     1      -1.808   1.853  24.535  0.00  0.00    -0.272 NA
ATOM     16  C   UNL     1      -1.861   1.178  23.923  0.00  0.00    +0.078 C 
ATOM     17  C   UNL     1      -1.231   1.030  24.328  0.00  0.00    +0.056 C 
ENDROOT
BRANCH  17  18
ATOM     18  C   UNL     1      -0.713   0.395  24.231  0.00  0.00    +0.063 A 
ATOM     19  C   UNL     1      -0.093   0.449  23.689  0.00  0.00    +0.037 A 
ATOM     20  C   UNL     1       0.425  -0.186  23.592  0.00  0.00    +0.118 A 
ATOM     21  N   UNL     1       0.323  -0.874  24.036  0.00  0.00    -0.228 NA
ATOM     22  C   UNL     1      -0.297  -0.927  24.577  0.00  0.00    +0.139 A 
ATOM     23  C   UNL     1      -0.400  -1.615  25.021  0.00  0.00    +0.074 C 
ATOM     24  N   UNL     1      -0.816  -0.292  24.674  0.00  0.00    -0.235 NA
BRANCH  20  25
ATOM     25  C   UNL     1       1.045  -0.133  23.050  0.00  0.00    +0.163 A 
ATOM     26  C   UNL     1       1.805   0.145  23.211  0.00  0.00    +0.042 A 
ATOM     27  C   UNL     1       2.245   0.101  22.513  0.00  0.00    +0.044 A 
ATOM     28  C   UNL     1       1.756  -0.205  21.923  0.00  0.00    +0.180 A 
ATOM     29  O   UNL     1       1.015  -0.349  22.255  0.00  0.00    -0.449 OA
ENDBRANCH  20  25
ENDBRANCH  17  18
BRANCH  10   9
ATOM      9  C   UNL     1      -2.945   2.985  24.529  0.00  0.00    +0.131 C 
BRANCH   9   8
ATOM      6  C   UNL     1      -4.352   3.181  24.689  0.00  0.00    +0.241 C 
ATOM      7  O   UNL     1      -4.383   3.555  23.956  0.00  0.00    -0.273 OA
ATOM      8  N   UNL     1      -3.632   2.895  24.976  0.00  0.00    -0.204 NA
BRANCH   6   3
ATOM      3  C   UNL     1      -5.039   3.091  25.137  0.00  0.00    +0.078 C 
BRANCH   3   2
ATOM      1  C   UNL     1      -5.796   1.974  25.603  0.00  0.00    +0.001 C 
ATOM      2  C   UNL     1      -5.550   2.463  24.986  0.00  0.00    +0.009 C 
ENDBRANCH   3   2
BRANCH   3   4
ATOM      4  C   UNL     1      -5.214   3.632  25.736  0.00  0.00    +0.009 C 
ATOM      5  C   UNL     1      -5.850   4.149  25.651  0.00  0.00    +0.001 C 
ENDBRANCH   3   4
ENDBRANCH   6   3
ENDBRANCH   9   8
ENDBRANCH  10   9
TORSDOF 7
ENDMDL
MODEL 5
REMARK VINA RESULT:      -9.1      2.574      4.655
REMARK  Name = 
REMARK  7 active torsions:
REMARK  status: ('A' for Active; 'I' for Inactive)
REMARK    1  A    between atoms: C_2  and  C_3
REMARK    2  A    between atoms: C_3  and  C_4
REMARK    3  A    between atoms: C_3  and  C_6
REMARK    4  A    between atoms: N_8  and  C_9
REMARK    5  A    between atoms: C_9  and  C_10
REMARK    6  A    between atoms: C_17  and  C_18
REMARK    7  A    between atoms: C_20  and  C_25
REMARK                            x       y       z     vdW  Elec       q    Type
REMARK                         _______ _______ _______ _____ _____    ______ ____
ROOT
ATOM     10  C   UNL     1       0.207   0.250  23.551  0.00  0.00    +0.079 C 
ATOM     11  C   UNL     1      -0.042   0.328  24.285  0.00  0.00    +0.018 C 
ATOM     12  C   UNL     1      -0.802   0.493  24.510  0.00  0.00    +0.010 C 
ATOM     13  C   UNL     1      -0.883   0.542  25.401  0.00  0.00    +0.018 C 
ATOM     14  C   UNL     1      -0.567   0.456  24.836  0.00  0.00    +0.072 C 
ATOM     15  N   UNL     1      -0.566   0.418  23.789  0.00  0.00    -0.272 NA
ATOM     16  C   UNL     1      -1.333   0.558  23.315  0.00  0.00    +0.078 C 
ATOM     17  C   UNL     1      -1.537   0.627  24.048  0.00  0.00    +0.056 C 
ENDROOT
BRANCH  17  18
ATOM     18  C   UNL     1      -2.289   0.793  24.343  0.00  0.00    +0.063 A 
ATOM     19  C   UNL     1      -2.534   1.576  24.430  0.00  0.00    +0.037 A 
ATOM     20  C   UNL     1      -3.286   1.741  24.725  0.00  0.00    +0.118 A 
ATOM     21  N   UNL     1      -3.793   1.125  24.934  0.00  0.00    -0.228 NA
ATOM     22  C   UNL     1      -3.548   0.342  24.847  0.00  0.00    +0.139 A 
ATOM     23  C   UNL     1      -4.054  -0.275  25.056  0.00  0.00    +0.074 C 
ATOM     24  N   UNL     1      -2.795   0.176  24.552  0.00  0.00    -0.235 NA
BRANCH  20  25
ATOM     25  C   UNL     1      -3.533   2.524  24.812  0.00  0.00    +0.163 A 
ATOM     26  C   UNL     1      -3.915   2.978  24.239  0.00  0.00    +0.042 A 
ATOM     27  C   UNL     1      -4.059   3.725  24.560  0.00  0.00    +0.044 A 
ATOM     28  C   UNL     1      -3.765   3.732  25.331  0.00  0.00    +0.180 A 
ATOM     29  O   UNL     1      -3.440   2.990  25.486  0.00  0.00    -0.449 OA
ENDBRANCH  20  25
ENDBRANCH  17  18
BRANCH  10   9
ATOM      9  C   UNL     1       0.787   0.109  22.983  0.00  0.00    +0.131 C 
BRANCH   9   8
ATOM      6  C   UNL     1       2.162   0.089  22.597  0.00  0.00    +0.241 C 
ATOM      7  O   UNL     1       1.945  -0.122  21.830  0.00  0.00    -0.273 OA
ATOM      8  N   UNL     1       1.584   0.204  23.174  0.00  0.00    -0.204 NA
BRANCH   6   3
ATOM      3  C   UNL     1       2.959   0.183  22.788  0.00  0.00    +0.078 C 
BRANCH   3   2
ATOM      1  C   UNL     1       4.030  -0.469  23.473  0.00  0.00    +0.001 C 
ATOM      2  C   UNL     1       3.439  -0.478  22.898  0.00  0.00    +0.009 C 
ENDBRANCH   3   2
BRANCH   3   4
ATOM      4  C   UNL     1       3.277   0.941  22.869  0.00  0.00    +0.009 C 
ATOM      5  C   UNL     1       3.997   1.126  22.514  0.00  0.00    +0.001 C 
ENDBRANCH   3   4
ENDBRANCH   6   3
ENDBRANCH   9   8
ENDBRANCH  10   9
TORSDOF 7
ENDMDL
MODEL 6
REMARK VINA RESULT:      -9.1      1.289      5.432
REMARK  Name = 
REMARK  7 active torsions:
REMARK  status: ('A' for Active; 'I' for Inactive)
REMARK    1  A    between atoms: C_2  and  C_3
REMARK    2  A    between atoms: C_3  and  C_4
REMARK    3  A    between atoms: C_3  and  C_6
REMARK    4  A    between atoms: N_8  and  C_9
REMARK    5  A    between atoms: C_9  and  C_10
REMARK    6  A    between atoms: C_17  and  C_18
REMARK    7  A    between atoms: C_20  and  C_25
REMARK                            x       y       z     vdW  Elec       q    Type
REMARK                         _______ _______ _______ _____ _____    ______ ____
ROOT
ATOM     10  C   UNL     1      -1.225  -0.280  24.850  0.00  0.00    +0.079 C 
ATOM     11  C   UNL     1      -0.896   0.220  25.346  0.00  0.00    +0.018 C 
ATOM     12  C   UNL     1      -0.981   1.025  25.330  0.00  0.00    +0.010 C 
ATOM     13  C   UNL     1      -0.519   1.423  25.988  0.00  0.00    +0.018 C 
ATOM     14  C   UNL     1      -0.739   0.919  25.637  0.00  0.00    +0.072 C 
ATOM     15  N   UNL     1      -1.307   0.541  24.840  0.00  0.00    -0.272 NA
ATOM     16  C   UNL     1      -1.773   1.101  24.291  0.00  0.00    +0.078 C 
ATOM     17  C   UNL     1      -1.431   1.558  24.798  0.00  0.00    +0.056 C 
ENDROOT
BRANCH  17  18
ATOM     18  C   UNL     1      -1.476   2.382  24.837  0.00  0.00    +0.063 A 
ATOM     19  C   UNL     1      -2.140   2.743  25.170  0.00  0.00    +0.037 A 
ATOM     20  C   UNL     1      -2.184   3.565  25.209  0.00  0.00    +0.118 A 
ATOM     21  N   UNL     1      -1.566   4.027  24.916  0.00  0.00    -0.228 NA
ATOM     22  C   UNL     1      -0.903   3.666  24.584  0.00  0.00    +0.139 A 
ATOM     23  C   UNL     1      -0.285   4.127  24.291  0.00  0.00    +0.074 C 
ATOM     24  N   UNL     1      -0.859   2.842  24.544  0.00  0.00    -0.235 NA
BRANCH  20  25
ATOM     25  C   UNL     1      -2.847   3.928  25.541  0.00  0.00    +0.163 A 
ATOM     26  C   UNL     1      -2.892   4.252  26.299  0.00  0.00    +0.042 A 
ATOM     27  C   UNL     1      -3.654   4.554  26.400  0.00  0.00    +0.044 A 
ATOM     28  C   UNL     1      -4.078   4.416  25.706  0.00  0.00    +0.180 A 
ATOM     29  O   UNL     1      -3.579   4.029  25.176  0.00  0.00    -0.449 OA
ENDBRANCH  20  25
ENDBRANCH  17  18
BRANCH  10   9
ATOM      9  C   UNL     1      -1.375  -1.038  24.561  0.00  0.00    +0.131 C 
BRANCH   9   8
ATOM      6  C   UNL     1      -2.280  -2.121  24.339  0.00  0.00    +0.241 C 
ATOM      7  O   UNL     1      -1.671  -2.560  23.998  0.00  0.00    -0.273 OA
ATOM      8  N   UNL     1      -2.133  -1.360  24.620  0.00  0.00    -0.204 NA
BRANCH   6   3
ATOM      3  C   UNL     1      -3.037  -2.443  24.398  0.00  0.00    +0.078 C 
BRANCH   3   2
ATOM      1  C   UNL     1      -4.277  -2.458  23.688  0.00  0.00    +0.001 C 
ATOM      2  C   UNL     1      -3.683  -2.041  24.080  0.00  0.00    +0.009 C 
ENDBRANCH   3   2
BRANCH   3   4
ATOM      4  C   UNL     1      -3.149  -3.168  24.776  0.00  0.00    +0.009 C 
ATOM      5  C   UNL     1      -3.436  -3.191  25.549  0.00  0.00    +0.001 C 
ENDBRANCH   3   4
ENDBRANCH   6   3
ENDBRANCH   9   8
ENDBRANCH  10   9
TORSDOF 7
ENDMDL
MODEL 7
REMARK VINA RESULT:      -9.1      2.519      4.776
REMARK  Name = 
REMARK  7 active torsions:
REMARK  status: ('A' for Active; 'I' for Inactive)
REMARK    1  A    between atoms: C_2  and  C_3
REMARK    2  A    between atoms: C_3  and  C_4
REMARK    3  A    between atoms: C_3  and  C_6
REMARK    4  A    between atoms: N_8  and  C_9
REMARK    5  A    between atoms: C_9  and  C_10
REMARK    6  A    between atoms: C_17  and  C_18
REMARK    7  A    between atoms: C_20  and  C_25
REMARK                            x       y       z     vdW  Elec       q    Type
REMARK                         _______ _______ _______ _____ _____    ______ ____
ROOT
ATOM     10  C   UNL     1       0.096   0.621  23.740  0.00  0.00    +0.079 C 
ATOM     11  C   UNL     1      -0.182   0.660  24.466  0.00  0.00    +0.018 C 
ATOM     12  C   UNL     1      -0.780   1.145  24.717  0.00  0.00    +0.010 C 
ATOM     13  C   UNL     1      -0.952   1.039  25.590  0.00  0.00    +0.018 C 
ATOM     14  C   UNL     1      -0.644   0.922  25.026  0.00  0.00    +0.072 C 
ATOM     15  N   UNL     1      -0.512   1.113  24.003  0.00  0.00    -0.272 NA
ATOM     16  C   UNL     1      -1.028   1.730  23.572  0.00  0.00    +0.078 C 
ATOM     17  C   UNL     1      -1.272   1.737  24.296  0.00  0.00    +0.056 C 
ENDROOT
BRANCH  17  18
ATOM     18  C   UNL     1      -1.873   2.204  24.615  0.00  0.00    +0.063 A 
ATOM     19  C   UNL     1      -2.654   1.936  24.602  0.00  0.00    +0.037 A 
ATOM     20  C   UNL     1      -3.254   2.403  24.921  0.00  0.00    +0.118 A 
ATOM     21  N   UNL     1      -3.075   3.138  25.252  0.00  0.00    -0.228 NA
ATOM     22  C   UNL     1      -2.295   3.405  25.265  0.00  0.00    +0.139 A 
ATOM     23  C   UNL     1      -2.115   4.138  25.596  0.00  0.00    +0.074 C 
ATOM     24  N   UNL     1      -1.694   2.937  24.946  0.00  0.00    -0.235 NA
BRANCH  20  25
ATOM     25  C   UNL     1      -4.035   2.137  24.909  0.00  0.00    +0.163 A 
ATOM     26  C   UNL     1      -4.649   2.458  24.461  0.00  0.00    +0.042 A 
ATOM     27  C   UNL     1      -5.332   2.022  24.618  0.00  0.00    +0.044 A 
ATOM     28  C   UNL     1      -5.140   1.432  25.162  0.00  0.00    +0.180 A 
ATOM     29  O   UNL     1      -4.338   1.504  25.342  0.00  0.00    -0.449 OA
ENDBRANCH  20  25
ENDBRANCH  17  18
BRANCH  10   9
ATOM      9  C   UNL     1       0.602   0.323  23.162  0.00  0.00    +0.131 C 
BRANCH   9   8
ATOM      6  C   UNL     1       1.926   0.100  22.673  0.00  0.00    +0.241 C 
ATOM      7  O   UNL     1       1.617  -0.178  21.961  0.00  0.00    -0.273 OA
ATOM      8  N   UNL     1       1.419   0.351  23.274  0.00  0.00    -0.204 NA
BRANCH   6   3
ATOM      3  C   UNL     1       2.743   0.128  22.785  0.00  0.00    +0.078 C 
BRANCH   3   2
ATOM      1  C   UNL     1       3.847   0.987  22.495  0.00  0.00    +0.001 C 
ATOM      2  C   UNL     1       3.124   0.854  22.869  0.00  0.00    +0.009 C 
ENDBRANCH   3   2
BRANCH   3   4
ATOM      4  C   UNL     1       3.180  -0.572  22.813  0.00  0.00    +0.009 C 
ATOM      5  C   UNL     1       3.765  -0.670  23.386  0.00  0.00    +0.001 C 
ENDBRANCH   3   4
ENDBRANCH   6   3
ENDBRANCH   9   8
ENDBRANCH  10   9
TORSDOF 7
ENDMDL
MODEL 8
REMARK VINA RESULT:      -9.1      1.818      2.906
REMARK  Name = 
REMARK  7 active torsions:
REMARK  status: ('A' for Active; 'I' for Inactive)
REMARK    1  A    between atoms: C_2  and  C_3
REMARK    2  A    between atoms: C_3  and  C_4
REMARK    3  A    between atoms: C_3  and  C_6
REMARK    4  A    between atoms: N_8  and  C_9
REMARK    5  A    between atoms: C_9  and  C_10
REMARK    6  A    between atoms: C_17  and  C_18
REMARK    7  A    between atoms: C_20  and  C_25
REMARK                            x       y       z     vdW  Elec       q    Type
REMARK                         _______ _______ _______ _____ _____    ______ ____
ROOT
ATOM     10  C   UNL     1      -2.104   2.917  24.940  0.00  0.00    +0.079 C 
ATOM     11  C   UNL     1      -1.452   2.641  25.264  0.00  0.00    +0.018 C 
ATOM     12  C   UNL     1      -1.055   1.975  25.032  0.00  0.00    +0.010 C 
ATOM     13  C   UNL     1      -0.327   1.828  25.534  0.00  0.00    +0.018 C 
ATOM     14  C   UNL     1      -0.865   2.146  25.345  0.00  0.00    +0.072 C 
ATOM     15  N   UNL     1      -1.693   2.239  24.709  0.00  0.00    -0.272 NA
ATOM     16  C   UNL     1      -1.846   1.628  24.048  0.00  0.00    +0.078 C 
ATOM     17  C   UNL     1      -1.209   1.391  24.395  0.00  0.00    +0.056 C 
ENDROOT
BRANCH  17  18
ATOM     18  C   UNL     1      -0.758   0.725  24.209  0.00  0.00    +0.063 A 
ATOM     19  C   UNL     1      -0.963  -0.011  24.520  0.00  0.00    +0.037 A 
ATOM     20  C   UNL     1      -0.512  -0.676  24.334  0.00  0.00    +0.118 A 
ATOM     21  N   UNL     1       0.143  -0.606  23.837  0.00  0.00    -0.228 NA
ATOM     22  C   UNL     1       0.347   0.130  23.526  0.00  0.00    +0.139 A 
ATOM     23  C   UNL     1       1.002   0.201  23.029  0.00  0.00    +0.074 C 
ATOM     24  N   UNL     1      -0.104   0.796  23.712  0.00  0.00    -0.235 NA
BRANCH  20  25
ATOM     25  C   UNL     1      -0.716  -1.413  24.645  0.00  0.00    +0.163 A 
ATOM     26  C   UNL     1      -1.291  -1.923  24.344  0.00  0.00    +0.042 A 
ATOM     27  C   UNL     1      -1.311  -2.594  24.824  0.00  0.00    +0.044 A 
ATOM     28  C   UNL     1      -0.748  -2.499  25.420  0.00  0.00    +0.180 A 
ATOM     29  O   UNL     1      -0.381  -1.769  25.309  0.00  0.00    -0.449 OA
ENDBRANCH  20  25
ENDBRANCH  17  18
BRANCH  10   9
ATOM      9  C   UNL     1      -2.721   3.460  24.876  0.00  0.00    +0.131 C 
BRANCH   9   8
ATOM      6  C   UNL     1      -4.140   3.622  24.864  0.00  0.00    +0.241 C 
ATOM      7  O   UNL     1      -4.075   4.143  24.228  0.00  0.00    -0.273 OA
ATOM      8  N   UNL     1      -3.463   3.280  25.188  0.00  0.00    -0.204 NA
BRANCH   6   3
ATOM      3  C   UNL     1      -4.882   3.442  25.176  0.00  0.00    +0.078 C 
BRANCH   3   2
ATOM      1  C   UNL     1      -5.936   4.307  25.603  0.00  0.00    +0.001 C 
ATOM      2  C   UNL     1      -5.218   3.929  25.750  0.00  0.00    +0.009 C 
ENDBRANCH   3   2
BRANCH   3   4
ATOM      4  C   UNL     1      -5.289   2.774  24.913  0.00  0.00    +0.009 C 
ATOM      5  C   UNL     1      -5.632   2.259  25.458  0.00  0.00    +0.001 C 
ENDBRANCH   3   4
ENDBRANCH   6   3
ENDBRANCH   9   8
ENDBRANCH  10   9
TORSDOF 7
ENDMDL
MODEL 9
REMARK VINA RESULT:      -9.0      2.051      2.945
REMARK  Name = 
REMARK  7 active torsions:
REMARK  status: ('A' for Active; 'I' for Inactive)
REMARK    1  A    between atoms: C_2  and  C_3
REMARK    2  A    between atoms: C_3  and  C_4
REMARK    3  A    between atoms: C_3  and  C_6
REMARK    4  A    between atoms: N_8  and  C_9
REMARK    5  A    between atoms: C_9  and  C_10
REMARK    6  A    between atoms: C_17  and  C_18
REMARK    7  A    between atoms: C_20  and  C_25
REMARK                            x       y       z     vdW  Elec       q    Type
REMARK                         _______ _______ _______ _____ _____    ______ ____
ROOT
ATOM     10  C   UNL     1      -4.020   1.944  24.619  0.00  0.00    +0.079 C 
ATOM     11  C   UNL     1      -4.359   1.355  24.998  0.00  0.00    +0.018 C 
ATOM     12  C   UNL     1      -4.215   0.568  24.870  0.00  0.00    +0.010 C 
ATOM     13  C   UNL     1      -4.707   0.047  25.409  0.00  0.00    +0.018 C 
ATOM     14  C   UNL     1      -4.491   0.612  25.162  0.00  0.00    +0.072 C 
ATOM     15  N   UNL     1      -3.879   1.141  24.495  0.00  0.00    -0.272 NA
ATOM     16  C   UNL     1      -3.324   0.700  23.920  0.00  0.00    +0.078 C 
ATOM     17  C   UNL     1      -3.679   0.151  24.314  0.00  0.00    +0.056 C 
ENDROOT
BRANCH  17  18
ATOM     18  C   UNL     1      -3.579  -0.665  24.234  0.00  0.00    +0.063 A 
ATOM     19  C   UNL     1      -2.860  -1.014  24.438  0.00  0.00    +0.037 A 
ATOM     20  C   UNL     1      -2.760  -1.828  24.358  0.00  0.00    +0.118 A 
ATOM     21  N   UNL     1      -3.379  -2.295  24.075  0.00  0.00    -0.228 NA
ATOM     22  C   UNL     1      -4.098  -1.945  23.871  0.00  0.00    +0.139 A 
ATOM     23  C   UNL     1      -4.718  -2.411  23.588  0.00  0.00    +0.074 C 
ATOM     24  N   UNL     1      -4.198  -1.130  23.951  0.00  0.00    -0.235 NA
BRANCH  20  25
ATOM     25  C   UNL     1      -2.041  -2.179  24.562  0.00  0.00    +0.163 A 
ATOM     26  C   UNL     1      -1.682  -2.150  25.304  0.00  0.00    +0.042 A 
ATOM     27  C   UNL     1      -0.974  -2.573  25.260  0.00  0.00    +0.044 A 
ATOM     28  C   UNL     1      -0.896  -2.861  24.491  0.00  0.00    +0.180 A 
ATOM     29  O   UNL     1      -1.556  -2.617  24.060  0.00  0.00    -0.449 OA
ENDBRANCH  20  25
ENDBRANCH  17  18
BRANCH  10   9
ATOM      9  C   UNL     1      -3.898   2.745  24.463  0.00  0.00    +0.131 C 
BRANCH   9   8
ATOM      6  C   UNL     1      -3.222   3.972  24.745  0.00  0.00    +0.241 C 
ATOM      7  O   UNL     1      -3.640   4.342  24.139  0.00  0.00    -0.273 OA
ATOM      8  N   UNL     1      -3.351   3.173  24.908  0.00  0.00    -0.204 NA
BRANCH   6   3
ATOM      3  C   UNL     1      -2.675   4.399  25.190  0.00  0.00    +0.078 C 
BRANCH   3   2
ATOM      1  C   UNL     1      -2.786   4.469  26.613  0.00  0.00    +0.001 C 
ATOM      2  C   UNL     1      -2.917   4.800  25.869  0.00  0.00    +0.009 C 
ENDBRANCH   3   2
BRANCH   3   4
ATOM      4  C   UNL     1      -1.884   4.427  24.956  0.00  0.00    +0.009 C 
ATOM      5  C   UNL     1      -1.447   5.119  25.058  0.00  0.00    +0.001 C 
ENDBRANCH   3   4
ENDBRANCH   6   3
ENDBRANCH   9   8
ENDBRANCH  10   9
TORSDOF 7
ENDMDL
MODEL 10
REMARK VINA RESULT:      -5.9     15.837     17.717
REMARK  Name = 
REMARK  7 active torsions:
REMARK  status: ('A' for Active; 'I' for Inactive)
REMARK    1  A    between atoms: C_2  and  C_3
REMARK    2  A    between atoms: C_3  and  C_4
REMARK    3  A    between atoms: C_3  and  C_6
REMARK    4  A    between atoms: N_8  and  C_9
REMARK    5  A    between atoms: C_9  and  C_10
REMARK    6  A    between atoms: C_17  and  C_18
REMARK    7  A    between atoms: C_20  and  C_25
REMARK                            x       y       z     vdW  Elec       q    Type
REMARK                         _______ _______ _______ _____ _____    ______ ____
ROOT
ATOM     10  C   UNL     1      14.649   7.042  19.165  0.00  0.00    +0.079 C 
ATOM     11  C   UNL     1      13.970   6.676  19.068  0.00  0.00    +0.018 C 
ATOM     12  C   UNL     1      13.238   7.002  19.182  0.00  0.00    +0.010 C 
ATOM     13  C   UNL     1      12.581   6.414  19.017  0.00  0.00    +0.018 C 
ATOM     14  C   UNL     1      13.200   6.616  19.066  0.00  0.00    +0.072 C 
ATOM     15  N   UNL     1      13.899   7.368  19.279  0.00  0.00    -0.272 NA
ATOM     16  C   UNL     1      13.628   8.200  19.535  0.00  0.00    +0.078 C 
ATOM     17  C   UNL     1      12.983   7.805  19.429  0.00  0.00    +0.056 C 
ENDROOT
BRANCH  17  18
ATOM     18  C   UNL     1      12.210   8.076  19.526  0.00  0.00    +0.063 A 
ATOM     19  C   UNL     1      11.876   8.106  20.280  0.00  0.00    +0.037 A 
ATOM     20  C   UNL     1      11.103   8.377  20.377  0.00  0.00    +0.118 A 
ATOM     21  N   UNL     1      10.664   8.617  19.721  0.00  0.00    -0.228 NA
ATOM     22  C   UNL     1      10.998   8.586  18.967  0.00  0.00    +0.139 A 
ATOM     23  C   UNL     1      10.560   8.826  18.311  0.00  0.00    +0.074 C 
ATOM     24  N   UNL     1      11.772   8.315  18.870  0.00  0.00    -0.235 NA
BRANCH  20  25
ATOM     25  C   UNL     1      10.767   8.408  21.130  0.00  0.00    +0.163 A 
ATOM     26  C   UNL     1      10.657   9.089  21.583  0.00  0.00    +0.042 A 
ATOM     27  C   UNL     1      10.305   8.865  22.296  0.00  0.00    +0.044 A 
ATOM     28  C   UNL     1      10.199   8.048  22.283  0.00  0.00    +0.180 A 
ATOM     29  O   UNL     1      10.484   7.765  21.562  0.00  0.00    -0.449 OA
ENDBRANCH  20  25
ENDBRANCH  17  18
BRANCH  10   9
ATOM      9  C   UNL     1      15.473   7.078  19.160  0.00  0.00    +0.131 C 
BRANCH   9   8
ATOM      6  C   UNL     1      16.697   7.169  19.891  0.00  0.00    +0.241 C 
ATOM      7  O   UNL     1      17.104   6.843  19.252  0.00  0.00    -0.273 OA
ATOM      8  N   UNL     1      15.882   7.287  19.845  0.00  0.00    -0.204 NA
BRANCH   6   3
ATOM      3  C   UNL     1      17.106   7.378  20.576  0.00  0.00    +0.078 C 
BRANCH   3   2
ATOM      1  C   UNL     1      17.324   8.537  21.384  0.00  0.00    +0.001 C 
ATOM      2  C   UNL     1      17.403   8.143  20.663  0.00  0.00    +0.009 C 
ENDBRANCH   3   2
BRANCH   3   4
ATOM      4  C   UNL     1      17.218   6.822  21.176  0.00  0.00    +0.009 C 
ATOM      5  C   UNL     1      17.398   6.040  20.984  0.00  0.00    +0.001 C 
ENDBRANCH   3   4
ENDBRANCH   6   3
ENDBRANCH   9   8
ENDBRANCH  10   9
TORSDOF 7
ENDMDL
