MODEL 1
REMARK VINA RESULT:     -10.2      0.000      0.000
REMARK  Name = 
REMARK  6 active torsions:
REMARK  status: ('A' for Active; 'I' for Inactive)
REMARK    1  A    between atoms: C_2  and  C_3
REMARK    2  A    between atoms: C_3  and  C_4
REMARK    3  A    between atoms: C_7  and  C_9
REMARK    4  A    between atoms: N_12  and  C_13
REMARK    5  A    between atoms: C_13  and  C_14
REMARK    6  A    between atoms: C_17  and  O_18
REMARK                            x       y       z     vdW  Elec       q    Type
REMARK                         _______ _______ _______ _____ _____    ______ ____
ROOT
ATOM      9  C   UNL     1      -3.585   2.098  24.753  0.00  0.00    +0.096 C 
ATOM     10  C   UNL     1      -3.614   1.890  23.955  0.00  0.00    +0.028 C 
ATOM     11  C   UNL     1      -3.991   1.158  23.897  0.00  0.00    +0.073 C 
ATOM     12  N   UNL     1      -4.194   0.914  24.658  0.00  0.00    -0.268 NA
ATOM     22  C   UNL     1      -3.943   1.495  25.187  0.00  0.00    +0.082 C 
ENDROOT
BRANCH   9   7
ATOM      4  C   UNL     1      -2.378   3.740  25.388  0.00  0.00    +0.226 A 
ATOM      5  N   UNL     1      -3.115   3.960  25.685  0.00  0.00    -0.112 NA
ATOM      6  N   UNL     1      -3.658   3.372  25.484  0.00  0.00    -0.112 NA
ATOM      7  C   UNL     1      -3.255   2.788  25.062  0.00  0.00    +0.227 A 
ATOM      8  O   UNL     1      -2.464   3.016  25.003  0.00  0.00    -0.423 OA
BRANCH   4   3
ATOM      3  C   UNL     1      -1.677   4.169  25.463  0.00  0.00    +0.087 C 
BRANCH   3   2
ATOM      1  C   UNL     1      -0.853   5.225  24.966  0.00  0.00    +0.001 C 
ATOM      2  C   UNL     1      -1.602   4.904  25.095  0.00  0.00    +0.010 C 
ENDBRANCH   3   2
ENDBRANCH   4   3
ENDBRANCH   9   7
BRANCH  12  13
ATOM     13  C   UNL     1      -4.580   0.212  24.855  0.00  0.00    +0.099 C 
BRANCH  13  14
ATOM     14  C   UNL     1      -4.171  -0.504  24.833  0.00  0.00    -0.006 A 
ATOM     15  C   UNL     1      -4.190  -0.969  24.151  0.00  0.00    +0.000 A 
ATOM     16  C   UNL     1      -3.781  -1.685  24.128  0.00  0.00    +0.037 A 
ATOM     17  C   UNL     1      -3.354  -1.937  24.787  0.00  0.00    +0.139 A 
ATOM     20  C   UNL     1      -3.335  -1.473  25.469  0.00  0.00    +0.037 A 
ATOM     21  C   UNL     1      -3.744  -0.756  25.492  0.00  0.00    +0.000 A 
BRANCH  17  18
ATOM     18  O   UNL     1      -2.945  -2.653  24.764  0.00  0.00    -0.471 OA
ATOM     19  C   UNL     1      -2.164  -2.674  24.499  0.00  0.00    +0.252 C 
ENDBRANCH  17  18
ENDBRANCH  13  14
ENDBRANCH  12  13
TORSDOF 6
ENDMDL
MODEL 2
REMARK VINA RESULT:      -9.9      1.225      5.096
REMARK  Name = 
REMARK  6 active torsions:
REMARK  status: ('A' for Active; 'I' for Inactive)
REMARK    1  A    between atoms: C_2  and  C_3
REMARK    2  A    between atoms: C_3  and  C_4
REMARK    3  A    between atoms: C_7  and  C_9
REMARK    4  A    between atoms: N_12  and  C_13
REMARK    5  A    between atoms: C_13  and  C_14
REMARK    6  A    between atoms: C_17  and  O_18
REMARK                            x       y       z     vdW  Elec       q    Type
REMARK                         _______ _______ _______ _____ _____    ______ ____
ROOT
ATOM      9  C   UNL     1      -4.539   0.882  24.936  0.00  0.00    +0.096 C 
ATOM     10  C   UNL     1      -5.218   1.178  25.300  0.00  0.00    +0.028 C 
ATOM     11  C   UNL     1      -5.249   1.991  25.159  0.00  0.00    +0.073 C 
ATOM     12  N   UNL     1      -4.589   2.196  24.708  0.00  0.00    -0.268 NA
ATOM     22  C   UNL     1      -4.150   1.511  24.570  0.00  0.00    +0.082 C 
ENDROOT
BRANCH   9   7
ATOM      4  C   UNL     1      -4.059  -1.163  24.557  0.00  0.00    +0.226 A 
ATOM      5  N   UNL     1      -3.766  -1.070  25.322  0.00  0.00    -0.112 NA
ATOM      6  N   UNL     1      -3.910  -0.292  25.558  0.00  0.00    -0.112 NA
ATOM      7  C   UNL     1      -4.292   0.095  24.938  0.00  0.00    +0.227 A 
ATOM      8  O   UNL     1      -4.384  -0.444  24.319  0.00  0.00    -0.423 OA
BRANCH   4   3
ATOM      3  C   UNL     1      -4.032  -1.855  24.108  0.00  0.00    +0.087 C 
BRANCH   3   2
ATOM      1  C   UNL     1      -3.670  -3.231  23.978  0.00  0.00    +0.001 C 
ATOM      2  C   UNL     1      -3.673  -2.531  24.415  0.00  0.00    +0.010 C 
ENDBRANCH   3   2
ENDBRANCH   4   3
ENDBRANCH   9   7
BRANCH  12  13
ATOM     13  C   UNL     1      -4.401   2.955  24.442  0.00  0.00    +0.099 C 
BRANCH  13  14
ATOM     14  C   UNL     1      -3.745   3.349  24.749  0.00  0.00    -0.006 A 
ATOM     15  C   UNL     1      -3.802   3.746  25.471  0.00  0.00    +0.000 A 
ATOM     16  C   UNL     1      -3.146   4.140  25.778  0.00  0.00    +0.037 A 
ATOM     17  C   UNL     1      -2.432   4.137  25.363  0.00  0.00    +0.139 A 
ATOM     20  C   UNL     1      -2.375   3.741  24.642  0.00  0.00    +0.037 A 
ATOM     21  C   UNL     1      -3.032   3.346  24.335  0.00  0.00    +0.000 A 
BRANCH  17  18
ATOM     18  O   UNL     1      -1.776   4.531  25.670  0.00  0.00    -0.471 OA
ATOM     19  C   UNL     1      -1.266   4.940  25.165  0.00  0.00    +0.252 C 
ENDBRANCH  17  18
ENDBRANCH  13  14
ENDBRANCH  12  13
TORSDOF 6
ENDMDL
MODEL 3
REMARK VINA RESULT:      -9.7      2.061      2.427
REMARK  Name = 
REMARK  6 active torsions:
REMARK  status: ('A' for Active; 'I' for Inactive)
REMARK    1  A    between atoms: C_2  and  C_3
REMARK    2  A    between atoms: C_3  and  C_4
REMARK    3  A    between atoms: C_7  and  C_9
REMARK    4  A    between atoms: N_12  and  C_13
REMARK    5  A    between atoms: C_13  and  C_14
REMARK    6  A    between atoms: C_17  and  O_18
REMARK                            x       y       z     vdW  Elec       q    Type
REMARK                         _______ _______ _______ _____ _____    ______ ____
ROOT
ATOM      9  C   UNL     1      -0.731   1.023  25.198  0.00  0.00    +0.096 C 
ATOM     10  C   UNL     1      -0.475   0.679  24.493  0.00  0.00    +0.028 C 
ATOM     11  C   UNL     1      -0.612  -0.133  24.541  0.00  0.00    +0.073 C 
ATOM     12  N   UNL     1      -0.951  -0.292  25.276  0.00  0.00    -0.268 NA
ATOM     22  C   UNL     1      -1.024   0.423  25.682  0.00  0.00    +0.082 C 
ENDROOT
BRANCH   9   7
ATOM      4  C   UNL     1      -1.015   3.118  25.496  0.00  0.00    +0.226 A 
ATOM      5  N   UNL     1      -0.281   3.003  25.855  0.00  0.00    -0.112 NA
ATOM      6  N   UNL     1      -0.084   2.205  25.787  0.00  0.00    -0.112 NA
ATOM      7  C   UNL     1      -0.698   1.825  25.387  0.00  0.00    +0.227 A 
ATOM      8  O   UNL     1      -1.272   2.390  25.207  0.00  0.00    -0.423 OA
BRANCH   4   3
ATOM      3  C   UNL     1      -1.420   3.834  25.438  0.00  0.00    +0.087 C 
BRANCH   3   2
ATOM      1  C   UNL     1      -1.436   5.217  25.081  0.00  0.00    +0.001 C 
ATOM      2  C   UNL     1      -1.055   4.486  25.087  0.00  0.00    +0.010 C 
ENDBRANCH   3   2
ENDBRANCH   4   3
ENDBRANCH   9   7
BRANCH  12  13
ATOM     13  C   UNL     1      -1.177  -1.034  25.556  0.00  0.00    +0.099 C 
BRANCH  13  14
ATOM     14  C   UNL     1      -1.873  -1.384  25.283  0.00  0.00    -0.006 A 
ATOM     15  C   UNL     1      -1.842  -1.954  24.687  0.00  0.00    +0.000 A 
ATOM     16  C   UNL     1      -2.538  -2.303  24.414  0.00  0.00    +0.037 A 
ATOM     17  C   UNL     1      -3.264  -2.082  24.738  0.00  0.00    +0.139 A 
ATOM     20  C   UNL     1      -3.295  -1.513  25.333  0.00  0.00    +0.037 A 
ATOM     21  C   UNL     1      -2.599  -1.163  25.607  0.00  0.00    +0.000 A 
BRANCH  17  18
ATOM     18  O   UNL     1      -3.960  -2.431  24.465  0.00  0.00    -0.471 OA
ATOM     19  C   UNL     1      -4.335  -2.134  23.793  0.00  0.00    +0.252 C 
ENDBRANCH  17  18
ENDBRANCH  13  14
ENDBRANCH  12  13
TORSDOF 6
ENDMDL
MODEL 4
REMARK VINA RESULT:      -9.2      2.034      5.020
REMARK  Name = 
REMARK  6 active torsions:
REMARK  status: ('A' for Active; 'I' for Inactive)
REMARK    1  A    between atoms: C_2  and  C_3
REMARK    2  A    between atoms: C_3  and  C_4
REMARK    3  A    between atoms: C_7  and  C_9
REMARK    4  A    between atoms: N_12  and  C_13
REMARK    5  A    between atoms: C_13  and  C_14
REMARK    6  A    between atoms: C_17  and  O_18
REMARK                            x       y       z     vdW  Elec       q    Type
REMARK                         _______ _______ _______ _____ _____    ______ ____
ROOT
ATOM      9  C   UNL     1      -1.469   0.617  24.947  0.00  0.00    +0.096 C 
ATOM     10  C   UNL     1      -1.010   1.002  25.515  0.00  0.00    +0.028 C 
ATOM     11  C   UNL     1      -1.106   1.815  25.412  0.00  0.00    +0.073 C 
ATOM     12  N   UNL     1      -1.624   1.933  24.781  0.00  0.00    -0.268 NA
ATOM     22  C   UNL     1      -1.848   1.193  24.493  0.00  0.00    +0.082 C 
ENDROOT
BRANCH   9   7
ATOM      4  C   UNL     1      -2.034  -1.438  24.829  0.00  0.00    +0.226 A 
ATOM      5  N   UNL     1      -1.250  -1.473  24.575  0.00  0.00    -0.112 NA
ATOM      6  N   UNL     1      -0.942  -0.707  24.588  0.00  0.00    -0.112 NA
ATOM      7  C   UNL     1      -1.537  -0.199  24.850  0.00  0.00    +0.227 A 
ATOM      8  O   UNL     1      -2.211  -0.651  24.999  0.00  0.00    -0.423 OA
BRANCH   4   3
ATOM      3  C   UNL     1      -2.549  -2.078  24.900  0.00  0.00    +0.087 C 
BRANCH   3   2
ATOM      1  C   UNL     1      -3.691  -2.804  24.440  0.00  0.00    +0.001 C 
ATOM      2  C   UNL     1      -3.164  -2.175  24.358  0.00  0.00    +0.010 C 
ENDBRANCH   3   2
ENDBRANCH   4   3
ENDBRANCH   9   7
BRANCH  12  13
ATOM     13  C   UNL     1      -1.874   2.663  24.488  0.00  0.00    +0.099 C 
BRANCH  13  14
ATOM     14  C   UNL     1      -2.615   2.959  24.697  0.00  0.00    -0.006 A 
ATOM     15  C   UNL     1      -3.263   2.835  24.202  0.00  0.00    +0.000 A 
ATOM     16  C   UNL     1      -4.004   3.131  24.410  0.00  0.00    +0.037 A 
ATOM     17  C   UNL     1      -4.097   3.552  25.114  0.00  0.00    +0.139 A 
ATOM     20  C   UNL     1      -3.449   3.677  25.608  0.00  0.00    +0.037 A 
ATOM     21  C   UNL     1      -2.707   3.380  25.400  0.00  0.00    +0.000 A 
BRANCH  17  18
ATOM     18  O   UNL     1      -4.838   3.848  25.322  0.00  0.00    -0.471 OA
ATOM     19  C   UNL     1      -5.419   3.339  25.613  0.00  0.00    +0.252 C 
ENDBRANCH  17  18
ENDBRANCH  13  14
ENDBRANCH  12  13
TORSDOF 6
ENDMDL
MODEL 5
REMARK VINA RESULT:      -9.2      2.303      5.536
REMARK  Name = 
REMARK  6 active torsions:
REMARK  status: ('A' for Active; 'I' for Inactive)
REMARK    1  A    between atoms: C_2  and  C_3
REMARK    2  A    between atoms: C_3  and  C_4
REMARK    3  A    between atoms: C_7  and  C_9
REMARK    4  A    between atoms: N_12  and  C_13
REMARK    5  A    between atoms: C_13  and  C_14
REMARK    6  A    between atoms: C_17  and  O_18
REMARK                            x       y       z     vdW  Elec       q    Type
REMARK                         _______ _______ _______ _____ _____    ______ ____
ROOT
ATOM      9  C   UNL     1      -1.017   0.157  24.814  0.00  0.00    +0.096 C 
ATOM     10  C   UNL     1      -0.533   0.388  24.186  0.00  0.00    +0.028 C 
ATOM     11  C   UNL     1      -0.164   1.096  24.396  0.00  0.00    +0.073 C 
ATOM     12  N   UNL     1      -0.420   1.303  25.152  0.00  0.00    -0.268 NA
ATOM     22  C   UNL     1      -0.947   0.723  25.410  0.00  0.00    +0.082 C 
ENDROOT
BRANCH   9   7
ATOM      4  C   UNL     1      -2.545  -1.333  24.784  0.00  0.00    +0.226 A 
ATOM      5  N   UNL     1      -1.883  -1.787  24.972  0.00  0.00    -0.112 NA
ATOM      6  N   UNL     1      -1.229  -1.284  25.006  0.00  0.00    -0.112 NA
ATOM      7  C   UNL     1      -1.488  -0.519  24.839  0.00  0.00    +0.227 A 
ATOM      8  O   UNL     1      -2.301  -0.549  24.702  0.00  0.00    -0.423 OA
BRANCH   4   3
ATOM      3  C   UNL     1      -3.316  -1.613  24.694  0.00  0.00    +0.087 C 
BRANCH   3   2
ATOM      1  C   UNL     1      -4.189  -2.492  23.982  0.00  0.00    +0.001 C 
ATOM      2  C   UNL     1      -3.450  -2.333  24.313  0.00  0.00    +0.010 C 
ENDBRANCH   3   2
ENDBRANCH   4   3
ENDBRANCH   9   7
BRANCH  12  13
ATOM     13  C   UNL     1      -0.189   1.972  25.576  0.00  0.00    +0.099 C 
BRANCH  13  14
ATOM     14  C   UNL     1      -0.605   2.679  25.488  0.00  0.00    -0.006 A 
ATOM     15  C   UNL     1      -0.397   3.209  24.891  0.00  0.00    +0.000 A 
ATOM     16  C   UNL     1      -0.812   3.916  24.803  0.00  0.00    +0.037 A 
ATOM     17  C   UNL     1      -1.436   4.094  25.313  0.00  0.00    +0.139 A 
ATOM     20  C   UNL     1      -1.644   3.565  25.910  0.00  0.00    +0.037 A 
ATOM     21  C   UNL     1      -1.229   2.857  25.999  0.00  0.00    +0.000 A 
BRANCH  17  18
ATOM     18  O   UNL     1      -1.851   4.801  25.226  0.00  0.00    -0.471 OA
ATOM     19  C   UNL     1      -1.448   5.496  25.037  0.00  0.00    +0.252 C 
ENDBRANCH  17  18
ENDBRANCH  13  14
ENDBRANCH  12  13
TORSDOF 6
ENDMDL
