MODEL 1
REMARK VINA RESULT:     -11.6      0.000      0.000
REMARK  Name = 
REMARK  6 active torsions:
REMARK  status: ('A' for Active; 'I' for Inactive)
REMARK    1  A    between atoms: C_2  and  C_5
REMARK    2  A    between atoms: C_5  and  C_6
REMARK    3  A    between atoms: N_8  and  C_9
REMARK    4  A    between atoms: C_9  and  C_10
REMARK    5  A    between atoms: C_13  and  N_14
REMARK    6  A    between atoms: N_14  and  C_15
REMARK                            x       y       z     vdW  Elec       q    Type
REMARK                         _______ _______ _______ _____ _____    ______ ____
ROOT
ATOM     10  C   UNL     1      -3.307   1.589  24.512  0.00  0.00    +0.169 C 
ATOM     11  O   UNL     1      -2.724   1.055  24.274  0.00  0.00    -0.350 OA
ATOM     12  C   UNL     1      -3.057   0.299  24.270  0.00  0.00    +0.162 C 
ATOM     13  C   UNL     1      -3.845   0.367  24.505  0.00  0.00    +0.135 C 
ATOM     23  C   UNL     1      -3.999   1.164  24.654  0.00  0.00    +0.199 C 
ATOM     24  O   UNL     1      -4.720   1.480  24.903  0.00  0.00    -0.219 OA
ENDROOT
BRANCH  10   9
ATOM      9  C   UNL     1      -3.213   2.404  24.593  0.00  0.00    +0.147 C 
BRANCH   9   8
ATOM      6  C   UNL     1      -2.410   3.517  24.992  0.00  0.00    +0.241 C 
ATOM      7  O   UNL     1      -2.910   4.026  24.578  0.00  0.00    -0.273 OA
ATOM      8  N   UNL     1      -2.561   2.706  25.000  0.00  0.00    -0.203 NA
BRANCH   6   5
ATOM      5  C   UNL     1      -1.758   3.819  25.398  0.00  0.00    +0.087 C 
BRANCH   5   2
ATOM      1  C   UNL     1      -1.124   5.281  24.971  0.00  0.00    +0.000 C 
ATOM      2  C   UNL     1      -1.441   4.550  25.184  0.00  0.00    +0.009 C 
ATOM      3  C   UNL     1      -0.834   4.168  24.778  0.00  0.00    +0.000 C 
ATOM      4  C   UNL     1      -2.049   4.932  25.591  0.00  0.00    +0.000 C 
ENDBRANCH   5   2
ENDBRANCH   6   5
ENDBRANCH   9   8
ENDBRANCH  10   9
BRANCH  13  14
ATOM     14  N   UNL     1      -4.385  -0.253  24.577  0.00  0.00    -0.216 NA
BRANCH  14  15
ATOM     15  C   UNL     1      -4.116  -1.032  24.604  0.00  0.00    +0.073 C 
ATOM     16  C   UNL     1      -4.199  -1.520  23.943  0.00  0.00    +0.023 C 
ATOM     17  C   UNL     1      -3.930  -2.300  23.971  0.00  0.00    +0.068 C 
ATOM     18  C   UNL     1      -3.580  -2.592  24.657  0.00  0.00    +0.264 C 
ATOM     19  F   UNL     1      -3.535  -3.262  24.178  0.00  0.00    -0.204 F 
ATOM     20  F   UNL     1      -3.214  -3.117  25.178  0.00  0.00    -0.204 F 
ATOM     21  C   UNL     1      -3.497  -2.105  25.318  0.00  0.00    +0.068 C 
ATOM     22  C   UNL     1      -3.766  -1.324  25.291  0.00  0.00    +0.023 C 
ENDBRANCH  14  15
ENDBRANCH  13  14
TORSDOF 6
ENDMDL
MODEL 2
REMARK VINA RESULT:     -11.3      2.855      5.888
REMARK  Name = 
REMARK  6 active torsions:
REMARK  status: ('A' for Active; 'I' for Inactive)
REMARK    1  A    between atoms: C_2  and  C_5
REMARK    2  A    between atoms: C_5  and  C_6
REMARK    3  A    between atoms: N_8  and  C_9
REMARK    4  A    between atoms: C_9  and  C_10
REMARK    5  A    between atoms: C_13  and  N_14
REMARK    6  A    between atoms: N_14  and  C_15
REMARK                            x       y       z     vdW  Elec       q    Type
REMARK                         _______ _______ _______ _____ _____    ______ ____
ROOT
ATOM     10  C   UNL     1      -2.056   0.938  24.933  0.00  0.00    +0.169 C 
ATOM     11  O   UNL     1      -2.576   1.528  24.684  0.00  0.00    -0.350 OA
ATOM     12  C   UNL     1      -2.296   2.251  24.967  0.00  0.00    +0.162 C 
ATOM     13  C   UNL     1      -1.603   2.108  25.391  0.00  0.00    +0.135 C 
ATOM     23  C   UNL     1      -1.455   1.296  25.370  0.00  0.00    +0.199 C 
ATOM     24  O   UNL     1      -0.816   0.910  25.724  0.00  0.00    -0.219 OA
ENDROOT
BRANCH  10   9
ATOM      9  C   UNL     1      -2.125   0.132  24.774  0.00  0.00    +0.147 C 
BRANCH   9   8
ATOM      6  C   UNL     1      -2.933  -1.043  24.674  0.00  0.00    +0.241 C 
ATOM      7  O   UNL     1      -2.295  -1.454  24.349  0.00  0.00    -0.273 OA
ATOM      8  N   UNL     1      -2.848  -0.250  24.887  0.00  0.00    -0.203 NA
BRANCH   6   5
ATOM      5  C   UNL     1      -3.655  -1.425  24.787  0.00  0.00    +0.087 C 
BRANCH   5   2
ATOM      1  C   UNL     1      -3.938  -2.883  24.068  0.00  0.00    +0.000 C 
ATOM      2  C   UNL     1      -3.797  -2.154  24.428  0.00  0.00    +0.009 C 
ATOM      3  C   UNL     1      -4.173  -1.772  23.801  0.00  0.00    +0.000 C 
ATOM      4  C   UNL     1      -3.420  -2.537  25.055  0.00  0.00    +0.000 C 
ENDBRANCH   5   2
ENDBRANCH   6   5
ENDBRANCH   9   8
ENDBRANCH  10   9
BRANCH  13  14
ATOM     14  N   UNL     1      -1.139   2.675  25.769  0.00  0.00    -0.216 NA
BRANCH  14  15
ATOM     15  C   UNL     1      -1.168   3.462  25.524  0.00  0.00    +0.073 C 
ATOM     16  C   UNL     1      -0.581   3.760  25.026  0.00  0.00    +0.023 C 
ATOM     17  C   UNL     1      -0.609   4.547  24.780  0.00  0.00    +0.068 C 
ATOM     18  C   UNL     1      -1.223   5.036  25.031  0.00  0.00    +0.264 C 
ATOM     19  F   UNL     1      -0.799   5.568  24.565  0.00  0.00    -0.204 F 
ATOM     20  F   UNL     1      -1.691   5.710  25.121  0.00  0.00    -0.204 F 
ATOM     21  C   UNL     1      -1.810   4.738  25.529  0.00  0.00    +0.068 C 
ATOM     22  C   UNL     1      -1.782   3.951  25.776  0.00  0.00    +0.023 C 
ENDBRANCH  14  15
ENDBRANCH  13  14
TORSDOF 6
ENDMDL
