MODEL 1
REMARK VINA RESULT:     -11.4      0.000      0.000
REMARK  Name = 
REMARK  8 active torsions:
REMARK  status: ('A' for Active; 'I' for Inactive)
REMARK    1  A    between atoms: N_4  and  C_22
REMARK    2  A    between atoms: C_7  and  C_8
REMARK    3  A    between atoms: C_10  and  N_11
REMARK    4  A    between atoms: C_12  and  C_14
REMARK    5  A    between atoms: C_14  and  C_15
REMARK    6  A    between atoms: C_15  and  C_16
REMARK    7  A    between atoms: C_16  and  C_17
REMARK    8  A    between atoms: C_25  and  C_28
REMARK                            x       y       z     vdW  Elec       q    Type
REMARK                         _______ _______ _______ _____ _____    ______ ____
ROOT
ATOM      1  C   UNL     1      -5.452   2.792  25.857  0.00  0.00    +0.054 C 
ATOM      2  C   UNL     1      -4.680   2.854  25.575  0.00  0.00    +0.077 A 
ATOM      3  N   UNL     1      -4.201   3.525  25.616  0.00  0.00    -0.170 NA
ATOM      4  N   UNL     1      -3.476   3.343  25.268  0.00  0.00    -0.234 N 
ATOM      5  C   UNL     1      -3.506   2.559  25.012  0.00  0.00    +0.058 A 
ATOM      6  C   UNL     1      -2.899   2.148  24.633  0.00  0.00    +0.052 C 
ATOM      7  C   UNL     1      -4.250   2.257  25.202  0.00  0.00    +0.010 A 
ENDROOT
BRANCH   4  22
ATOM     22  C   UNL     1      -2.833   3.854  25.190  0.00  0.00    +0.082 A 
ATOM     23  C   UNL     1      -2.253   3.879  25.775  0.00  0.00    +0.019 A 
ATOM     24  C   UNL     1      -1.610   4.390  25.697  0.00  0.00    +0.005 A 
ATOM     25  C   UNL     1      -1.547   4.876  25.033  0.00  0.00    +0.072 A 
ATOM     26  C   UNL     1      -2.128   4.851  24.447  0.00  0.00    +0.005 A 
ATOM     27  C   UNL     1      -2.771   4.339  24.525  0.00  0.00    +0.019 A 
BRANCH  25  28
ATOM     28  C   UNL     1      -0.905   5.387  24.955  0.00  0.00    +0.419 C 
ATOM     29  F   UNL     1      -0.262   5.898  24.876  0.00  0.00    -0.166 F 
ATOM     30  F   UNL     1      -0.453   4.771  24.643  0.00  0.00    -0.166 F 
ATOM     31  F   UNL     1      -1.357   6.003  25.266  0.00  0.00    -0.166 F 
ENDBRANCH  25  28
ENDBRANCH   4  22
BRANCH   7   8
ATOM      8  C   UNL     1      -4.518   1.493  25.046  0.00  0.00    +0.048 C 
ATOM      9  C   UNL     1      -4.111   0.794  25.211  0.00  0.00    +0.035 C 
ATOM     10  C   UNL     1      -4.581   0.161  24.966  0.00  0.00    +0.118 C 
ATOM     20  C   UNL     1      -5.277   0.469  24.650  0.00  0.00    -0.009 C 
ATOM     21  C   UNL     1      -5.239   1.292  24.699  0.00  0.00    -0.025 C 
BRANCH  10  11
ATOM     11  N   UNL     1      -4.388  -0.638  25.026  0.00  0.00    -0.203 NA
ATOM     12  C   UNL     1      -4.146  -1.056  24.357  0.00  0.00    +0.242 C 
ATOM     13  O   UNL     1      -4.098  -0.674  23.627  0.00  0.00    -0.273 OA
BRANCH  12  14
ATOM     14  C   UNL     1      -3.953  -1.855  24.417  0.00  0.00    +0.087 C 
BRANCH  14  15
ATOM     15  C   UNL     1      -3.216  -2.123  24.159  0.00  0.00    +0.021 C 
BRANCH  15  16
ATOM     16  C   UNL     1      -2.800  -2.678  24.605  0.00  0.00    +0.115 C 
BRANCH  16  17
ATOM     17  C   UNL     1      -1.988  -2.776  24.489  0.00  0.00    +0.365 C 
ATOM     18  O   UNL     1      -1.457  -2.556  25.080  0.00  0.00    -0.246 OA
ATOM     19  O   UNL     1      -1.709  -3.094  23.781  0.00  0.00    -0.246 OA
ENDBRANCH  16  17
ENDBRANCH  15  16
ENDBRANCH  14  15
ENDBRANCH  12  14
ENDBRANCH  10  11
ENDBRANCH   7   8
TORSDOF 8
ENDMDL
MODEL 2
REMARK VINA RESULT:     -11.3      3.437      5.837
REMARK  Name = 
REMARK  8 active torsions:
REMARK  status: ('A' for Active; 'I' for Inactive)
REMARK    1  A    between atoms: N_4  and  C_22
REMARK    2  A    between atoms: C_7  and  C_8
REMARK    3  A    between atoms: C_10  and  N_11
REMARK    4  A    between atoms: C_12  and  C_14
REMARK    5  A    between atoms: C_14  and  C_15
REMARK    6  A    between atoms: C_15  and  C_16
REMARK    7  A    between atoms: C_16  and  C_17
REMARK    8  A    between atoms: C_25  and  C_28
REMARK                            x       y       z     vdW  Elec       q    Type
REMARK                         _______ _______ _______ _____ _____    ______ ____
ROOT
ATOM      1  C   UNL     1      -5.782   1.459  25.746  0.00  0.00    +0.054 C 
ATOM      2  C   UNL     1      -5.197   1.033  25.350  0.00  0.00    +0.077 A 
ATOM      3  N   UNL     1      -5.112   0.212  25.349  0.00  0.00    -0.170 NA
ATOM      4  N   UNL     1      -4.457   0.024  24.884  0.00  0.00    -0.234 N 
ATOM      5  C   UNL     1      -4.138   0.728  24.597  0.00  0.00    +0.058 A 
ATOM      6  C   UNL     1      -3.476   0.798  24.108  0.00  0.00    +0.052 C 
ATOM      7  C   UNL     1      -4.595   1.352  24.885  0.00  0.00    +0.010 A 
ENDROOT
BRANCH   4  22
ATOM     22  C   UNL     1      -4.171  -0.735  24.732  0.00  0.00    +0.082 A 
ATOM     23  C   UNL     1      -4.390  -1.127  24.041  0.00  0.00    +0.019 A 
ATOM     24  C   UNL     1      -4.105  -1.886  23.889  0.00  0.00    +0.005 A 
ATOM     25  C   UNL     1      -3.600  -2.253  24.429  0.00  0.00    +0.072 A 
ATOM     26  C   UNL     1      -3.382  -1.861  25.121  0.00  0.00    +0.005 A 
ATOM     27  C   UNL     1      -3.667  -1.102  25.273  0.00  0.00    +0.019 A 
BRANCH  25  28
ATOM     28  C   UNL     1      -3.315  -3.012  24.277  0.00  0.00    +0.419 C 
ATOM     29  F   UNL     1      -3.030  -3.771  24.126  0.00  0.00    -0.166 F 
ATOM     30  F   UNL     1      -4.082  -3.311  24.329  0.00  0.00    -0.166 F 
ATOM     31  F   UNL     1      -2.548  -2.713  24.226  0.00  0.00    -0.166 F 
ENDBRANCH  25  28
ENDBRANCH   4  22
BRANCH   7   8
ATOM      8  C   UNL     1      -4.473   2.154  24.735  0.00  0.00    +0.048 C 
ATOM      9  C   UNL     1      -3.754   2.554  24.797  0.00  0.00    +0.035 C 
ATOM     10  C   UNL     1      -3.883   3.344  24.597  0.00  0.00    +0.118 C 
ATOM     20  C   UNL     1      -4.682   3.432  24.412  0.00  0.00    -0.009 C 
ATOM     21  C   UNL     1      -5.046   2.697  24.497  0.00  0.00    -0.025 C 
BRANCH  10  11
ATOM     11  N   UNL     1      -3.314   3.940  24.585  0.00  0.00    -0.203 NA
ATOM     12  C   UNL     1      -3.015   4.241  25.292  0.00  0.00    +0.242 C 
ATOM     13  O   UNL     1      -3.286   3.945  26.013  0.00  0.00    -0.273 OA
BRANCH  12  14
ATOM     14  C   UNL     1      -2.446   4.838  25.280  0.00  0.00    +0.087 C 
BRANCH  14  15
ATOM     15  C   UNL     1      -1.646   4.647  25.342  0.00  0.00    +0.021 C 
BRANCH  15  16
ATOM     16  C   UNL     1      -1.077   5.134  24.998  0.00  0.00    +0.115 C 
BRANCH  16  17
ATOM     17  C   UNL     1      -0.377   4.810  24.706  0.00  0.00    +0.365 C 
ATOM     18  O   UNL     1       0.016   4.223  25.132  0.00  0.00    -0.246 OA
ATOM     19  O   UNL     1      -0.070   5.073  23.987  0.00  0.00    -0.246 OA
ENDBRANCH  16  17
ENDBRANCH  15  16
ENDBRANCH  14  15
ENDBRANCH  12  14
ENDBRANCH  10  11
ENDBRANCH   7   8
TORSDOF 8
ENDMDL
MODEL 3
REMARK VINA RESULT:     -10.8      3.423      4.417
REMARK  Name = 
REMARK  8 active torsions:
REMARK  status: ('A' for Active; 'I' for Inactive)
REMARK    1  A    between atoms: N_4  and  C_22
REMARK    2  A    between atoms: C_7  and  C_8
REMARK    3  A    between atoms: C_10  and  N_11
REMARK    4  A    between atoms: C_12  and  C_14
REMARK    5  A    between atoms: C_14  and  C_15
REMARK    6  A    between atoms: C_15  and  C_16
REMARK    7  A    between atoms: C_16  and  C_17
REMARK    8  A    between atoms: C_25  and  C_28
REMARK                            x       y       z     vdW  Elec       q    Type
REMARK                         _______ _______ _______ _____ _____    ______ ____
ROOT
ATOM      1  C   UNL     1      -3.431  -1.007  24.247  0.00  0.00    +0.054 C 
ATOM      2  C   UNL     1      -3.403  -0.213  24.470  0.00  0.00    +0.077 A 
ATOM      3  N   UNL     1      -4.052   0.289  24.558  0.00  0.00    -0.170 NA
ATOM      4  N   UNL     1      -3.771   1.031  24.786  0.00  0.00    -0.234 N 
ATOM      5  C   UNL     1      -2.949   0.986  24.839  0.00  0.00    +0.058 A 
ATOM      6  C   UNL     1      -2.443   1.603  25.050  0.00  0.00    +0.052 C 
ATOM      7  C   UNL     1      -2.721   0.218  24.643  0.00  0.00    +0.010 A 
ENDROOT
BRANCH   4  22
ATOM     22  C   UNL     1      -4.232   1.699  24.935  0.00  0.00    +0.082 A 
ATOM     23  C   UNL     1      -4.174   2.357  24.443  0.00  0.00    +0.019 A 
ATOM     24  C   UNL     1      -4.635   3.025  24.592  0.00  0.00    +0.005 A 
ATOM     25  C   UNL     1      -5.153   3.034  25.233  0.00  0.00    +0.072 A 
ATOM     26  C   UNL     1      -5.211   2.375  25.726  0.00  0.00    +0.005 A 
ATOM     27  C   UNL     1      -4.751   1.707  25.577  0.00  0.00    +0.019 A 
BRANCH  25  28
ATOM     28  C   UNL     1      -5.614   3.702  25.382  0.00  0.00    +0.419 C 
ATOM     29  F   UNL     1      -6.074   4.370  25.531  0.00  0.00    -0.166 F 
ATOM     30  F   UNL     1      -6.295   3.238  25.354  0.00  0.00    -0.166 F 
ATOM     31  F   UNL     1      -4.932   4.166  25.410  0.00  0.00    -0.166 F 
ENDBRANCH  25  28
ENDBRANCH   4  22
BRANCH   7   8
ATOM      8  C   UNL     1      -1.949  -0.069  24.625  0.00  0.00    +0.048 C 
ATOM      9  C   UNL     1      -1.481  -0.158  23.951  0.00  0.00    +0.035 C 
ATOM     10  C   UNL     1      -0.751  -0.462  24.185  0.00  0.00    +0.118 C 
ATOM     20  C   UNL     1      -0.767  -0.562  25.003  0.00  0.00    -0.009 C 
ATOM     21  C   UNL     1      -1.507  -0.319  25.275  0.00  0.00    -0.025 C 
BRANCH  10  11
ATOM     11  N   UNL     1      -0.116  -0.636  23.688  0.00  0.00    -0.203 NA
ATOM     12  C   UNL     1       0.418  -0.043  23.476  0.00  0.00    +0.242 C 
ATOM     13  O   UNL     1       0.316   0.724  23.762  0.00  0.00    -0.273 OA
BRANCH  12  14
ATOM     14  C   UNL     1       1.052  -0.217  22.980  0.00  0.00    +0.087 C 
BRANCH  14  15
ATOM     15  C   UNL     1       1.763   0.194  23.058  0.00  0.00    +0.021 C 
BRANCH  15  16
ATOM     16  C   UNL     1       2.364   0.089  22.504  0.00  0.00    +0.115 C 
BRANCH  16  17
ATOM     17  C   UNL     1       3.139   0.309  22.687  0.00  0.00    +0.365 C 
ATOM     18  O   UNL     1       3.677  -0.257  22.952  0.00  0.00    -0.246 OA
ATOM     19  O   UNL     1       3.374   1.095  22.605  0.00  0.00    -0.246 OA
ENDBRANCH  16  17
ENDBRANCH  15  16
ENDBRANCH  14  15
ENDBRANCH  12  14
ENDBRANCH  10  11
ENDBRANCH   7   8
TORSDOF 8
ENDMDL
MODEL 4
REMARK VINA RESULT:     -10.3      4.495      5.602
REMARK  Name = 
REMARK  8 active torsions:
REMARK  status: ('A' for Active; 'I' for Inactive)
REMARK    1  A    between atoms: N_4  and  C_22
REMARK    2  A    between atoms: C_7  and  C_8
REMARK    3  A    between atoms: C_10  and  N_11
REMARK    4  A    between atoms: C_12  and  C_14
REMARK    5  A    between atoms: C_14  and  C_15
REMARK    6  A    between atoms: C_15  and  C_16
REMARK    7  A    between atoms: C_16  and  C_17
REMARK    8  A    between atoms: C_25  and  C_28
REMARK                            x       y       z     vdW  Elec       q    Type
REMARK                         _______ _______ _______ _____ _____    ______ ____
ROOT
ATOM      1  C   UNL     1      -0.601  -0.722  25.252  0.00  0.00    +0.054 C 
ATOM      2  C   UNL     1      -1.100  -0.173  24.892  0.00  0.00    +0.077 A 
ATOM      3  N   UNL     1      -1.854   0.038  25.150  0.00  0.00    -0.170 NA
ATOM      4  N   UNL     1      -2.154   0.603  24.628  0.00  0.00    -0.234 N 
ATOM      5  C   UNL     1      -1.583   0.741  24.048  0.00  0.00    +0.058 A 
ATOM      6  C   UNL     1      -1.652   1.266  23.415  0.00  0.00    +0.052 C 
ATOM      7  C   UNL     1      -0.932   0.261  24.211  0.00  0.00    +0.010 A 
ENDROOT
BRANCH   4  22
ATOM     22  C   UNL     1      -2.893   0.967  24.678  0.00  0.00    +0.082 A 
ATOM     23  C   UNL     1      -2.948   1.760  24.894  0.00  0.00    +0.019 A 
ATOM     24  C   UNL     1      -3.687   2.124  24.944  0.00  0.00    +0.005 A 
ATOM     25  C   UNL     1      -4.370   1.693  24.777  0.00  0.00    +0.072 A 
ATOM     26  C   UNL     1      -4.315   0.899  24.561  0.00  0.00    +0.005 A 
ATOM     27  C   UNL     1      -3.576   0.535  24.511  0.00  0.00    +0.019 A 
BRANCH  25  28
ATOM     28  C   UNL     1      -5.109   2.057  24.827  0.00  0.00    +0.419 C 
ATOM     29  F   UNL     1      -5.848   2.420  24.877  0.00  0.00    -0.166 F 
ATOM     30  F   UNL     1      -5.226   1.717  25.569  0.00  0.00    -0.166 F 
ATOM     31  F   UNL     1      -4.992   2.397  24.084  0.00  0.00    -0.166 F 
ENDBRANCH  25  28
ENDBRANCH   4  22
BRANCH   7   8
ATOM      8  C   UNL     1      -0.236   0.222  23.771  0.00  0.00    +0.048 C 
ATOM      9  C   UNL     1       0.417   0.720  23.851  0.00  0.00    +0.035 C 
ATOM     10  C   UNL     1       0.987   0.485  23.304  0.00  0.00    +0.118 C 
ATOM     20  C   UNL     1       0.687  -0.159  22.885  0.00  0.00    -0.009 C 
ATOM     21  C   UNL     1      -0.068  -0.321  23.173  0.00  0.00    -0.025 C 
BRANCH  10  11
ATOM     11  N   UNL     1       1.727   0.832  23.194  0.00  0.00    -0.203 NA
ATOM     12  C   UNL     1       2.355   0.383  22.901  0.00  0.00    +0.242 C 
ATOM     13  O   UNL     1       2.241  -0.413  22.718  0.00  0.00    -0.273 OA
BRANCH  12  14
ATOM     14  C   UNL     1       3.094   0.730  22.792  0.00  0.00    +0.087 C 
BRANCH  14  15
ATOM     15  C   UNL     1       3.773   0.355  23.075  0.00  0.00    +0.021 C 
BRANCH  15  16
ATOM     16  C   UNL     1       4.503   0.735  23.032  0.00  0.00    +0.115 C 
BRANCH  16  17
ATOM     17  C   UNL     1       5.157   0.420  23.424  0.00  0.00    +0.365 C 
ATOM     18  O   UNL     1       5.622  -0.153  23.057  0.00  0.00    -0.246 OA
ATOM     19  O   UNL     1       5.345   0.678  24.185  0.00  0.00    -0.246 OA
ENDBRANCH  16  17
ENDBRANCH  15  16
ENDBRANCH  14  15
ENDBRANCH  12  14
ENDBRANCH  10  11
ENDBRANCH   7   8
TORSDOF 8
ENDMDL
MODEL 5
REMARK VINA RESULT:     -10.0      4.074      5.104
REMARK  Name = 
REMARK  8 active torsions:
REMARK  status: ('A' for Active; 'I' for Inactive)
REMARK    1  A    between atoms: N_4  and  C_22
REMARK    2  A    between atoms: C_7  and  C_8
REMARK    3  A    between atoms: C_10  and  N_11
REMARK    4  A    between atoms: C_12  and  C_14
REMARK    5  A    between atoms: C_14  and  C_15
REMARK    6  A    between atoms: C_15  and  C_16
REMARK    7  A    between atoms: C_16  and  C_17
REMARK    8  A    between atoms: C_25  and  C_28
REMARK                            x       y       z     vdW  Elec       q    Type
REMARK                         _______ _______ _______ _____ _____    ______ ____
ROOT
ATOM      1  C   UNL     1      -0.893   1.874  25.485  0.00  0.00    +0.054 C 
ATOM      2  C   UNL     1      -1.603   1.573  25.193  0.00  0.00    +0.077 A 
ATOM      3  N   UNL     1      -2.352   1.897  25.312  0.00  0.00    -0.170 NA
ATOM      4  N   UNL     1      -2.901   1.420  24.923  0.00  0.00    -0.234 N 
ATOM      5  C   UNL     1      -2.491   0.801  24.564  0.00  0.00    +0.058 A 
ATOM      6  C   UNL     1      -2.825   0.193  24.116  0.00  0.00    +0.052 C 
ATOM      7  C   UNL     1      -1.689   0.895  24.730  0.00  0.00    +0.010 A 
ENDROOT
BRANCH   4  22
ATOM     22  C   UNL     1      -3.717   1.540  24.898  0.00  0.00    +0.082 A 
ATOM     23  C   UNL     1      -4.025   2.192  24.498  0.00  0.00    +0.019 A 
ATOM     24  C   UNL     1      -4.841   2.313  24.473  0.00  0.00    +0.005 A 
ATOM     25  C   UNL     1      -5.349   1.781  24.848  0.00  0.00    +0.072 A 
ATOM     26  C   UNL     1      -5.040   1.129  25.248  0.00  0.00    +0.005 A 
ATOM     27  C   UNL     1      -4.224   1.008  25.273  0.00  0.00    +0.019 A 
BRANCH  25  28
ATOM     28  C   UNL     1      -6.164   1.902  24.823  0.00  0.00    +0.419 C 
ATOM     29  F   UNL     1      -6.980   2.023  24.797  0.00  0.00    -0.166 F 
ATOM     30  F   UNL     1      -6.072   2.610  25.235  0.00  0.00    -0.166 F 
ATOM     31  F   UNL     1      -6.256   1.194  24.410  0.00  0.00    -0.166 F 
ENDBRANCH  25  28
ENDBRANCH   4  22
BRANCH   7   8
ATOM      8  C   UNL     1      -1.079   0.400  24.479  0.00  0.00    +0.048 C 
ATOM      9  C   UNL     1      -0.598   0.520  23.820  0.00  0.00    +0.035 C 
ATOM     10  C   UNL     1      -0.064  -0.108  23.775  0.00  0.00    +0.118 C 
ATOM     20  C   UNL     1      -0.215  -0.615  24.407  0.00  0.00    -0.009 C 
ATOM     21  C   UNL     1      -0.842  -0.302  24.842  0.00  0.00    -0.025 C 
BRANCH  10  11
ATOM     11  N   UNL     1       0.517  -0.210  23.200  0.00  0.00    -0.203 NA
ATOM     12  C   UNL     1       1.223   0.216  23.246  0.00  0.00    +0.242 C 
ATOM     13  O   UNL     1       1.346   0.744  23.868  0.00  0.00    -0.273 OA
BRANCH  12  14
ATOM     14  C   UNL     1       1.805   0.114  22.671  0.00  0.00    +0.087 C 
BRANCH  14  15
ATOM     15  C   UNL     1       2.552   0.448  22.775  0.00  0.00    +0.021 C 
BRANCH  15  16
ATOM     16  C   UNL     1       3.207   0.121  22.397  0.00  0.00    +0.115 C 
BRANCH  16  17
ATOM     17  C   UNL     1       3.960   0.430  22.533  0.00  0.00    +0.365 C 
ATOM     18  O   UNL     1       4.171   1.159  22.213  0.00  0.00    -0.246 OA
ATOM     19  O   UNL     1       4.502   0.008  22.990  0.00  0.00    -0.246 OA
ENDBRANCH  16  17
ENDBRANCH  15  16
ENDBRANCH  14  15
ENDBRANCH  12  14
ENDBRANCH  10  11
ENDBRANCH   7   8
TORSDOF 8
ENDMDL
MODEL 6
REMARK VINA RESULT:      -9.6      3.582      5.305
REMARK  Name = 
REMARK  8 active torsions:
REMARK  status: ('A' for Active; 'I' for Inactive)
REMARK    1  A    between atoms: N_4  and  C_22
REMARK    2  A    between atoms: C_7  and  C_8
REMARK    3  A    between atoms: C_10  and  N_11
REMARK    4  A    between atoms: C_12  and  C_14
REMARK    5  A    between atoms: C_14  and  C_15
REMARK    6  A    between atoms: C_15  and  C_16
REMARK    7  A    between atoms: C_16  and  C_17
REMARK    8  A    between atoms: C_25  and  C_28
REMARK                            x       y       z     vdW  Elec       q    Type
REMARK                         _______ _______ _______ _____ _____    ______ ____
ROOT
ATOM      1  C   UNL     1      -0.008   2.706  26.528  0.00  0.00    +0.054 C 
ATOM      2  C   UNL     1      -0.051   2.431  25.751  0.00  0.00    +0.077 A 
ATOM      3  N   UNL     1       0.472   1.902  25.395  0.00  0.00    -0.170 NA
ATOM      4  N   UNL     1       0.222   1.781  24.618  0.00  0.00    -0.234 N 
ATOM      5  C   UNL     1      -0.455   2.236  24.495  0.00  0.00    +0.058 A 
ATOM      6  C   UNL     1      -0.888   2.282  23.793  0.00  0.00    +0.052 C 
ATOM      7  C   UNL     1      -0.624   2.638  25.195  0.00  0.00    +0.010 A 
ENDROOT
BRANCH   4  22
ATOM     22  C   UNL     1       0.586   1.292  24.062  0.00  0.00    +0.082 A 
ATOM     23  C   UNL     1       1.297   1.521  23.713  0.00  0.00    +0.019 A 
ATOM     24  C   UNL     1       1.660   1.032  23.157  0.00  0.00    +0.005 A 
ATOM     25  C   UNL     1       1.312   0.313  22.950  0.00  0.00    +0.072 A 
ATOM     26  C   UNL     1       0.601   0.084  23.300  0.00  0.00    +0.005 A 
ATOM     27  C   UNL     1       0.237   0.573  23.855  0.00  0.00    +0.019 A 
BRANCH  25  28
ATOM     28  C   UNL     1       1.676  -0.176  22.394  0.00  0.00    +0.419 C 
ATOM     29  F   UNL     1       2.039  -0.666  21.838  0.00  0.00    -0.166 F 
ATOM     30  F   UNL     1       2.368  -0.171  22.843  0.00  0.00    -0.166 F 
ATOM     31  F   UNL     1       0.984  -0.181  21.946  0.00  0.00    -0.166 F 
ENDBRANCH  25  28
ENDBRANCH   4  22
BRANCH   7   8
ATOM      8  C   UNL     1      -1.254   3.155  25.318  0.00  0.00    +0.048 C 
ATOM      9  C   UNL     1      -2.021   2.941  25.534  0.00  0.00    +0.035 C 
ATOM     10  C   UNL     1      -2.470   3.630  25.597  0.00  0.00    +0.118 C 
ATOM     20  C   UNL     1      -1.981   4.270  25.421  0.00  0.00    -0.009 C 
ATOM     21  C   UNL     1      -1.229   3.977  25.248  0.00  0.00    -0.025 C 
BRANCH  10  11
ATOM     11  N   UNL     1      -3.268   3.672  25.800  0.00  0.00    -0.203 NA
ATOM     12  C   UNL     1      -3.845   3.680  25.211  0.00  0.00    +0.242 C 
ATOM     13  O   UNL     1      -3.624   3.645  24.417  0.00  0.00    -0.273 OA
BRANCH  12  14
ATOM     14  C   UNL     1      -4.643   3.722  25.414  0.00  0.00    +0.087 C 
BRANCH  14  15
ATOM     15  C   UNL     1      -5.151   3.099  25.227  0.00  0.00    +0.021 C 
BRANCH  15  16
ATOM     16  C   UNL     1      -5.833   2.974  25.673  0.00  0.00    +0.115 C 
BRANCH  16  17
ATOM     17  C   UNL     1      -6.212   2.241  25.654  0.00  0.00    +0.365 C 
ATOM     18  O   UNL     1      -6.490   1.939  24.939  0.00  0.00    -0.246 OA
ATOM     19  O   UNL     1      -6.311   1.810  26.350  0.00  0.00    -0.246 OA
ENDBRANCH  16  17
ENDBRANCH  15  16
ENDBRANCH  14  15
ENDBRANCH  12  14
ENDBRANCH  10  11
ENDBRANCH   7   8
TORSDOF 8
ENDMDL
MODEL 7
REMARK VINA RESULT:      -9.5      4.094      6.094
REMARK  Name = 
REMARK  8 active torsions:
REMARK  status: ('A' for Active; 'I' for Inactive)
REMARK    1  A    between atoms: N_4  and  C_22
REMARK    2  A    between atoms: C_7  and  C_8
REMARK    3  A    between atoms: C_10  and  N_11
REMARK    4  A    between atoms: C_12  and  C_14
REMARK    5  A    between atoms: C_14  and  C_15
REMARK    6  A    between atoms: C_15  and  C_16
REMARK    7  A    between atoms: C_16  and  C_17
REMARK    8  A    between atoms: C_25  and  C_28
REMARK                            x       y       z     vdW  Elec       q    Type
REMARK                         _______ _______ _______ _____ _____    ______ ____
ROOT
ATOM      1  C   UNL     1      -2.902   2.673  25.121  0.00  0.00    +0.054 C 
ATOM      2  C   UNL     1      -2.724   1.880  24.982  0.00  0.00    +0.077 A 
ATOM      3  N   UNL     1      -3.269   1.283  24.816  0.00  0.00    -0.170 NA
ATOM      4  N   UNL     1      -2.852   0.578  24.716  0.00  0.00    -0.234 N 
ATOM      5  C   UNL     1      -2.050   0.740  24.821  0.00  0.00    +0.058 A 
ATOM      6  C   UNL     1      -1.435   0.192  24.769  0.00  0.00    +0.052 C 
ATOM      7  C   UNL     1      -1.971   1.544  24.985  0.00  0.00    +0.010 A 
ENDROOT
BRANCH   4  22
ATOM     22  C   UNL     1      -3.180  -0.159  24.542  0.00  0.00    +0.082 A 
ATOM     23  C   UNL     1      -3.407  -0.337  23.770  0.00  0.00    +0.019 A 
ATOM     24  C   UNL     1      -3.735  -1.073  23.596  0.00  0.00    +0.005 A 
ATOM     25  C   UNL     1      -3.836  -1.632  24.194  0.00  0.00    +0.072 A 
ATOM     26  C   UNL     1      -3.609  -1.454  24.968  0.00  0.00    +0.005 A 
ATOM     27  C   UNL     1      -3.281  -0.717  25.141  0.00  0.00    +0.019 A 
BRANCH  25  28
ATOM     28  C   UNL     1      -4.164  -2.369  24.021  0.00  0.00    +0.419 C 
ATOM     29  F   UNL     1      -4.492  -3.106  23.847  0.00  0.00    -0.166 F 
ATOM     30  F   UNL     1      -4.834  -1.998  23.713  0.00  0.00    -0.166 F 
ATOM     31  F   UNL     1      -3.494  -2.740  24.328  0.00  0.00    -0.166 F 
ENDBRANCH  25  28
ENDBRANCH   4  22
BRANCH   7   8
ATOM      8  C   UNL     1      -1.263   1.943  25.127  0.00  0.00    +0.048 C 
ATOM      9  C   UNL     1      -0.738   1.793  25.746  0.00  0.00    +0.035 C 
ATOM     10  C   UNL     1      -0.106   2.319  25.678  0.00  0.00    +0.118 C 
ATOM     20  C   UNL     1      -0.241   2.794  25.018  0.00  0.00    -0.009 C 
ATOM     21  C   UNL     1      -0.955   2.562  24.678  0.00  0.00    -0.025 C 
BRANCH  10  11
ATOM     11  N   UNL     1       0.545   2.362  26.182  0.00  0.00    -0.203 NA
ATOM     12  C   UNL     1       0.446   2.596  26.967  0.00  0.00    +0.242 C 
ATOM     13  O   UNL     1      -0.306   2.787  27.248  0.00  0.00    -0.273 OA
BRANCH  12  14
ATOM     14  C   UNL     1       1.097   2.639  27.470  0.00  0.00    +0.087 C 
BRANCH  14  15
ATOM     15  C   UNL     1       1.006   2.491  28.277  0.00  0.00    +0.021 C 
BRANCH  15  16
ATOM     16  C   UNL     1       1.636   2.618  28.794  0.00  0.00    +0.115 C 
BRANCH  16  17
ATOM     17  C   UNL     1       1.567   2.409  29.589  0.00  0.00    +0.365 C 
ATOM     18  O   UNL     1       0.999   2.772  30.064  0.00  0.00    -0.246 OA
ATOM     19  O   UNL     1       2.067   1.836  29.909  0.00  0.00    -0.246 OA
ENDBRANCH  16  17
ENDBRANCH  15  16
ENDBRANCH  14  15
ENDBRANCH  12  14
ENDBRANCH  10  11
ENDBRANCH   7   8
TORSDOF 8
ENDMDL
