MODEL 1
REMARK VINA RESULT:     -14.0      0.000      0.000
REMARK  Name = 
REMARK  4 active torsions:
REMARK  status: ('A' for Active; 'I' for Inactive)
REMARK    1  A    between atoms: C_4  and  N_18
REMARK    2  A    between atoms: C_6  and  C_7
REMARK    3  A    between atoms: C_9  and  C_12
REMARK    4  A    between atoms: N_21  and  C_22
REMARK                            x       y       z     vdW  Elec       q    Type
REMARK                         _______ _______ _______ _____ _____    ______ ____
ROOT
ATOM      1  C   UNL     1      -5.441   3.137  25.819  0.00  0.00    +0.090 C 
ATOM      2  N   UNL     1      -5.021   2.568  25.395  0.00  0.00    -0.264 NA
ATOM      3  C   UNL     1      -5.336   1.881  25.061  0.00  0.00    +0.094 C 
ATOM      4  C   UNL     1      -4.723   1.474  24.690  0.00  0.00    +0.115 C 
ATOM      5  C   UNL     1      -4.029   1.908  24.794  0.00  0.00    +0.049 C 
ATOM      6  C   UNL     1      -4.213   2.583  25.230  0.00  0.00    +0.139 C 
ENDROOT
BRANCH   6   7
ATOM      7  C   UNL     1      -3.683   3.172  25.460  0.00  0.00    +0.251 A 
ATOM      8  N   UNL     1      -3.009   3.406  25.045  0.00  0.00    -0.190 NA
ATOM      9  C   UNL     1      -2.642   4.009  25.474  0.00  0.00    +0.203 A 
ATOM     10  N   UNL     1      -3.090   4.147  26.154  0.00  0.00    -0.056 NA
ATOM     11  O   UNL     1      -3.733   3.630  26.145  0.00  0.00    -0.336 OA
BRANCH   9  12
ATOM     12  C   UNL     1      -1.951   4.403  25.261  0.00  0.00    +0.039 A 
ATOM     13  C   UNL     1      -1.954   5.223  25.168  0.00  0.00    +0.003 A 
ATOM     14  C   UNL     1      -1.262   5.617  24.955  0.00  0.00    +0.000 A 
ATOM     15  C   UNL     1      -0.565   5.192  24.834  0.00  0.00    +0.000 A 
ATOM     16  C   UNL     1      -0.561   4.372  24.927  0.00  0.00    +0.000 A 
ATOM     17  C   UNL     1      -1.254   3.978  25.141  0.00  0.00    +0.003 A 
ENDBRANCH   9  12
ENDBRANCH   6   7
BRANCH   4  18
ATOM     18  N   UNL     1      -4.791   0.758  24.286  0.00  0.00    -0.187 NA
ATOM     19  C   UNL     1      -4.419   0.083  24.578  0.00  0.00    +0.344 C 
ATOM     20  O   UNL     1      -3.978   0.122  25.274  0.00  0.00    -0.249 OA
ATOM     21  N   UNL     1      -4.487  -0.634  24.173  0.00  0.00    -0.159 NA
BRANCH  21  22
ATOM     22  C   UNL     1      -4.115  -1.309  24.465  0.00  0.00    +0.102 A 
ATOM     23  C   UNL     1      -4.076  -1.991  24.003  0.00  0.00    +0.158 A 
ATOM     24  F   UNL     1      -4.410  -1.998  23.248  0.00  0.00    -0.203 F 
ATOM     25  C   UNL     1      -3.704  -2.667  24.294  0.00  0.00    +0.061 A 
ATOM     26  C   UNL     1      -3.369  -2.661  25.049  0.00  0.00    +0.142 A 
ATOM     27  F   UNL     1      -2.997  -3.336  25.340  0.00  0.00    -0.204 F 
ATOM     28  C   UNL     1      -3.408  -1.979  25.511  0.00  0.00    +0.031 A 
ATOM     29  C   UNL     1      -3.780  -1.303  25.219  0.00  0.00    +0.021 A 
ENDBRANCH  21  22
ENDBRANCH   4  18
TORSDOF 4
ENDMDL
MODEL 2
REMARK VINA RESULT:     -13.9      2.201      2.997
REMARK  Name = 
REMARK  4 active torsions:
REMARK  status: ('A' for Active; 'I' for Inactive)
REMARK    1  A    between atoms: C_4  and  N_18
REMARK    2  A    between atoms: C_6  and  C_7
REMARK    3  A    between atoms: C_9  and  C_12
REMARK    4  A    between atoms: N_21  and  C_22
REMARK                            x       y       z     vdW  Elec       q    Type
REMARK                         _______ _______ _______ _____ _____    ______ ____
ROOT
ATOM      1  C   UNL     1       0.481   1.201  24.003  0.00  0.00    +0.090 C 
ATOM      2  N   UNL     1      -0.065   0.832  24.498  0.00  0.00    -0.264 NA
ATOM      3  C   UNL     1      -0.276   0.034  24.478  0.00  0.00    +0.094 C 
ATOM      4  C   UNL     1      -0.838  -0.095  25.068  0.00  0.00    +0.115 C 
ATOM      5  C   UNL     1      -0.973   0.622  25.453  0.00  0.00    +0.049 C 
ATOM      6  C   UNL     1      -0.496   1.194  25.101  0.00  0.00    +0.139 C 
ENDROOT
BRANCH   6   7
ATOM      7  C   UNL     1      -0.456   1.991  25.314  0.00  0.00    +0.251 A 
ATOM      8  N   UNL     1      -0.972   2.585  25.067  0.00  0.00    -0.190 NA
ATOM      9  C   UNL     1      -0.728   3.294  25.412  0.00  0.00    +0.203 A 
ATOM     10  N   UNL     1      -0.061   3.138  25.872  0.00  0.00    -0.056 NA
ATOM     11  O   UNL     1       0.107   2.332  25.811  0.00  0.00    -0.336 OA
BRANCH   9  12
ATOM     12  C   UNL     1      -1.088   4.029  25.314  0.00  0.00    +0.039 A 
ATOM     13  C   UNL     1      -0.684   4.639  24.932  0.00  0.00    +0.003 A 
ATOM     14  C   UNL     1      -1.044   5.374  24.834  0.00  0.00    +0.000 A 
ATOM     15  C   UNL     1      -1.809   5.501  25.118  0.00  0.00    +0.000 A 
ATOM     16  C   UNL     1      -2.213   4.891  25.500  0.00  0.00    +0.000 A 
ATOM     17  C   UNL     1      -1.852   4.156  25.598  0.00  0.00    +0.003 A 
ENDBRANCH   9  12
ENDBRANCH   6   7
BRANCH   4  18
ATOM     18  N   UNL     1      -1.200  -0.816  25.243  0.00  0.00    -0.187 NA
ATOM     19  C   UNL     1      -1.897  -1.031  24.858  0.00  0.00    +0.344 C 
ATOM     20  O   UNL     1      -2.232  -0.527  24.298  0.00  0.00    -0.249 OA
ATOM     21  N   UNL     1      -2.260  -1.751  25.033  0.00  0.00    -0.159 NA
BRANCH  21  22
ATOM     22  C   UNL     1      -2.956  -1.966  24.648  0.00  0.00    +0.102 A 
ATOM     23  C   UNL     1      -3.028  -2.717  24.313  0.00  0.00    +0.158 A 
ATOM     24  F   UNL     1      -2.402  -3.253  24.364  0.00  0.00    -0.203 F 
ATOM     25  C   UNL     1      -3.724  -2.933  23.928  0.00  0.00    +0.061 A 
ATOM     26  C   UNL     1      -4.351  -2.397  23.877  0.00  0.00    +0.142 A 
ATOM     27  F   UNL     1      -5.047  -2.613  23.492  0.00  0.00    -0.204 F 
ATOM     28  C   UNL     1      -4.279  -1.646  24.211  0.00  0.00    +0.031 A 
ATOM     29  C   UNL     1      -3.582  -1.431  24.597  0.00  0.00    +0.021 A 
ENDBRANCH  21  22
ENDBRANCH   4  18
TORSDOF 4
ENDMDL
MODEL 3
REMARK VINA RESULT:     -13.3      3.194      6.413
REMARK  Name = 
REMARK  4 active torsions:
REMARK  status: ('A' for Active; 'I' for Inactive)
REMARK    1  A    between atoms: C_4  and  N_18
REMARK    2  A    between atoms: C_6  and  C_7
REMARK    3  A    between atoms: C_9  and  C_12
REMARK    4  A    between atoms: N_21  and  C_22
REMARK                            x       y       z     vdW  Elec       q    Type
REMARK                         _______ _______ _______ _____ _____    ______ ____
ROOT
ATOM      1  C   UNL     1       0.165  -0.325  23.326  0.00  0.00    +0.090 C 
ATOM      2  N   UNL     1      -0.042   0.180  23.944  0.00  0.00    -0.264 NA
ATOM      3  C   UNL     1       0.271   0.931  24.082  0.00  0.00    +0.094 C 
ATOM      4  C   UNL     1      -0.092   1.238  24.756  0.00  0.00    +0.115 C 
ATOM      5  C   UNL     1      -0.628   0.677  25.035  0.00  0.00    +0.049 C 
ATOM      6  C   UNL     1      -0.598   0.023  24.533  0.00  0.00    +0.139 C 
ENDROOT
BRANCH   6   7
ATOM      7  C   UNL     1      -1.044  -0.667  24.608  0.00  0.00    +0.251 A 
ATOM      8  N   UNL     1      -1.828  -0.764  24.372  0.00  0.00    -0.190 NA
ATOM      9  C   UNL     1      -2.054  -1.538  24.549  0.00  0.00    +0.203 A 
ATOM     10  N   UNL     1      -1.408  -1.919  24.895  0.00  0.00    -0.056 NA
ATOM     11  O   UNL     1      -0.784  -1.380  24.931  0.00  0.00    -0.336 OA
BRANCH   9  12
ATOM     12  C   UNL     1      -2.794  -1.872  24.406  0.00  0.00    +0.039 A 
ATOM     13  C   UNL     1      -3.417  -1.399  24.144  0.00  0.00    +0.003 A 
ATOM     14  C   UNL     1      -4.157  -1.733  24.002  0.00  0.00    +0.000 A 
ATOM     15  C   UNL     1      -4.275  -2.542  24.120  0.00  0.00    +0.000 A 
ATOM     16  C   UNL     1      -3.652  -3.015  24.382  0.00  0.00    +0.000 A 
ATOM     17  C   UNL     1      -2.912  -2.680  24.524  0.00  0.00    +0.003 A 
ENDBRANCH   9  12
ENDBRANCH   6   7
BRANCH   4  18
ATOM     18  N   UNL     1       0.057   1.977  25.093  0.00  0.00    -0.187 NA
ATOM     19  C   UNL     1      -0.524   2.562  25.075  0.00  0.00    +0.344 C 
ATOM     20  O   UNL     1      -1.253   2.410  24.721  0.00  0.00    -0.249 OA
ATOM     21  N   UNL     1      -0.376   3.301  25.412  0.00  0.00    -0.159 NA
BRANCH  21  22
ATOM     22  C   UNL     1      -0.957   3.886  25.393  0.00  0.00    +0.102 A 
ATOM     23  C   UNL     1      -0.798   4.615  25.040  0.00  0.00    +0.158 A 
ATOM     24  F   UNL     1      -0.057   4.758  24.705  0.00  0.00    -0.203 F 
ATOM     25  C   UNL     1      -1.378   5.200  25.022  0.00  0.00    +0.061 A 
ATOM     26  C   UNL     1      -2.119   5.057  25.356  0.00  0.00    +0.142 A 
ATOM     27  F   UNL     1      -2.699   5.643  25.338  0.00  0.00    -0.204 F 
ATOM     28  C   UNL     1      -2.279   4.329  25.710  0.00  0.00    +0.031 A 
ATOM     29  C   UNL     1      -1.698   3.744  25.728  0.00  0.00    +0.021 A 
ENDBRANCH  21  22
ENDBRANCH   4  18
TORSDOF 4
ENDMDL
MODEL 4
REMARK VINA RESULT:     -12.8      2.388      5.835
REMARK  Name = 
REMARK  4 active torsions:
REMARK  status: ('A' for Active; 'I' for Inactive)
REMARK    1  A    between atoms: C_4  and  N_18
REMARK    2  A    between atoms: C_6  and  C_7
REMARK    3  A    between atoms: C_9  and  C_12
REMARK    4  A    between atoms: N_21  and  C_22
REMARK                            x       y       z     vdW  Elec       q    Type
REMARK                         _______ _______ _______ _____ _____    ______ ____
ROOT
ATOM      1  C   UNL     1      -5.773   1.429  24.754  0.00  0.00    +0.090 C 
ATOM      2  N   UNL     1      -5.033   1.720  24.974  0.00  0.00    -0.264 NA
ATOM      3  C   UNL     1      -4.887   2.440  25.349  0.00  0.00    +0.094 C 
ATOM      4  C   UNL     1      -4.073   2.507  25.464  0.00  0.00    +0.115 C 
ATOM      5  C   UNL     1      -3.716   1.828  25.160  0.00  0.00    +0.049 C 
ATOM      6  C   UNL     1      -4.309   1.342  24.857  0.00  0.00    +0.139 C 
ENDROOT
BRANCH   6   7
ATOM      7  C   UNL     1      -4.198   0.606  24.501  0.00  0.00    +0.251 A 
ATOM      8  N   UNL     1      -4.065  -0.108  24.892  0.00  0.00    -0.190 NA
ATOM      9  C   UNL     1      -3.985  -0.700  24.323  0.00  0.00    +0.203 A 
ATOM     10  N   UNL     1      -4.069  -0.352  23.579  0.00  0.00    -0.056 NA
ATOM     11  O   UNL     1      -4.201   0.455  23.689  0.00  0.00    -0.336 OA
BRANCH   9  12
ATOM     12  C   UNL     1      -3.846  -1.499  24.471  0.00  0.00    +0.039 A 
ATOM     13  C   UNL     1      -3.418  -1.727  25.139  0.00  0.00    +0.003 A 
ATOM     14  C   UNL     1      -3.279  -2.526  25.286  0.00  0.00    +0.000 A 
ATOM     15  C   UNL     1      -3.568  -3.099  24.767  0.00  0.00    +0.000 A 
ATOM     16  C   UNL     1      -3.997  -2.871  24.100  0.00  0.00    +0.000 A 
ATOM     17  C   UNL     1      -4.136  -2.071  23.952  0.00  0.00    +0.003 A 
ENDBRANCH   9  12
ENDBRANCH   6   7
BRANCH   4  18
ATOM     18  N   UNL     1      -3.684   3.141  25.821  0.00  0.00    -0.187 NA
ATOM     19  C   UNL     1      -3.016   3.468  25.464  0.00  0.00    +0.344 C 
ATOM     20  O   UNL     1      -2.736   3.161  24.752  0.00  0.00    -0.249 OA
ATOM     21  N   UNL     1      -2.627   4.103  25.821  0.00  0.00    -0.159 NA
BRANCH  21  22
ATOM     22  C   UNL     1      -1.959   4.429  25.464  0.00  0.00    +0.102 A 
ATOM     23  C   UNL     1      -1.920   5.242  25.327  0.00  0.00    +0.158 A 
ATOM     24  F   UNL     1      -2.550   5.728  25.548  0.00  0.00    -0.203 F 
ATOM     25  C   UNL     1      -1.253   5.569  24.971  0.00  0.00    +0.061 A 
ATOM     26  C   UNL     1      -0.622   5.084  24.751  0.00  0.00    +0.142 A 
ATOM     27  F   UNL     1       0.045   5.411  24.394  0.00  0.00    -0.204 F 
ATOM     28  C   UNL     1      -0.661   4.271  24.887  0.00  0.00    +0.031 A 
ATOM     29  C   UNL     1      -1.329   3.944  25.244  0.00  0.00    +0.021 A 
ENDBRANCH  21  22
ENDBRANCH   4  18
TORSDOF 4
ENDMDL
