MODEL 1
REMARK VINA RESULT:     -10.6      0.000      0.000
REMARK  Name = 
REMARK  9 active torsions:
REMARK  status: ('A' for Active; 'I' for Inactive)
REMARK    1  A    between atoms: O_2  and  C_3
REMARK    2  A    between atoms: C_3  and  C_5
REMARK    3  A    between atoms: C_5  and  N_6
REMARK    4  A    between atoms: C_5  and  C_31
REMARK    5  A    between atoms: C_7  and  C_9
REMARK    6  A    between atoms: C_10  and  N_21
REMARK    7  A    between atoms: C_14  and  C_16
REMARK    8  A    between atoms: C_16  and  C_17
REMARK    9  A    between atoms: N_24  and  C_25
REMARK                            x       y       z     vdW  Elec       q    Type
REMARK                         _______ _______ _______ _____ _____    ______ ____
ROOT
ATOM      9  C   UNL     1      -2.687   1.819  24.890  0.00  0.00    +0.174 C 
ATOM     10  C   UNL     1      -2.653   1.007  25.029  0.00  0.00    +0.126 C 
ATOM     11  C   UNL     1      -1.859   0.793  25.105  0.00  0.00    +0.045 C 
ATOM     12  C   UNL     1      -1.403   1.475  25.012  0.00  0.00    +0.096 C 
ATOM     13  N   UNL     1      -1.915   2.109  24.880  0.00  0.00    -0.272 N 
ATOM     14  C   UNL     1      -1.693   2.894  24.758  0.00  0.00    +0.226 C 
ATOM     15  O   UNL     1      -2.269   3.471  24.632  0.00  0.00    -0.275 OA
ENDROOT
BRANCH  10  21
ATOM     21  N   UNL     1      -3.299   0.496  25.083  0.00  0.00    -0.187 NA
ATOM     22  C   UNL     1      -3.222  -0.293  24.853  0.00  0.00    +0.339 C 
ATOM     23  O   UNL     1      -2.500  -0.571  24.569  0.00  0.00    -0.249 OA
ATOM     24  N   UNL     1      -3.868  -0.802  24.907  0.00  0.00    -0.189 NA
BRANCH  24  25
ATOM     25  C   UNL     1      -3.792  -1.591  24.677  0.00  0.00    +0.097 C 
ATOM     26  C   UNL     1      -3.417  -2.131  25.176  0.00  0.00    +0.022 C 
ATOM     27  C   UNL     1      -3.340  -2.920  24.945  0.00  0.00    +0.002 C 
ATOM     28  C   UNL     1      -3.638  -3.168  24.217  0.00  0.00    +0.000 C 
ATOM     29  C   UNL     1      -4.012  -2.628  23.718  0.00  0.00    +0.002 C 
ATOM     30  C   UNL     1      -4.089  -1.839  23.949  0.00  0.00    +0.022 C 
ENDBRANCH  24  25
ENDBRANCH  10  21
BRANCH   9   7
ATOM      6  N   UNL     1      -3.885   2.395  25.415  0.00  0.00    -0.194 NA
ATOM      7  C   UNL     1      -3.373   2.264  24.781  0.00  0.00    +0.262 C 
ATOM      8  O   UNL     1      -3.548   2.578  24.038  0.00  0.00    -0.271 OA
BRANCH   6   5
ATOM      5  C   UNL     1      -4.572   2.840  25.305  0.00  0.00    +0.193 C 
BRANCH   5  31
ATOM     31  C   UNL     1      -4.588   3.634  25.528  0.00  0.00    +0.031 C 
ATOM     32  C   UNL     1      -4.425   3.848  26.309  0.00  0.00    +0.002 C 
ATOM     33  C   UNL     1      -4.768   4.215  24.971  0.00  0.00    +0.002 C 
ENDBRANCH   5  31
BRANCH   5   3
ATOM      3  C   UNL     1      -5.240   2.490  24.973  0.00  0.00    +0.337 C 
ATOM      4  O   UNL     1      -5.385   2.561  24.164  0.00  0.00    -0.248 OA
BRANCH   3   2
ATOM      1  C   UNL     1      -6.441   1.728  25.121  0.00  0.00    +0.256 C 
ATOM      2  O   UNL     1      -5.765   2.068  25.451  0.00  0.00    -0.443 OA
ENDBRANCH   3   2
ENDBRANCH   5   3
ENDBRANCH   6   5
ENDBRANCH   9   7
BRANCH  14  16
ATOM     16  C   UNL     1      -0.895   3.103  24.763  0.00  0.00    +0.085 C 
BRANCH  16  17
ATOM     17  C   UNL     1      -0.676   3.897  24.730  0.00  0.00    +0.009 C 
ATOM     18  C   UNL     1      -0.774   3.958  25.547  0.00  0.00    +0.000 C 
ATOM     19  C   UNL     1      -0.578   3.837  23.914  0.00  0.00    +0.000 C 
ATOM     20  C   UNL     1      -0.457   4.692  24.698  0.00  0.00    +0.000 C 
ENDBRANCH  16  17
ENDBRANCH  14  16
TORSDOF 9
ENDMDL
MODEL 2
REMARK VINA RESULT:      -9.1      1.436      3.175
REMARK  Name = 
REMARK  9 active torsions:
REMARK  status: ('A' for Active; 'I' for Inactive)
REMARK    1  A    between atoms: O_2  and  C_3
REMARK    2  A    between atoms: C_3  and  C_5
REMARK    3  A    between atoms: C_5  and  N_6
REMARK    4  A    between atoms: C_5  and  C_31
REMARK    5  A    between atoms: C_7  and  C_9
REMARK    6  A    between atoms: C_10  and  N_21
REMARK    7  A    between atoms: C_14  and  C_16
REMARK    8  A    between atoms: C_16  and  C_17
REMARK    9  A    between atoms: N_24  and  C_25
REMARK                            x       y       z     vdW  Elec       q    Type
REMARK                         _______ _______ _______ _____ _____    ______ ____
ROOT
ATOM      9  C   UNL     1      -2.680   1.712  24.530  0.00  0.00    +0.174 C 
ATOM     10  C   UNL     1      -3.132   1.032  24.414  0.00  0.00    +0.126 C 
ATOM     11  C   UNL     1      -3.895   1.183  24.694  0.00  0.00    +0.045 C 
ATOM     12  C   UNL     1      -3.912   1.956  24.982  0.00  0.00    +0.096 C 
ATOM     13  N   UNL     1      -3.161   2.282  24.881  0.00  0.00    -0.272 N 
ATOM     14  C   UNL     1      -2.932   3.046  25.094  0.00  0.00    +0.226 C 
ATOM     15  O   UNL     1      -2.157   3.297  24.958  0.00  0.00    -0.275 OA
ENDROOT
BRANCH  10  21
ATOM     21  N   UNL     1      -2.870   0.326  24.078  0.00  0.00    -0.187 NA
ATOM     22  C   UNL     1      -3.238  -0.386  24.275  0.00  0.00    +0.339 C 
ATOM     23  O   UNL     1      -3.867  -0.392  24.809  0.00  0.00    -0.249 OA
ATOM     24  N   UNL     1      -2.976  -1.092  23.939  0.00  0.00    -0.189 NA
BRANCH  24  25
ATOM     25  C   UNL     1      -3.343  -1.805  24.136  0.00  0.00    +0.097 C 
ATOM     26  C   UNL     1      -4.015  -2.049  23.725  0.00  0.00    +0.022 C 
ATOM     27  C   UNL     1      -4.383  -2.761  23.922  0.00  0.00    +0.002 C 
ATOM     28  C   UNL     1      -4.078  -3.228  24.530  0.00  0.00    +0.000 C 
ATOM     29  C   UNL     1      -3.406  -2.984  24.941  0.00  0.00    +0.002 C 
ATOM     30  C   UNL     1      -3.038  -2.272  24.744  0.00  0.00    +0.022 C 
ENDBRANCH  24  25
ENDBRANCH  10  21
BRANCH   9   7
ATOM      6  N   UNL     1      -1.300   1.448  24.790  0.00  0.00    -0.194 NA
ATOM      7  C   UNL     1      -1.884   1.804  24.330  0.00  0.00    +0.262 C 
ATOM      8  O   UNL     1      -1.674   2.253  23.670  0.00  0.00    -0.271 OA
BRANCH   6   5
ATOM      5  C   UNL     1      -0.504   1.540  24.590  0.00  0.00    +0.193 C 
BRANCH   5  31
ATOM     31  C   UNL     1      -0.044   2.104  24.978  0.00  0.00    +0.031 C 
ATOM     32  C   UNL     1       0.064   2.058  25.795  0.00  0.00    +0.002 C 
ATOM     33  C   UNL     1       0.310   2.714  24.550  0.00  0.00    +0.002 C 
ENDBRANCH   5  31
BRANCH   5   3
ATOM      3  C   UNL     1      -0.170   1.068  24.002  0.00  0.00    +0.337 C 
ATOM      4  O   UNL     1      -0.062   1.370  23.241  0.00  0.00    -0.248 OA
BRANCH   3   2
ATOM      1  C   UNL     1       0.440  -0.161  23.602  0.00  0.00    +0.256 C 
ATOM      2  O   UNL     1       0.057   0.293  24.174  0.00  0.00    -0.443 OA
ENDBRANCH   3   2
ENDBRANCH   5   3
ENDBRANCH   6   5
ENDBRANCH   9   7
BRANCH  14  16
ATOM     16  C   UNL     1      -3.476   3.559  25.442  0.00  0.00    +0.085 C 
BRANCH  16  17
ATOM     17  C   UNL     1      -3.235   4.305  25.697  0.00  0.00    +0.009 C 
ATOM     18  C   UNL     1      -3.389   4.611  24.946  0.00  0.00    +0.000 C 
ATOM     19  C   UNL     1      -3.081   4.000  26.447  0.00  0.00    +0.000 C 
ATOM     20  C   UNL     1      -2.995   5.052  25.952  0.00  0.00    +0.000 C 
ENDBRANCH  16  17
ENDBRANCH  14  16
TORSDOF 9
ENDMDL
MODEL 3
REMARK VINA RESULT:      -8.9      2.389      4.365
REMARK  Name = 
REMARK  9 active torsions:
REMARK  status: ('A' for Active; 'I' for Inactive)
REMARK    1  A    between atoms: O_2  and  C_3
REMARK    2  A    between atoms: C_3  and  C_5
REMARK    3  A    between atoms: C_5  and  N_6
REMARK    4  A    between atoms: C_5  and  C_31
REMARK    5  A    between atoms: C_7  and  C_9
REMARK    6  A    between atoms: C_10  and  N_21
REMARK    7  A    between atoms: C_14  and  C_16
REMARK    8  A    between atoms: C_16  and  C_17
REMARK    9  A    between atoms: N_24  and  C_25
REMARK                            x       y       z     vdW  Elec       q    Type
REMARK                         _______ _______ _______ _____ _____    ______ ____
ROOT
ATOM      9  C   UNL     1      -1.782   1.233  24.366  0.00  0.00    +0.174 C 
ATOM     10  C   UNL     1      -1.056   1.214  23.976  0.00  0.00    +0.126 C 
ATOM     11  C   UNL     1      -0.888   1.978  23.713  0.00  0.00    +0.045 C 
ATOM     12  C   UNL     1      -1.512   2.469  23.941  0.00  0.00    +0.096 C 
ATOM     13  N   UNL     1      -2.064   2.007  24.345  0.00  0.00    -0.272 N 
ATOM     14  C   UNL     1      -2.773   2.275  24.670  0.00  0.00    +0.226 C 
ATOM     15  O   UNL     1      -3.273   1.746  25.061  0.00  0.00    -0.275 OA
ENDROOT
BRANCH  10  21
ATOM     21  N   UNL     1      -0.580   0.549  23.867  0.00  0.00    -0.187 NA
ATOM     22  C   UNL     1       0.149   0.621  23.487  0.00  0.00    +0.339 C 
ATOM     23  O   UNL     1       0.402   1.357  23.216  0.00  0.00    -0.249 OA
ATOM     24  N   UNL     1       0.624  -0.045  23.379  0.00  0.00    -0.189 NA
BRANCH  24  25
ATOM     25  C   UNL     1       1.354   0.027  22.999  0.00  0.00    +0.097 C 
ATOM     26  C   UNL     1       1.438  -0.225  22.218  0.00  0.00    +0.022 C 
ATOM     27  C   UNL     1       2.167  -0.154  21.838  0.00  0.00    +0.002 C 
ATOM     28  C   UNL     1       2.811   0.170  22.239  0.00  0.00    +0.000 C 
ATOM     29  C   UNL     1       2.727   0.422  23.020  0.00  0.00    +0.002 C 
ATOM     30  C   UNL     1       1.998   0.350  23.400  0.00  0.00    +0.022 C 
ENDBRANCH  24  25
ENDBRANCH  10  21
BRANCH   9   7
ATOM      6  N   UNL     1      -2.496   0.001  24.245  0.00  0.00    -0.194 NA
ATOM      7  C   UNL     1      -2.161   0.588  24.717  0.00  0.00    +0.262 C 
ATOM      8  O   UNL     1      -2.203   0.532  25.539  0.00  0.00    -0.271 OA
BRANCH   6   5
ATOM      5  C   UNL     1      -2.875  -0.644  24.596  0.00  0.00    +0.193 C 
BRANCH   5  31
ATOM     31  C   UNL     1      -3.698  -0.661  24.646  0.00  0.00    +0.031 C 
ATOM     32  C   UNL     1      -4.153  -0.713  23.959  0.00  0.00    +0.002 C 
ATOM     33  C   UNL     1      -4.068  -0.627  25.383  0.00  0.00    +0.002 C 
ENDBRANCH   5  31
BRANCH   5   3
ATOM      3  C   UNL     1      -2.429  -1.270  24.895  0.00  0.00    +0.337 C 
ATOM      4  O   UNL     1      -2.285  -1.323  25.706  0.00  0.00    -0.248 OA
BRANCH   3   2
ATOM      1  C   UNL     1      -1.731  -2.499  24.688  0.00  0.00    +0.256 C 
ATOM      2  O   UNL     1      -2.128  -1.843  24.384  0.00  0.00    -0.443 OA
ENDBRANCH   3   2
ENDBRANCH   5   3
ENDBRANCH   6   5
ENDBRANCH   9   7
BRANCH  14  16
ATOM     16  C   UNL     1      -2.984   3.070  24.605  0.00  0.00    +0.085 C 
BRANCH  16  17
ATOM     17  C   UNL     1      -3.704   3.332  24.910  0.00  0.00    +0.009 C 
ATOM     18  C   UNL     1      -4.079   3.116  24.208  0.00  0.00    +0.000 C 
ATOM     19  C   UNL     1      -3.329   3.548  25.612  0.00  0.00    +0.000 C 
ATOM     20  C   UNL     1      -4.424   3.595  25.214  0.00  0.00    +0.000 C 
ENDBRANCH  16  17
ENDBRANCH  14  16
TORSDOF 9
ENDMDL
MODEL 4
REMARK VINA RESULT:      -8.6      1.409      5.407
REMARK  Name = 
REMARK  9 active torsions:
REMARK  status: ('A' for Active; 'I' for Inactive)
REMARK    1  A    between atoms: O_2  and  C_3
REMARK    2  A    between atoms: C_3  and  C_5
REMARK    3  A    between atoms: C_5  and  N_6
REMARK    4  A    between atoms: C_5  and  C_31
REMARK    5  A    between atoms: C_7  and  C_9
REMARK    6  A    between atoms: C_10  and  N_21
REMARK    7  A    between atoms: C_14  and  C_16
REMARK    8  A    between atoms: C_16  and  C_17
REMARK    9  A    between atoms: N_24  and  C_25
REMARK                            x       y       z     vdW  Elec       q    Type
REMARK                         _______ _______ _______ _____ _____    ______ ____
ROOT
ATOM      9  C   UNL     1      -2.911   0.090  24.566  0.00  0.00    +0.174 C 
ATOM     10  C   UNL     1      -3.359   0.767  24.421  0.00  0.00    +0.126 C 
ATOM     11  C   UNL     1      -4.141   0.533  24.298  0.00  0.00    +0.045 C 
ATOM     12  C   UNL     1      -4.175  -0.289  24.367  0.00  0.00    +0.096 C 
ATOM     13  N   UNL     1      -3.414  -0.562  24.533  0.00  0.00    -0.272 N 
ATOM     14  C   UNL     1      -3.196  -1.349  24.645  0.00  0.00    +0.226 C 
ATOM     15  O   UNL     1      -2.410  -1.540  24.808  0.00  0.00    -0.275 OA
ENDROOT
BRANCH  10  21
ATOM     21  N   UNL     1      -3.077   1.542  24.402  0.00  0.00    -0.187 NA
ATOM     22  C   UNL     1      -3.482   2.139  24.804  0.00  0.00    +0.339 C 
ATOM     23  O   UNL     1      -4.169   1.960  25.224  0.00  0.00    -0.249 OA
ATOM     24  N   UNL     1      -3.199   2.913  24.785  0.00  0.00    -0.189 NA
BRANCH  24  25
ATOM     25  C   UNL     1      -3.604   3.510  25.187  0.00  0.00    +0.097 C 
ATOM     26  C   UNL     1      -3.304   3.806  25.895  0.00  0.00    +0.022 C 
ATOM     27  C   UNL     1      -3.709   4.403  26.297  0.00  0.00    +0.002 C 
ATOM     28  C   UNL     1      -4.413   4.703  25.990  0.00  0.00    +0.000 C 
ATOM     29  C   UNL     1      -4.713   4.406  25.281  0.00  0.00    +0.002 C 
ATOM     30  C   UNL     1      -4.308   3.810  24.879  0.00  0.00    +0.022 C 
ENDBRANCH  24  25
ENDBRANCH  10  21
BRANCH   9   7
ATOM      6  N   UNL     1      -1.563   0.248  24.118  0.00  0.00    -0.194 NA
ATOM      7  C   UNL     1      -2.100   0.070  24.718  0.00  0.00    +0.262 C 
ATOM      8  O   UNL     1      -1.826  -0.129  25.471  0.00  0.00    -0.271 OA
BRANCH   6   5
ATOM      5  C   UNL     1      -0.752   0.228  24.270  0.00  0.00    +0.193 C 
BRANCH   5  31
ATOM     31  C   UNL     1      -0.304  -0.424  24.034  0.00  0.00    +0.031 C 
ATOM     32  C   UNL     1      -0.149  -0.550  23.233  0.00  0.00    +0.002 C 
ATOM     33  C   UNL     1      -0.011  -0.949  24.598  0.00  0.00    +0.002 C 
ENDBRANCH   5  31
BRANCH   5   3
ATOM      3  C   UNL     1      -0.390   0.859  24.658  0.00  0.00    +0.337 C 
ATOM      4  O   UNL     1      -0.294   0.840  25.477  0.00  0.00    -0.248 OA
BRANCH   3   2
ATOM      1  C   UNL     1       0.274   2.124  24.608  0.00  0.00    +0.256 C 
ATOM      2  O   UNL     1      -0.124   1.511  24.226  0.00  0.00    -0.443 OA
ENDBRANCH   3   2
ENDBRANCH   5   3
ENDBRANCH   6   5
ENDBRANCH   9   7
BRANCH  14  16
ATOM     16  C   UNL     1      -3.763  -1.947  24.595  0.00  0.00    +0.085 C 
BRANCH  16  17
ATOM     17  C   UNL     1      -3.531  -2.738  24.603  0.00  0.00    +0.009 C 
ATOM     18  C   UNL     1      -3.452  -2.707  25.423  0.00  0.00    +0.000 C 
ATOM     19  C   UNL     1      -3.609  -2.770  23.782  0.00  0.00    +0.000 C 
ATOM     20  C   UNL     1      -3.299  -3.530  24.611  0.00  0.00    +0.000 C 
ENDBRANCH  16  17
ENDBRANCH  14  16
TORSDOF 9
ENDMDL
MODEL 5
REMARK VINA RESULT:      -8.2      1.408      3.312
REMARK  Name = 
REMARK  9 active torsions:
REMARK  status: ('A' for Active; 'I' for Inactive)
REMARK    1  A    between atoms: O_2  and  C_3
REMARK    2  A    between atoms: C_3  and  C_5
REMARK    3  A    between atoms: C_5  and  N_6
REMARK    4  A    between atoms: C_5  and  C_31
REMARK    5  A    between atoms: C_7  and  C_9
REMARK    6  A    between atoms: C_10  and  N_21
REMARK    7  A    between atoms: C_14  and  C_16
REMARK    8  A    between atoms: C_16  and  C_17
REMARK    9  A    between atoms: N_24  and  C_25
REMARK                            x       y       z     vdW  Elec       q    Type
REMARK                         _______ _______ _______ _____ _____    ______ ____
ROOT
ATOM      9  C   UNL     1      -3.189   1.818  24.584  0.00  0.00    +0.174 C 
ATOM     10  C   UNL     1      -3.076   1.010  24.461  0.00  0.00    +0.126 C 
ATOM     11  C   UNL     1      -3.803   0.632  24.565  0.00  0.00    +0.045 C 
ATOM     12  C   UNL     1      -4.365   1.208  24.751  0.00  0.00    +0.096 C 
ATOM     13  N   UNL     1      -3.985   1.940  24.763  0.00  0.00    -0.272 N 
ATOM     14  C   UNL     1      -4.339   2.667  24.925  0.00  0.00    +0.226 C 
ATOM     15  O   UNL     1      -3.887   3.358  24.916  0.00  0.00    -0.275 OA
ENDROOT
BRANCH  10  21
ATOM     21  N   UNL     1      -2.363   0.643  24.269  0.00  0.00    -0.187 NA
ATOM     22  C   UNL     1      -2.220  -0.133  24.509  0.00  0.00    +0.339 C 
ATOM     23  O   UNL     1      -2.791  -0.543  24.941  0.00  0.00    -0.249 OA
ATOM     24  N   UNL     1      -1.506  -0.499  24.317  0.00  0.00    -0.189 NA
BRANCH  24  25
ATOM     25  C   UNL     1      -1.363  -1.276  24.557  0.00  0.00    +0.097 C 
ATOM     26  C   UNL     1      -0.825  -1.427  25.163  0.00  0.00    +0.022 C 
ATOM     27  C   UNL     1      -0.682  -2.204  25.403  0.00  0.00    +0.002 C 
ATOM     28  C   UNL     1      -1.078  -2.828  25.037  0.00  0.00    +0.000 C 
ATOM     29  C   UNL     1      -1.616  -2.677  24.430  0.00  0.00    +0.002 C 
ATOM     30  C   UNL     1      -1.759  -1.900  24.190  0.00  0.00    +0.022 C 
ENDBRANCH  24  25
ENDBRANCH  10  21
BRANCH   9   7
ATOM      6  N   UNL     1      -2.046   2.475  25.135  0.00  0.00    -0.194 NA
ATOM      7  C   UNL     1      -2.608   2.402  24.535  0.00  0.00    +0.262 C 
ATOM      8  O   UNL     1      -2.588   2.912  23.887  0.00  0.00    -0.271 OA
BRANCH   6   5
ATOM      5  C   UNL     1      -1.465   3.058  25.087  0.00  0.00    +0.193 C 
BRANCH   5  31
ATOM     31  C   UNL     1      -1.551   3.763  25.507  0.00  0.00    +0.031 C 
ATOM     32  C   UNL     1      -1.667   3.745  26.324  0.00  0.00    +0.002 C 
ATOM     33  C   UNL     1      -1.522   4.486  25.111  0.00  0.00    +0.002 C 
ENDBRANCH   5  31
BRANCH   5   3
ATOM      3  C   UNL     1      -0.797   2.936  24.618  0.00  0.00    +0.337 C 
ATOM      4  O   UNL     1      -0.746   3.285  23.872  0.00  0.00    -0.248 OA
BRANCH   3   2
ATOM      1  C   UNL     1       0.489   2.342  24.427  0.00  0.00    +0.256 C 
ATOM      2  O   UNL     1      -0.179   2.464  24.896  0.00  0.00    -0.443 OA
ENDBRANCH   3   2
ENDBRANCH   5   3
ENDBRANCH   6   5
ENDBRANCH   9   7
BRANCH  14  16
ATOM     16  C   UNL     1      -5.146   2.705  25.096  0.00  0.00    +0.085 C 
BRANCH  16  17
ATOM     17  C   UNL     1      -5.463   3.381  25.446  0.00  0.00    +0.009 C 
ATOM     18  C   UNL     1      -5.470   2.999  26.177  0.00  0.00    +0.000 C 
ATOM     19  C   UNL     1      -5.455   3.763  24.715  0.00  0.00    +0.000 C 
ATOM     20  C   UNL     1      -5.780   4.058  25.796  0.00  0.00    +0.000 C 
ENDBRANCH  16  17
ENDBRANCH  14  16
TORSDOF 9
ENDMDL
