MODEL 1
REMARK VINA RESULT:     -11.7      0.000      0.000
REMARK  Name = 
REMARK  9 active torsions:
REMARK  status: ('A' for Active; 'I' for Inactive)
REMARK    1  A    between atoms: C_2  and  C_3
REMARK    2  A    between atoms: C_3  and  S_4
REMARK    3  A    between atoms: S_4  and  N_7
REMARK    4  A    between atoms: N_7  and  C_8
REMARK    5  A    between atoms: C_8  and  C_9
REMARK    6  A    between atoms: C_13  and  C_14
REMARK    7  A    between atoms: C_14  and  C_15
REMARK    8  A    between atoms: C_18  and  C_20
REMARK    9  A    between atoms: C_28  and  C_29
REMARK                            x       y       z     vdW  Elec       q    Type
REMARK                         _______ _______ _______ _____ _____    ______ ____
ROOT
ATOM      9  C   UNL     1      -4.022   0.662  24.338  0.00  0.00    +0.041 C 
ATOM     10  C   UNL     1      -4.666   0.843  24.821  0.00  0.00    -0.033 C 
ATOM     11  C   UNL     1      -4.805   1.625  25.046  0.00  0.00    -0.048 C 
ATOM     12  C   UNL     1      -5.450   1.806  25.530  0.00  0.00    +0.026 C 
ATOM     13  C   UNL     1      -4.301   2.225  24.789  0.00  0.00    +0.027 C 
ATOM     27  C   UNL     1      -3.657   2.044  24.306  0.00  0.00    +0.005 C 
ATOM     28  C   UNL     1      -3.517   1.263  24.081  0.00  0.00    +0.006 C 
ENDROOT
BRANCH  28  29
ATOM     29  C   UNL     1      -2.874   1.082  23.598  0.00  0.00    +0.000 C 
ATOM     30  C   UNL     1      -2.939   1.155  22.778  0.00  0.00    +0.000 C 
ATOM     31  C   UNL     1      -2.164   0.829  23.934  0.00  0.00    +0.000 C 
ENDBRANCH  28  29
BRANCH   9   8
ATOM      8  C   UNL     1      -3.882  -0.118  24.112  0.00  0.00    +0.119 C 
BRANCH   8   7
ATOM      7  N   UNL     1      -4.324  -0.729  24.443  0.00  0.00    -0.082 NA
BRANCH   7   4
ATOM      4  S   UNL     1      -4.110  -1.515  24.307  0.00  0.00    +0.057 S 
ATOM      5  O   UNL     1      -4.460  -1.481  23.561  0.00  0.00    -0.156 OA
ATOM      6  O   UNL     1      -3.760  -1.548  25.054  0.00  0.00    -0.156 OA
BRANCH   4   3
ATOM      3  C   UNL     1      -3.896  -2.300  24.171  0.00  0.00    +0.171 C 
BRANCH   3   2
ATOM      1  C   UNL     1      -3.197  -3.474  24.590  0.00  0.00    +0.002 C 
ATOM      2  C   UNL     1      -3.521  -2.734  24.762  0.00  0.00    +0.027 C 
ENDBRANCH   3   2
ENDBRANCH   4   3
ENDBRANCH   7   4
ENDBRANCH   8   7
ENDBRANCH   9   8
BRANCH  13  14
ATOM     14  C   UNL     1      -4.441   3.005  25.015  0.00  0.00    +0.091 C 
BRANCH  14  15
ATOM     15  C   UNL     1      -3.828   3.460  25.331  0.00  0.00    +0.227 A 
ATOM     16  N   UNL     1      -3.766   3.712  26.113  0.00  0.00    -0.111 NA
ATOM     17  N   UNL     1      -3.070   4.149  26.186  0.00  0.00    -0.107 NA
ATOM     18  C   UNL     1      -2.701   4.166  25.448  0.00  0.00    +0.252 A 
ATOM     19  O   UNL     1      -3.170   3.740  24.919  0.00  0.00    -0.419 OA
BRANCH  18  20
ATOM     20  C   UNL     1      -1.989   4.543  25.270  0.00  0.00    +0.083 A 
ATOM     21  C   UNL     1      -1.990   5.329  25.020  0.00  0.00    +0.007 A 
ATOM     22  C   UNL     1      -1.278   5.707  24.842  0.00  0.00    +0.000 A 
ATOM     23  C   UNL     1      -0.565   5.296  24.915  0.00  0.00    +0.002 A 
ATOM     24  C   UNL     1      -0.565   4.511  25.165  0.00  0.00    +0.030 A 
ATOM     25  C   UNL     1      -1.277   4.134  25.342  0.00  0.00    +0.145 A 
ATOM     26  F   UNL     1      -1.276   3.348  25.592  0.00  0.00    -0.204 F 
ENDBRANCH  18  20
ENDBRANCH  14  15
ENDBRANCH  13  14
TORSDOF 9
ENDMDL
MODEL 2
REMARK VINA RESULT:     -10.3      1.696      5.425
REMARK  Name = 
REMARK  9 active torsions:
REMARK  status: ('A' for Active; 'I' for Inactive)
REMARK    1  A    between atoms: C_2  and  C_3
REMARK    2  A    between atoms: C_3  and  S_4
REMARK    3  A    between atoms: S_4  and  N_7
REMARK    4  A    between atoms: N_7  and  C_8
REMARK    5  A    between atoms: C_8  and  C_9
REMARK    6  A    between atoms: C_13  and  C_14
REMARK    7  A    between atoms: C_14  and  C_15
REMARK    8  A    between atoms: C_18  and  C_20
REMARK    9  A    between atoms: C_28  and  C_29
REMARK                            x       y       z     vdW  Elec       q    Type
REMARK                         _______ _______ _______ _____ _____    ______ ____
ROOT
ATOM      9  C   UNL     1      -3.299   2.652  24.559  0.00  0.00    +0.041 C 
ATOM     10  C   UNL     1      -3.979   2.649  25.025  0.00  0.00    -0.033 C 
ATOM     11  C   UNL     1      -4.447   1.971  25.067  0.00  0.00    -0.048 C 
ATOM     12  C   UNL     1      -5.128   1.968  25.535  0.00  0.00    +0.026 C 
ATOM     13  C   UNL     1      -4.235   1.296  24.644  0.00  0.00    +0.027 C 
ATOM     27  C   UNL     1      -3.554   1.299  24.177  0.00  0.00    +0.005 C 
ATOM     28  C   UNL     1      -3.086   1.977  24.134  0.00  0.00    +0.006 C 
ENDROOT
BRANCH  28  29
ATOM     29  C   UNL     1      -2.407   1.980  23.668  0.00  0.00    +0.000 C 
ATOM     30  C   UNL     1      -1.687   1.729  23.986  0.00  0.00    +0.000 C 
ATOM     31  C   UNL     1      -2.445   2.233  22.884  0.00  0.00    +0.000 C 
ENDBRANCH  28  29
BRANCH   9   8
ATOM      8  C   UNL     1      -2.831   3.330  24.516  0.00  0.00    +0.119 C 
BRANCH   8   7
ATOM      7  N   UNL     1      -2.878   3.902  25.106  0.00  0.00    -0.082 NA
BRANCH   7   4
ATOM      4  S   UNL     1      -2.356   4.542  25.104  0.00  0.00    +0.057 S 
ATOM      5  O   UNL     1      -2.766   4.874  24.471  0.00  0.00    -0.156 OA
ATOM      6  O   UNL     1      -1.946   4.209  25.738  0.00  0.00    -0.156 OA
BRANCH   4   3
ATOM      3  C   UNL     1      -1.834   5.182  25.102  0.00  0.00    +0.171 C 
BRANCH   3   2
ATOM      1  C   UNL     1      -0.526   5.607  24.717  0.00  0.00    +0.002 C 
ATOM      2  C   UNL     1      -1.021   5.051  25.074  0.00  0.00    +0.027 C 
ENDBRANCH   3   2
ENDBRANCH   4   3
ENDBRANCH   7   4
ENDBRANCH   8   7
ENDBRANCH   9   8
BRANCH  13  14
ATOM     14  C   UNL     1      -4.702   0.619  24.686  0.00  0.00    +0.091 C 
BRANCH  14  15
ATOM     15  C   UNL     1      -4.369  -0.099  24.923  0.00  0.00    +0.227 A 
ATOM     16  N   UNL     1      -4.288  -0.363  25.700  0.00  0.00    -0.111 NA
ATOM     17  N   UNL     1      -3.927  -1.105  25.681  0.00  0.00    -0.107 NA
ATOM     18  C   UNL     1      -3.784  -1.298  24.892  0.00  0.00    +0.252 A 
ATOM     19  O   UNL     1      -4.057  -0.676  24.423  0.00  0.00    -0.419 OA
BRANCH  18  20
ATOM     20  C   UNL     1      -3.431  -1.993  24.619  0.00  0.00    +0.083 A 
ATOM     21  C   UNL     1      -3.896  -2.597  24.306  0.00  0.00    +0.007 A 
ATOM     22  C   UNL     1      -3.543  -3.291  24.034  0.00  0.00    +0.000 A 
ATOM     23  C   UNL     1      -2.723  -3.380  24.075  0.00  0.00    +0.002 A 
ATOM     24  C   UNL     1      -2.258  -2.775  24.388  0.00  0.00    +0.030 A 
ATOM     25  C   UNL     1      -2.612  -2.081  24.661  0.00  0.00    +0.145 A 
ATOM     26  F   UNL     1      -2.146  -1.477  24.974  0.00  0.00    -0.204 F 
ENDBRANCH  18  20
ENDBRANCH  14  15
ENDBRANCH  13  14
TORSDOF 9
ENDMDL
MODEL 3
REMARK VINA RESULT:      -9.9      3.035      4.848
REMARK  Name = 
REMARK  9 active torsions:
REMARK  status: ('A' for Active; 'I' for Inactive)
REMARK    1  A    between atoms: C_2  and  C_3
REMARK    2  A    between atoms: C_3  and  S_4
REMARK    3  A    between atoms: S_4  and  N_7
REMARK    4  A    between atoms: N_7  and  C_8
REMARK    5  A    between atoms: C_8  and  C_9
REMARK    6  A    between atoms: C_13  and  C_14
REMARK    7  A    between atoms: C_14  and  C_15
REMARK    8  A    between atoms: C_18  and  C_20
REMARK    9  A    between atoms: C_28  and  C_29
REMARK                            x       y       z     vdW  Elec       q    Type
REMARK                         _______ _______ _______ _____ _____    ______ ____
ROOT
ATOM      9  C   UNL     1      -0.353   0.080  24.003  0.00  0.00    +0.041 C 
ATOM     10  C   UNL     1      -0.537  -0.718  24.104  0.00  0.00    -0.033 C 
ATOM     11  C   UNL     1      -1.223  -0.934  24.509  0.00  0.00    -0.048 C 
ATOM     12  C   UNL     1      -1.407  -1.733  24.610  0.00  0.00    +0.026 C 
ATOM     13  C   UNL     1      -1.724  -0.354  24.813  0.00  0.00    +0.027 C 
ATOM     27  C   UNL     1      -1.540   0.444  24.712  0.00  0.00    +0.005 C 
ATOM     28  C   UNL     1      -0.855   0.661  24.307  0.00  0.00    +0.006 C 
ENDROOT
BRANCH  28  29
ATOM     29  C   UNL     1      -0.671   1.458  24.206  0.00  0.00    +0.000 C 
ATOM     30  C   UNL     1      -0.214   1.851  24.771  0.00  0.00    +0.000 C 
ATOM     31  C   UNL     1      -0.942   1.864  23.541  0.00  0.00    +0.000 C 
ENDBRANCH  28  29
BRANCH   9   8
ATOM      8  C   UNL     1       0.332   0.298  23.598  0.00  0.00    +0.119 C 
BRANCH   8   7
ATOM      7  N   UNL     1       0.817  -0.280  23.267  0.00  0.00    -0.082 NA
BRANCH   7   4
ATOM      4  S   UNL     1       1.488  -0.061  22.839  0.00  0.00    +0.057 S 
ATOM      5  O   UNL     1       1.077  -0.179  22.134  0.00  0.00    -0.156 OA
ATOM      6  O   UNL     1       1.899   0.058  23.545  0.00  0.00    -0.156 OA
BRANCH   4   3
ATOM      3  C   UNL     1       2.158   0.159  22.411  0.00  0.00    +0.171 C 
BRANCH   3   2
ATOM      1  C   UNL     1       3.540   0.520  22.388  0.00  0.00    +0.002 C 
ATOM      2  C   UNL     1       2.891   0.200  22.785  0.00  0.00    +0.027 C 
ENDBRANCH   3   2
ENDBRANCH   4   3
ENDBRANCH   7   4
ENDBRANCH   8   7
ENDBRANCH   9   8
BRANCH  13  14
ATOM     14  C   UNL     1      -2.408  -0.571  25.217  0.00  0.00    +0.091 C 
BRANCH  14  15
ATOM     15  C   UNL     1      -3.138  -0.259  24.990  0.00  0.00    +0.227 A 
ATOM     16  N   UNL     1      -3.661  -0.593  24.448  0.00  0.00    -0.111 NA
ATOM     17  N   UNL     1      -4.318  -0.098  24.389  0.00  0.00    -0.107 NA
ATOM     18  C   UNL     1      -4.202   0.542  24.895  0.00  0.00    +0.252 A 
ATOM     19  O   UNL     1      -3.472   0.443  25.268  0.00  0.00    -0.419 OA
BRANCH  18  20
ATOM     20  C   UNL     1      -4.724   1.172  25.010  0.00  0.00    +0.083 A 
ATOM     21  C   UNL     1      -5.291   1.133  25.607  0.00  0.00    +0.007 A 
ATOM     22  C   UNL     1      -5.812   1.763  25.722  0.00  0.00    +0.000 A 
ATOM     23  C   UNL     1      -5.766   2.430  25.237  0.00  0.00    +0.002 A 
ATOM     24  C   UNL     1      -5.199   2.467  24.640  0.00  0.00    +0.030 A 
ATOM     25  C   UNL     1      -4.677   1.838  24.526  0.00  0.00    +0.145 A 
ATOM     26  F   UNL     1      -4.110   1.876  23.928  0.00  0.00    -0.204 F 
ENDBRANCH  18  20
ENDBRANCH  14  15
ENDBRANCH  13  14
TORSDOF 9
ENDMDL
MODEL 4
REMARK VINA RESULT:      -9.6      1.559      2.511
REMARK  Name = 
REMARK  9 active torsions:
REMARK  status: ('A' for Active; 'I' for Inactive)
REMARK    1  A    between atoms: C_2  and  C_3
REMARK    2  A    between atoms: C_3  and  S_4
REMARK    3  A    between atoms: S_4  and  N_7
REMARK    4  A    between atoms: N_7  and  C_8
REMARK    5  A    between atoms: C_8  and  C_9
REMARK    6  A    between atoms: C_13  and  C_14
REMARK    7  A    between atoms: C_14  and  C_15
REMARK    8  A    between atoms: C_18  and  C_20
REMARK    9  A    between atoms: C_28  and  C_29
REMARK                            x       y       z     vdW  Elec       q    Type
REMARK                         _______ _______ _______ _____ _____    ______ ____
ROOT
ATOM      9  C   UNL     1      -2.106  -0.315  24.578  0.00  0.00    +0.041 C 
ATOM     10  C   UNL     1      -1.316  -0.540  24.657  0.00  0.00    -0.033 C 
ATOM     11  C   UNL     1      -0.718   0.026  24.601  0.00  0.00    -0.048 C 
ATOM     12  C   UNL     1       0.072  -0.200  24.680  0.00  0.00    +0.026 C 
ATOM     13  C   UNL     1      -0.909   0.816  24.467  0.00  0.00    +0.027 C 
ATOM     27  C   UNL     1      -1.699   1.042  24.388  0.00  0.00    +0.005 C 
ATOM     28  C   UNL     1      -2.297   0.477  24.443  0.00  0.00    +0.006 C 
ENDROOT
BRANCH  28  29
ATOM     29  C   UNL     1      -3.086   0.702  24.365  0.00  0.00    +0.000 C 
ATOM     30  C   UNL     1      -3.425   0.765  23.614  0.00  0.00    +0.000 C 
ATOM     31  C   UNL     1      -3.538   0.865  25.035  0.00  0.00    +0.000 C 
ENDBRANCH  28  29
BRANCH   9   8
ATOM      8  C   UNL     1      -2.704  -0.880  24.633  0.00  0.00    +0.119 C 
BRANCH   8   7
ATOM      7  N   UNL     1      -2.520  -1.657  24.836  0.00  0.00    -0.082 NA
BRANCH   7   4
ATOM      4  S   UNL     1      -3.080  -2.255  24.731  0.00  0.00    +0.057 S 
ATOM      5  O   UNL     1      -2.736  -2.451  24.008  0.00  0.00    -0.156 OA
ATOM      6  O   UNL     1      -3.424  -2.058  25.455  0.00  0.00    -0.156 OA
BRANCH   4   3
ATOM      3  C   UNL     1      -3.640  -2.852  24.627  0.00  0.00    +0.171 C 
BRANCH   3   2
ATOM      1  C   UNL     1      -4.569  -3.541  23.788  0.00  0.00    +0.002 C 
ATOM      2  C   UNL     1      -3.961  -2.990  23.881  0.00  0.00    +0.027 C 
ENDBRANCH   3   2
ENDBRANCH   4   3
ENDBRANCH   7   4
ENDBRANCH   8   7
ENDBRANCH   9   8
BRANCH  13  14
ATOM     14  C   UNL     1      -0.312   1.382  24.411  0.00  0.00    +0.091 C 
BRANCH  14  15
ATOM     15  C   UNL     1      -0.374   2.090  24.832  0.00  0.00    +0.227 A 
ATOM     16  N   UNL     1      -0.051   2.241  25.575  0.00  0.00    -0.111 NA
ATOM     17  N   UNL     1      -0.247   3.015  25.785  0.00  0.00    -0.107 NA
ATOM     18  C   UNL     1      -0.690   3.341  25.170  0.00  0.00    +0.252 A 
ATOM     19  O   UNL     1      -0.769   2.769  24.581  0.00  0.00    -0.419 OA
BRANCH  18  20
ATOM     20  C   UNL     1      -1.000   4.106  25.149  0.00  0.00    +0.083 A 
ATOM     21  C   UNL     1      -0.591   4.706  24.759  0.00  0.00    +0.007 A 
ATOM     22  C   UNL     1      -0.901   5.471  24.738  0.00  0.00    +0.000 A 
ATOM     23  C   UNL     1      -1.621   5.634  25.108  0.00  0.00    +0.002 A 
ATOM     24  C   UNL     1      -2.030   5.033  25.498  0.00  0.00    +0.030 A 
ATOM     25  C   UNL     1      -1.719   4.269  25.519  0.00  0.00    +0.145 A 
ATOM     26  F   UNL     1      -2.129   3.669  25.909  0.00  0.00    -0.204 F 
ENDBRANCH  18  20
ENDBRANCH  14  15
ENDBRANCH  13  14
TORSDOF 9
ENDMDL
MODEL 5
REMARK VINA RESULT:      -9.5      2.823      4.415
REMARK  Name = 
REMARK  9 active torsions:
REMARK  status: ('A' for Active; 'I' for Inactive)
REMARK    1  A    between atoms: C_2  and  C_3
REMARK    2  A    between atoms: C_3  and  S_4
REMARK    3  A    between atoms: S_4  and  N_7
REMARK    4  A    between atoms: N_7  and  C_8
REMARK    5  A    between atoms: C_8  and  C_9
REMARK    6  A    between atoms: C_13  and  C_14
REMARK    7  A    between atoms: C_14  and  C_15
REMARK    8  A    between atoms: C_18  and  C_20
REMARK    9  A    between atoms: C_28  and  C_29
REMARK                            x       y       z     vdW  Elec       q    Type
REMARK                         _______ _______ _______ _____ _____    ______ ____
ROOT
ATOM      9  C   UNL     1      -0.469   1.703  24.525  0.00  0.00    +0.041 C 
ATOM     10  C   UNL     1      -0.313   2.505  24.411  0.00  0.00    -0.033 C 
ATOM     11  C   UNL     1      -0.820   3.072  24.730  0.00  0.00    -0.048 C 
ATOM     12  C   UNL     1      -0.664   3.875  24.616  0.00  0.00    +0.026 C 
ATOM     13  C   UNL     1      -1.481   2.839  25.164  0.00  0.00    +0.027 C 
ATOM     27  C   UNL     1      -1.637   2.037  25.278  0.00  0.00    +0.005 C 
ATOM     28  C   UNL     1      -1.131   1.468  24.959  0.00  0.00    +0.006 C 
ENDROOT
BRANCH  28  29
ATOM     29  C   UNL     1      -1.287   0.667  25.073  0.00  0.00    +0.000 C 
ATOM     30  C   UNL     1      -1.751   0.255  24.529  0.00  0.00    +0.000 C 
ATOM     31  C   UNL     1      -0.978   0.276  25.731  0.00  0.00    +0.000 C 
ENDBRANCH  28  29
BRANCH   9   8
ATOM      8  C   UNL     1       0.037   1.134  24.206  0.00  0.00    +0.119 C 
BRANCH   8   7
ATOM      7  N   UNL     1       0.591   1.349  23.635  0.00  0.00    -0.082 NA
BRANCH   7   4
ATOM      4  S   UNL     1       1.160   0.805  23.388  0.00  0.00    +0.057 S 
ATOM      5  O   UNL     1       1.722   1.176  23.865  0.00  0.00    -0.156 OA
ATOM      6  O   UNL     1       0.597   0.434  22.911  0.00  0.00    -0.156 OA
BRANCH   4   3
ATOM      3  C   UNL     1       1.729   0.261  23.140  0.00  0.00    +0.171 C 
BRANCH   3   2
ATOM      1  C   UNL     1       2.946  -0.025  22.447  0.00  0.00    +0.002 C 
ATOM      2  C   UNL     1       2.408   0.522  22.753  0.00  0.00    +0.027 C 
ENDBRANCH   3   2
ENDBRANCH   4   3
ENDBRANCH   7   4
ENDBRANCH   8   7
ENDBRANCH   9   8
BRANCH  13  14
ATOM     14  C   UNL     1      -1.987   3.406  25.483  0.00  0.00    +0.091 C 
BRANCH  14  15
ATOM     15  C   UNL     1      -2.782   3.423  25.259  0.00  0.00    +0.227 A 
ATOM     16  N   UNL     1      -3.128   3.962  24.741  0.00  0.00    -0.111 NA
ATOM     17  N   UNL     1      -3.929   3.776  24.676  0.00  0.00    -0.107 NA
ATOM     18  C   UNL     1      -4.078   3.121  25.156  0.00  0.00    +0.252 A 
ATOM     19  O   UNL     1      -3.368   2.902  25.516  0.00  0.00    -0.419 OA
BRANCH  18  20
ATOM     20  C   UNL     1      -4.808   2.749  25.257  0.00  0.00    +0.083 A 
ATOM     21  C   UNL     1      -5.281   2.941  25.904  0.00  0.00    +0.007 A 
ATOM     22  C   UNL     1      -6.012   2.569  26.005  0.00  0.00    +0.000 A 
ATOM     23  C   UNL     1      -6.267   2.007  25.457  0.00  0.00    +0.002 A 
ATOM     24  C   UNL     1      -5.793   1.816  24.811  0.00  0.00    +0.030 A 
ATOM     25  C   UNL     1      -5.063   2.187  24.710  0.00  0.00    +0.145 A 
ATOM     26  F   UNL     1      -4.589   1.996  24.062  0.00  0.00    -0.204 F 
ENDBRANCH  18  20
ENDBRANCH  14  15
ENDBRANCH  13  14
TORSDOF 9
ENDMDL
MODEL 6
REMARK VINA RESULT:      -9.5      2.195      5.898
REMARK  Name = 
REMARK  9 active torsions:
REMARK  status: ('A' for Active; 'I' for Inactive)
REMARK    1  A    between atoms: C_2  and  C_3
REMARK    2  A    between atoms: C_3  and  S_4
REMARK    3  A    between atoms: S_4  and  N_7
REMARK    4  A    between atoms: N_7  and  C_8
REMARK    5  A    between atoms: C_8  and  C_9
REMARK    6  A    between atoms: C_13  and  C_14
REMARK    7  A    between atoms: C_14  and  C_15
REMARK    8  A    between atoms: C_18  and  C_20
REMARK    9  A    between atoms: C_28  and  C_29
REMARK                            x       y       z     vdW  Elec       q    Type
REMARK                         _______ _______ _______ _____ _____    ______ ____
ROOT
ATOM      9  C   UNL     1      -1.379   2.189  24.886  0.00  0.00    +0.041 C 
ATOM     10  C   UNL     1      -0.910   1.905  25.501  0.00  0.00    -0.033 C 
ATOM     11  C   UNL     1      -0.883   1.095  25.659  0.00  0.00    -0.048 C 
ATOM     12  C   UNL     1      -0.413   0.810  26.275  0.00  0.00    +0.026 C 
ATOM     13  C   UNL     1      -1.326   0.571  25.202  0.00  0.00    +0.027 C 
ATOM     27  C   UNL     1      -1.795   0.855  24.586  0.00  0.00    +0.005 C 
ATOM     28  C   UNL     1      -1.823   1.664  24.428  0.00  0.00    +0.006 C 
ENDROOT
BRANCH  28  29
ATOM     29  C   UNL     1      -2.292   1.948  23.813  0.00  0.00    +0.000 C 
ATOM     30  C   UNL     1      -1.992   1.980  23.045  0.00  0.00    +0.000 C 
ATOM     31  C   UNL     1      -3.063   2.201  23.965  0.00  0.00    +0.000 C 
ENDBRANCH  28  29
BRANCH   9   8
ATOM      8  C   UNL     1      -1.407   2.998  24.727  0.00  0.00    +0.119 C 
BRANCH   8   7
ATOM      7  N   UNL     1      -0.971   3.524  25.188  0.00  0.00    -0.082 NA
BRANCH   7   4
ATOM      4  S   UNL     1      -1.019   4.336  25.046  0.00  0.00    +0.057 S 
ATOM      5  O   UNL     1      -0.427   4.271  24.475  0.00  0.00    -0.156 OA
ATOM      6  O   UNL     1      -1.612   4.400  25.617  0.00  0.00    -0.156 OA
BRANCH   4   3
ATOM      3  C   UNL     1      -1.067   5.147  24.903  0.00  0.00    +0.171 C 
BRANCH   3   2
ATOM      1  C   UNL     1      -1.854   6.339  24.873  0.00  0.00    +0.002 C 
ATOM      2  C   UNL     1      -1.732   5.570  25.146  0.00  0.00    +0.027 C 
ENDBRANCH   3   2
ENDBRANCH   4   3
ENDBRANCH   7   4
ENDBRANCH   8   7
ENDBRANCH   9   8
BRANCH  13  14
ATOM     14  C   UNL     1      -1.299  -0.238  25.360  0.00  0.00    +0.091 C 
BRANCH  14  15
ATOM     15  C   UNL     1      -1.997  -0.679  25.374  0.00  0.00    +0.227 A 
ATOM     16  N   UNL     1      -2.518  -0.740  26.009  0.00  0.00    -0.111 NA
ATOM     17  N   UNL     1      -3.139  -1.235  25.783  0.00  0.00    -0.107 NA
ATOM     18  C   UNL     1      -3.000  -1.480  25.007  0.00  0.00    +0.252 A 
ATOM     19  O   UNL     1      -2.294  -1.136  24.754  0.00  0.00    -0.419 OA
BRANCH  18  20
ATOM     20  C   UNL     1      -3.483  -1.980  24.563  0.00  0.00    +0.083 A 
ATOM     21  C   UNL     1      -3.351  -2.794  24.571  0.00  0.00    +0.007 A 
ATOM     22  C   UNL     1      -3.834  -3.294  24.126  0.00  0.00    +0.000 A 
ATOM     23  C   UNL     1      -4.449  -2.979  23.674  0.00  0.00    +0.002 A 
ATOM     24  C   UNL     1      -4.580  -2.166  23.666  0.00  0.00    +0.030 A 
ATOM     25  C   UNL     1      -4.097  -1.665  24.111  0.00  0.00    +0.145 A 
ATOM     26  F   UNL     1      -4.229  -0.851  24.103  0.00  0.00    -0.204 F 
ENDBRANCH  18  20
ENDBRANCH  14  15
ENDBRANCH  13  14
TORSDOF 9
ENDMDL
MODEL 7
REMARK VINA RESULT:      -9.3      2.279      5.409
REMARK  Name = 
REMARK  9 active torsions:
REMARK  status: ('A' for Active; 'I' for Inactive)
REMARK    1  A    between atoms: C_2  and  C_3
REMARK    2  A    between atoms: C_3  and  S_4
REMARK    3  A    between atoms: S_4  and  N_7
REMARK    4  A    between atoms: N_7  and  C_8
REMARK    5  A    between atoms: C_8  and  C_9
REMARK    6  A    between atoms: C_13  and  C_14
REMARK    7  A    between atoms: C_14  and  C_15
REMARK    8  A    between atoms: C_18  and  C_20
REMARK    9  A    between atoms: C_28  and  C_29
REMARK                            x       y       z     vdW  Elec       q    Type
REMARK                         _______ _______ _______ _____ _____    ______ ____
ROOT
ATOM      9  C   UNL     1      -2.258   2.207  24.484  0.00  0.00    +0.041 C 
ATOM     10  C   UNL     1      -1.737   2.174  25.123  0.00  0.00    -0.033 C 
ATOM     11  C   UNL     1      -1.176   1.570  25.166  0.00  0.00    -0.048 C 
ATOM     12  C   UNL     1      -0.654   1.537  25.806  0.00  0.00    +0.026 C 
ATOM     13  C   UNL     1      -1.137   1.000  24.573  0.00  0.00    +0.027 C 
ATOM     27  C   UNL     1      -1.658   1.033  23.934  0.00  0.00    +0.005 C 
ATOM     28  C   UNL     1      -2.218   1.636  23.889  0.00  0.00    +0.006 C 
ENDROOT
BRANCH  28  29
ATOM     29  C   UNL     1      -2.739   1.669  23.251  0.00  0.00    +0.000 C 
ATOM     30  C   UNL     1      -3.457   1.263  23.283  0.00  0.00    +0.000 C 
ATOM     31  C   UNL     1      -2.543   2.107  22.580  0.00  0.00    +0.000 C 
ENDBRANCH  28  29
BRANCH   9   8
ATOM      8  C   UNL     1      -2.818   2.810  24.439  0.00  0.00    +0.119 C 
BRANCH   8   7
ATOM      7  N   UNL     1      -2.961   3.291  25.093  0.00  0.00    -0.082 NA
BRANCH   7   4
ATOM      4  S   UNL     1      -3.666   3.718  25.146  0.00  0.00    +0.057 S 
ATOM      5  O   UNL     1      -3.383   4.253  24.585  0.00  0.00    -0.156 OA
ATOM      6  O   UNL     1      -3.947   3.182  25.707  0.00  0.00    -0.156 OA
BRANCH   4   3
ATOM      3  C   UNL     1      -4.370   4.145  25.199  0.00  0.00    +0.171 C 
BRANCH   3   2
ATOM      1  C   UNL     1      -5.765   4.178  25.506  0.00  0.00    +0.002 C 
ATOM      2  C   UNL     1      -5.027   3.813  25.568  0.00  0.00    +0.027 C 
ENDBRANCH   3   2
ENDBRANCH   4   3
ENDBRANCH   7   4
ENDBRANCH   8   7
ENDBRANCH   9   8
BRANCH  13  14
ATOM     14  C   UNL     1      -0.576   0.397  24.617  0.00  0.00    +0.091 C 
BRANCH  14  15
ATOM     15  C   UNL     1      -0.818  -0.383  24.743  0.00  0.00    +0.227 A 
ATOM     16  N   UNL     1      -0.343  -1.000  25.012  0.00  0.00    -0.111 NA
ATOM     17  N   UNL     1      -0.809  -1.679  25.058  0.00  0.00    -0.107 NA
ATOM     18  C   UNL     1      -1.573  -1.481  24.818  0.00  0.00    +0.252 A 
ATOM     19  O   UNL     1      -1.579  -0.679  24.623  0.00  0.00    -0.419 OA
BRANCH  18  20
ATOM     20  C   UNL     1      -2.217  -1.995  24.779  0.00  0.00    +0.083 A 
ATOM     21  C   UNL     1      -2.251  -2.570  24.188  0.00  0.00    +0.007 A 
ATOM     22  C   UNL     1      -2.896  -3.084  24.149  0.00  0.00    +0.000 A 
ATOM     23  C   UNL     1      -3.506  -3.022  24.702  0.00  0.00    +0.002 A 
ATOM     24  C   UNL     1      -3.471  -2.448  25.292  0.00  0.00    +0.030 A 
ATOM     25  C   UNL     1      -2.827  -1.934  25.331  0.00  0.00    +0.145 A 
ATOM     26  F   UNL     1      -2.793  -1.360  25.922  0.00  0.00    -0.204 F 
ENDBRANCH  18  20
ENDBRANCH  14  15
ENDBRANCH  13  14
TORSDOF 9
ENDMDL
