MODEL 1
REMARK VINA RESULT:     -14.8      0.000      0.000
REMARK  Name = 
REMARK  6 active torsions:
REMARK  status: ('A' for Active; 'I' for Inactive)
REMARK    1  A    between atoms: C_2  and  C_27
REMARK    2  A    between atoms: N_3  and  C_4
REMARK    3  A    between atoms: N_12  and  C_13
REMARK    4  A    between atoms: C_13  and  C_14
REMARK    5  A    between atoms: C_14  and  C_15
REMARK    6  A    between atoms: C_15  and  C_16
REMARK                            x       y       z     vdW  Elec       q    Type
REMARK                         _______ _______ _______ _____ _____    ______ ____
ROOT
ATOM      4  C   UNL     1      -3.081   2.529  24.122  0.00  0.00    +0.130 A 
ATOM      5  C   UNL     1      -3.286   3.319  24.241  0.00  0.00    +0.023 A 
ATOM      6  C   UNL     1      -3.995   3.509  24.618  0.00  0.00    +0.014 A 
ATOM      7  C   UNL     1      -4.498   2.908  24.876  0.00  0.00    +0.041 A 
ATOM      8  C   UNL     1      -5.304   2.786  25.301  0.00  0.00    +0.054 C 
ATOM      9  C   UNL     1      -5.835   3.144  25.587  0.00  0.00    +0.011 C 
ATOM     10  C   UNL     1      -5.629   2.365  25.468  0.00  0.00    +0.039 C 
ATOM     11  C   UNL     1      -5.558   1.380  25.418  0.00  0.00    +0.074 C 
ATOM     12  N   UNL     1      -4.822   1.313  25.028  0.00  0.00    -0.272 NA
ATOM     22  C   UNL     1      -5.250   1.833  25.260  0.00  0.00    +0.078 C 
ATOM     23  C   UNL     1      -4.786   2.483  25.024  0.00  0.00    +0.110 C 
ATOM     24  N   UNL     1      -4.292   2.118  24.757  0.00  0.00    -0.298 N 
ATOM     25  C   UNL     1      -3.584   1.928  24.380  0.00  0.00    +0.276 A 
ATOM     26  O   UNL     1      -3.378   1.138  24.261  0.00  0.00    -0.266 OA
ENDROOT
BRANCH   4   3
ATOM      1  O   UNL     1      -0.948   2.430  23.667  0.00  0.00    -0.267 OA
ATOM      2  C   UNL     1      -1.657   2.619  24.046  0.00  0.00    +0.275 C 
ATOM      3  N   UNL     1      -2.372   2.340  23.744  0.00  0.00    -0.170 NA
BRANCH   2  27
ATOM     27  C   UNL     1      -1.650   3.087  24.725  0.00  0.00    +0.085 A 
ATOM     28  C   UNL     1      -1.582   2.814  25.501  0.00  0.00    +0.012 A 
ATOM     29  C   UNL     1      -1.600   3.469  26.003  0.00  0.00    +0.008 A 
ATOM     30  C   UNL     1      -1.678   4.146  25.538  0.00  0.00    +0.036 A 
ATOM     31  S   UNL     1      -1.709   3.909  24.748  0.00  0.00    -0.082 S 
ENDBRANCH   2  27
ENDBRANCH   4   3
BRANCH  12  13
ATOM     13  C   UNL     1      -4.168   0.954  24.676  0.00  0.00    +0.072 C 
BRANCH  13  14
ATOM     14  C   UNL     1      -4.016   0.154  24.808  0.00  0.00    +0.022 C 
BRANCH  14  15
ATOM     15  C   UNL     1      -3.941  -0.363  24.169  0.00  0.00    +0.028 C 
BRANCH  15  16
ATOM     16  C   UNL     1      -3.853  -1.173  24.301  0.00  0.00    -0.022 A 
ATOM     17  C   UNL     1      -3.373  -1.440  24.915  0.00  0.00    -0.004 A 
ATOM     18  C   UNL     1      -3.285  -2.251  25.047  0.00  0.00    -0.000 A 
ATOM     19  C   UNL     1      -3.677  -2.791  24.563  0.00  0.00    -0.000 A 
ATOM     20  C   UNL     1      -4.157  -2.524  23.949  0.00  0.00    -0.000 A 
ATOM     21  C   UNL     1      -4.245  -1.714  23.817  0.00  0.00    -0.004 A 
ENDBRANCH  15  16
ENDBRANCH  14  15
ENDBRANCH  13  14
ENDBRANCH  12  13
TORSDOF 6
ENDMDL
MODEL 2
REMARK VINA RESULT:     -14.0      1.445      4.126
REMARK  Name = 
REMARK  6 active torsions:
REMARK  status: ('A' for Active; 'I' for Inactive)
REMARK    1  A    between atoms: C_2  and  C_27
REMARK    2  A    between atoms: N_3  and  C_4
REMARK    3  A    between atoms: N_12  and  C_13
REMARK    4  A    between atoms: C_13  and  C_14
REMARK    5  A    between atoms: C_14  and  C_15
REMARK    6  A    between atoms: C_15  and  C_16
REMARK                            x       y       z     vdW  Elec       q    Type
REMARK                         _______ _______ _______ _____ _____    ______ ____
ROOT
ATOM      4  C   UNL     1      -3.299   0.527  24.337  0.00  0.00    +0.130 A 
ATOM      5  C   UNL     1      -3.946   0.018  24.275  0.00  0.00    +0.023 A 
ATOM      6  C   UNL     1      -4.701   0.283  24.479  0.00  0.00    +0.014 A 
ATOM      7  C   UNL     1      -4.808   1.057  24.744  0.00  0.00    +0.041 A 
ATOM      8  C   UNL     1      -5.469   1.628  25.030  0.00  0.00    +0.054 C 
ATOM      9  C   UNL     1      -6.160   1.655  25.147  0.00  0.00    +0.011 C 
ATOM     10  C   UNL     1      -5.519   2.154  25.207  0.00  0.00    +0.039 C 
ATOM     11  C   UNL     1      -4.882   2.897  25.345  0.00  0.00    +0.074 C 
ATOM     12  N   UNL     1      -4.174   2.518  25.113  0.00  0.00    -0.272 NA
ATOM     22  C   UNL     1      -4.865   2.355  25.169  0.00  0.00    +0.078 C 
ATOM     23  C   UNL     1      -4.822   1.565  24.909  0.00  0.00    +0.110 C 
ATOM     24  N   UNL     1      -4.161   1.566  24.805  0.00  0.00    -0.298 N 
ATOM     25  C   UNL     1      -3.407   1.300  24.602  0.00  0.00    +0.276 A 
ATOM     26  O   UNL     1      -2.760   1.809  24.663  0.00  0.00    -0.266 OA
ENDROOT
BRANCH   4   3
ATOM      1  O   UNL     1      -1.495  -0.700  24.260  0.00  0.00    -0.267 OA
ATOM      2  C   UNL     1      -2.250  -0.434  24.464  0.00  0.00    +0.275 C 
ATOM      3  N   UNL     1      -2.546   0.261  24.134  0.00  0.00    -0.170 NA
BRANCH   2  27
ATOM     27  C   UNL     1      -2.708  -0.864  24.999  0.00  0.00    +0.085 A 
ATOM     28  C   UNL     1      -2.730  -0.754  25.817  0.00  0.00    +0.012 A 
ATOM     29  C   UNL     1      -3.260  -1.301  26.133  0.00  0.00    +0.008 A 
ATOM     30  C   UNL     1      -3.566  -1.749  25.511  0.00  0.00    +0.036 A 
ATOM     31  S   UNL     1      -3.224  -1.479  24.810  0.00  0.00    -0.082 S 
ENDBRANCH   2  27
ENDBRANCH   4   3
BRANCH  12  13
ATOM     13  C   UNL     1      -3.370   2.420  24.955  0.00  0.00    +0.072 C 
BRANCH  13  14
ATOM     14  C   UNL     1      -2.891   3.079  24.827  0.00  0.00    +0.022 C 
BRANCH  14  15
ATOM     15  C   UNL     1      -2.287   3.259  25.360  0.00  0.00    +0.028 C 
BRANCH  15  16
ATOM     16  C   UNL     1      -1.788   3.902  25.217  0.00  0.00    -0.022 A 
ATOM     17  C   UNL     1      -1.014   3.773  24.964  0.00  0.00    -0.004 A 
ATOM     18  C   UNL     1      -0.516   4.416  24.821  0.00  0.00    -0.000 A 
ATOM     19  C   UNL     1      -0.793   5.185  24.930  0.00  0.00    -0.000 A 
ATOM     20  C   UNL     1      -1.567   5.313  25.183  0.00  0.00    -0.000 A 
ATOM     21  C   UNL     1      -2.066   4.671  25.326  0.00  0.00    -0.004 A 
ENDBRANCH  15  16
ENDBRANCH  14  15
ENDBRANCH  13  14
ENDBRANCH  12  13
TORSDOF 6
ENDMDL
MODEL 3
REMARK VINA RESULT:     -13.1      1.853      4.090
REMARK  Name = 
REMARK  6 active torsions:
REMARK  status: ('A' for Active; 'I' for Inactive)
REMARK    1  A    between atoms: C_2  and  C_27
REMARK    2  A    between atoms: N_3  and  C_4
REMARK    3  A    between atoms: N_12  and  C_13
REMARK    4  A    between atoms: C_13  and  C_14
REMARK    5  A    between atoms: C_14  and  C_15
REMARK    6  A    between atoms: C_15  and  C_16
REMARK                            x       y       z     vdW  Elec       q    Type
REMARK                         _______ _______ _______ _____ _____    ______ ____
ROOT
ATOM      4  C   UNL     1      -1.900  -0.385  25.352  0.00  0.00    +0.130 A 
ATOM      5  C   UNL     1      -1.522  -1.113  25.267  0.00  0.00    +0.023 A 
ATOM      6  C   UNL     1      -1.924  -1.751  24.932  0.00  0.00    +0.014 A 
ATOM      7  C   UNL     1      -2.705  -1.661  24.682  0.00  0.00    +0.041 A 
ATOM      8  C   UNL     1      -3.390  -2.136  24.296  0.00  0.00    +0.054 C 
ATOM      9  C   UNL     1      -3.546  -2.774  24.048  0.00  0.00    +0.011 C 
ATOM     10  C   UNL     1      -3.917  -2.053  24.133  0.00  0.00    +0.039 C 
ATOM     11  C   UNL     1      -4.527  -1.276  24.151  0.00  0.00    +0.074 C 
ATOM     12  N   UNL     1      -4.022  -0.710  24.500  0.00  0.00    -0.272 NA
ATOM     22  C   UNL     1      -3.991  -1.394  24.305  0.00  0.00    +0.078 C 
ATOM     23  C   UNL     1      -3.207  -1.549  24.537  0.00  0.00    +0.110 C 
ATOM     24  N   UNL     1      -3.083  -0.932  24.767  0.00  0.00    -0.298 N 
ATOM     25  C   UNL     1      -2.681  -0.294  25.102  0.00  0.00    +0.276 A 
ATOM     26  O   UNL     1      -3.060   0.434  25.186  0.00  0.00    -0.266 OA
ENDROOT
BRANCH   4   3
ATOM      1  O   UNL     1      -0.405   1.174  25.670  0.00  0.00    -0.267 OA
ATOM      2  C   UNL     1      -0.808   0.536  25.334  0.00  0.00    +0.275 C 
ATOM      3  N   UNL     1      -1.498   0.252  25.686  0.00  0.00    -0.170 NA
BRANCH   2  27
ATOM     27  C   UNL     1      -0.521   0.182  24.646  0.00  0.00    +0.085 A 
ATOM     28  C   UNL     1      -0.107  -0.531  24.604  0.00  0.00    +0.012 A 
ATOM     29  C   UNL     1       0.073  -0.674  23.812  0.00  0.00    +0.008 A 
ATOM     30  C   UNL     1      -0.230  -0.050  23.365  0.00  0.00    +0.036 A 
ATOM     31  S   UNL     1      -0.597   0.479  23.881  0.00  0.00    -0.082 S 
ENDBRANCH   2  27
ENDBRANCH   4   3
BRANCH  12  13
ATOM     13  C   UNL     1      -3.775   0.016  24.807  0.00  0.00    +0.072 C 
BRANCH  13  14
ATOM     14  C   UNL     1      -4.332   0.581  25.030  0.00  0.00    +0.022 C 
BRANCH  14  15
ATOM     15  C   UNL     1      -4.391   1.290  24.612  0.00  0.00    +0.028 C 
BRANCH  15  16
ATOM     16  C   UNL     1      -4.816   1.922  24.930  0.00  0.00    -0.022 A 
ATOM     17  C   UNL     1      -5.574   1.800  25.229  0.00  0.00    -0.004 A 
ATOM     18  C   UNL     1      -6.000   2.432  25.547  0.00  0.00    -0.000 A 
ATOM     19  C   UNL     1      -5.665   3.186  25.565  0.00  0.00    -0.000 A 
ATOM     20  C   UNL     1      -4.907   3.308  25.266  0.00  0.00    -0.000 A 
ATOM     21  C   UNL     1      -4.482   2.676  24.948  0.00  0.00    -0.004 A 
ENDBRANCH  15  16
ENDBRANCH  14  15
ENDBRANCH  13  14
ENDBRANCH  12  13
TORSDOF 6
ENDMDL
MODEL 4
REMARK VINA RESULT:     -12.8      1.287      2.768
REMARK  Name = 
REMARK  6 active torsions:
REMARK  status: ('A' for Active; 'I' for Inactive)
REMARK    1  A    between atoms: C_2  and  C_27
REMARK    2  A    between atoms: N_3  and  C_4
REMARK    3  A    between atoms: N_12  and  C_13
REMARK    4  A    between atoms: C_13  and  C_14
REMARK    5  A    between atoms: C_14  and  C_15
REMARK    6  A    between atoms: C_15  and  C_16
REMARK                            x       y       z     vdW  Elec       q    Type
REMARK                         _______ _______ _______ _____ _____    ______ ____
ROOT
ATOM      4  C   UNL     1      -2.708   2.349  24.148  0.00  0.00    +0.130 A 
ATOM      5  C   UNL     1      -2.273   3.030  24.312  0.00  0.00    +0.023 A 
ATOM      6  C   UNL     1      -1.596   2.984  24.781  0.00  0.00    +0.014 A 
ATOM      7  C   UNL     1      -1.354   2.256  25.085  0.00  0.00    +0.041 A 
ATOM      8  C   UNL     1      -0.693   1.884  25.604  0.00  0.00    +0.054 C 
ATOM      9  C   UNL     1      -0.115   2.053  25.964  0.00  0.00    +0.011 C 
ATOM     10  C   UNL     1      -0.547   1.383  25.800  0.00  0.00    +0.039 C 
ATOM     11  C   UNL     1      -0.928   0.475  25.715  0.00  0.00    +0.074 C 
ATOM     12  N   UNL     1      -1.589   0.645  25.234  0.00  0.00    -0.272 NA
ATOM     22  C   UNL     1      -1.049   1.001  25.532  0.00  0.00    +0.078 C 
ATOM     23  C   UNL     1      -1.241   1.763  25.256  0.00  0.00    +0.110 C 
ATOM     24  N   UNL     1      -1.789   1.575  24.920  0.00  0.00    -0.298 N 
ATOM     25  C   UNL     1      -2.466   1.621  24.452  0.00  0.00    +0.276 A 
ATOM     26  O   UNL     1      -2.902   0.940  24.287  0.00  0.00    -0.266 OA
ENDROOT
BRANCH   4   3
ATOM      1  O   UNL     1      -4.700   2.909  23.450  0.00  0.00    -0.267 OA
ATOM      2  C   UNL     1      -4.022   2.862  23.919  0.00  0.00    +0.275 C 
ATOM      3  N   UNL     1      -3.386   2.396  23.680  0.00  0.00    -0.170 NA
BRANCH   2  27
ATOM     27  C   UNL     1      -3.981   3.282  24.628  0.00  0.00    +0.085 A 
ATOM     28  C   UNL     1      -4.252   3.021  25.363  0.00  0.00    +0.012 A 
ATOM     29  C   UNL     1      -4.101   3.615  25.915  0.00  0.00    +0.008 A 
ATOM     30  C   UNL     1      -3.737   4.243  25.522  0.00  0.00    +0.036 A 
ATOM     31  S   UNL     1      -3.664   4.037  24.727  0.00  0.00    -0.082 S 
ENDBRANCH   2  27
ENDBRANCH   4   3
BRANCH  12  13
ATOM     13  C   UNL     1      -2.275   0.514  24.794  0.00  0.00    +0.072 C 
BRANCH  13  14
ATOM     14  C   UNL     1      -2.498  -0.255  24.598  0.00  0.00    +0.022 C 
BRANCH  14  15
ATOM     15  C   UNL     1      -3.222  -0.555  24.860  0.00  0.00    +0.028 C 
BRANCH  15  16
ATOM     16  C   UNL     1      -3.454  -1.317  24.647  0.00  0.00    -0.022 A 
ATOM     17  C   UNL     1      -3.985  -1.428  24.026  0.00  0.00    -0.004 A 
ATOM     18  C   UNL     1      -4.218  -2.190  23.812  0.00  0.00    -0.000 A 
ATOM     19  C   UNL     1      -3.919  -2.841  24.221  0.00  0.00    -0.000 A 
ATOM     20  C   UNL     1      -3.388  -2.731  24.842  0.00  0.00    -0.000 A 
ATOM     21  C   UNL     1      -3.156  -1.968  25.056  0.00  0.00    -0.004 A 
ENDBRANCH  15  16
ENDBRANCH  14  15
ENDBRANCH  13  14
ENDBRANCH  12  13
TORSDOF 6
ENDMDL
MODEL 5
REMARK VINA RESULT:     -12.7      1.371      2.501
REMARK  Name = 
REMARK  6 active torsions:
REMARK  status: ('A' for Active; 'I' for Inactive)
REMARK    1  A    between atoms: C_2  and  C_27
REMARK    2  A    between atoms: N_3  and  C_4
REMARK    3  A    between atoms: N_12  and  C_13
REMARK    4  A    between atoms: C_13  and  C_14
REMARK    5  A    between atoms: C_14  and  C_15
REMARK    6  A    between atoms: C_15  and  C_16
REMARK                            x       y       z     vdW  Elec       q    Type
REMARK                         _______ _______ _______ _____ _____    ______ ____
ROOT
ATOM      4  C   UNL     1      -4.582   2.393  24.479  0.00  0.00    +0.130 A 
ATOM      5  C   UNL     1      -4.448   3.115  24.104  0.00  0.00    +0.023 A 
ATOM      6  C   UNL     1      -3.875   3.174  23.514  0.00  0.00    +0.014 A 
ATOM      7  C   UNL     1      -3.436   2.510  23.299  0.00  0.00    +0.041 A 
ATOM      8  C   UNL     1      -2.769   2.251  22.722  0.00  0.00    +0.054 C 
ATOM      9  C   UNL     1      -2.348   2.502  22.219  0.00  0.00    +0.011 C 
ATOM     10  C   UNL     1      -2.483   1.790  22.592  0.00  0.00    +0.039 C 
ATOM     11  C   UNL     1      -2.498   0.858  22.919  0.00  0.00    +0.074 C 
ATOM     12  N   UNL     1      -3.099   0.921  23.496  0.00  0.00    -0.272 NA
ATOM     22  C   UNL     1      -2.771   1.346  23.027  0.00  0.00    +0.078 C 
ATOM     23  C   UNL     1      -3.180   2.051  23.198  0.00  0.00    +0.110 C 
ATOM     24  N   UNL     1      -3.570   1.787  23.674  0.00  0.00    -0.298 N 
ATOM     25  C   UNL     1      -4.143   1.729  24.265  0.00  0.00    +0.276 A 
ATOM     26  O   UNL     1      -4.277   1.006  24.640  0.00  0.00    -0.266 OA
ENDROOT
BRANCH   4   3
ATOM      1  O   UNL     1      -5.689   2.765  26.324  0.00  0.00    -0.267 OA
ATOM      2  C   UNL     1      -5.114   2.822  25.734  0.00  0.00    +0.275 C 
ATOM      3  N   UNL     1      -5.156   2.336  25.069  0.00  0.00    -0.170 NA
BRANCH   2  27
ATOM     27  C   UNL     1      -4.499   3.367  25.809  0.00  0.00    +0.085 A 
ATOM     28  C   UNL     1      -3.773   3.230  26.176  0.00  0.00    +0.012 A 
ATOM     29  C   UNL     1      -3.327   3.923  26.124  0.00  0.00    +0.008 A 
ATOM     30  C   UNL     1      -3.778   4.487  25.724  0.00  0.00    +0.036 A 
ATOM     31  S   UNL     1      -4.503   4.143  25.530  0.00  0.00    -0.082 S 
ENDBRANCH   2  27
ENDBRANCH   4   3
BRANCH  12  13
ATOM     13  C   UNL     1      -3.621   0.691  24.092  0.00  0.00    +0.072 C 
BRANCH  13  14
ATOM     14  C   UNL     1      -3.516  -0.032  24.475  0.00  0.00    +0.022 C 
BRANCH  14  15
ATOM     15  C   UNL     1      -4.095  -0.617  24.418  0.00  0.00    +0.028 C 
BRANCH  15  16
ATOM     16  C   UNL     1      -3.900  -1.406  24.559  0.00  0.00    -0.022 A 
ATOM     17  C   UNL     1      -3.522  -1.618  25.261  0.00  0.00    -0.004 A 
ATOM     18  C   UNL     1      -3.327  -2.407  25.402  0.00  0.00    -0.000 A 
ATOM     19  C   UNL     1      -3.510  -2.984  24.841  0.00  0.00    -0.000 A 
ATOM     20  C   UNL     1      -3.887  -2.772  24.139  0.00  0.00    -0.000 A 
ATOM     21  C   UNL     1      -4.083  -1.982  23.998  0.00  0.00    -0.004 A 
ENDBRANCH  15  16
ENDBRANCH  14  15
ENDBRANCH  13  14
ENDBRANCH  12  13
TORSDOF 6
ENDMDL
MODEL 6
REMARK VINA RESULT:     -12.3      2.360      5.374
REMARK  Name = 
REMARK  6 active torsions:
REMARK  status: ('A' for Active; 'I' for Inactive)
REMARK    1  A    between atoms: C_2  and  C_27
REMARK    2  A    between atoms: N_3  and  C_4
REMARK    3  A    between atoms: N_12  and  C_13
REMARK    4  A    between atoms: C_13  and  C_14
REMARK    5  A    between atoms: C_14  and  C_15
REMARK    6  A    between atoms: C_15  and  C_16
REMARK                            x       y       z     vdW  Elec       q    Type
REMARK                         _______ _______ _______ _____ _____    ______ ____
ROOT
ATOM      4  C   UNL     1      -1.978  -0.640  25.450  0.00  0.00    +0.130 A 
ATOM      5  C   UNL     1      -1.716  -1.379  25.193  0.00  0.00    +0.023 A 
ATOM      6  C   UNL     1      -1.091  -1.432  24.657  0.00  0.00    +0.014 A 
ATOM      7  C   UNL     1      -0.728  -0.746  24.378  0.00  0.00    +0.041 A 
ATOM      8  C   UNL     1      -0.055  -0.473  23.815  0.00  0.00    +0.054 C 
ATOM      9  C   UNL     1       0.438  -0.725  23.383  0.00  0.00    +0.011 C 
ATOM     10  C   UNL     1       0.177   0.003  23.639  0.00  0.00    +0.039 C 
ATOM     11  C   UNL     1       0.008   0.959  23.826  0.00  0.00    +0.074 C 
ATOM     12  N   UNL     1      -0.626   0.886  24.365  0.00  0.00    -0.272 NA
ATOM     22  C   UNL     1      -0.205   0.455  23.986  0.00  0.00    +0.078 C 
ATOM     23  C   UNL     1      -0.529  -0.272  24.229  0.00  0.00    +0.110 C 
ATOM     24  N   UNL     1      -0.990  -0.007  24.635  0.00  0.00    -0.298 N 
ATOM     25  C   UNL     1      -1.615   0.046  25.171  0.00  0.00    +0.276 A 
ATOM     26  O   UNL     1      -1.877   0.786  25.428  0.00  0.00    -0.266 OA
ENDROOT
BRANCH   4   3
ATOM      1  O   UNL     1      -3.953  -0.886  26.347  0.00  0.00    -0.267 OA
ATOM      2  C   UNL     1      -3.328  -0.939  25.810  0.00  0.00    +0.275 C 
ATOM      3  N   UNL     1      -2.602  -0.587  25.986  0.00  0.00    -0.170 NA
BRANCH   2  27
ATOM     27  C   UNL     1      -3.429  -1.343  25.098  0.00  0.00    +0.085 A 
ATOM     28  C   UNL     1      -3.700  -1.016  24.390  0.00  0.00    +0.012 A 
ATOM     29  C   UNL     1      -3.715  -1.616  23.823  0.00  0.00    +0.008 A 
ATOM     30  C   UNL     1      -3.453  -2.312  24.181  0.00  0.00    +0.036 A 
ATOM     31  S   UNL     1      -3.276  -2.143  24.969  0.00  0.00    -0.082 S 
ENDBRANCH   2  27
ENDBRANCH   4   3
BRANCH  12  13
ATOM     13  C   UNL     1      -1.224   1.116  24.885  0.00  0.00    +0.072 C 
BRANCH  13  14
ATOM     14  C   UNL     1      -1.498   1.894  24.880  0.00  0.00    +0.022 C 
BRANCH  14  15
ATOM     15  C   UNL     1      -1.320   2.398  25.509  0.00  0.00    +0.028 C 
BRANCH  15  16
ATOM     16  C   UNL     1      -1.492   3.204  25.454  0.00  0.00    -0.022 A 
ATOM     17  C   UNL     1      -2.263   3.470  25.576  0.00  0.00    -0.004 A 
ATOM     18  C   UNL     1      -2.435   4.275  25.521  0.00  0.00    -0.000 A 
ATOM     19  C   UNL     1      -1.835   4.813  25.343  0.00  0.00    -0.000 A 
ATOM     20  C   UNL     1      -1.064   4.547  25.220  0.00  0.00    -0.000 A 
ATOM     21  C   UNL     1      -0.892   3.741  25.276  0.00  0.00    -0.004 A 
ENDBRANCH  15  16
ENDBRANCH  14  15
ENDBRANCH  13  14
ENDBRANCH  12  13
TORSDOF 6
ENDMDL
